%& MODIF TYPELEM  DATE 16/01/2012   AUTEUR PELLET J.PELLET 
%            CONFIGURATION MANAGEMENT OF EDF VERSION
% ======================================================================
% COPYRIGHT (C) 1991 - 2012  EDF R&D                  WWW.CODE-ASTER.ORG
% THIS PROGRAM IS FREE SOFTWARE; YOU CAN REDISTRIBUTE IT AND/OR MODIFY
% IT UNDER THE TERMS OF THE GNU GENERAL PUBLIC LICENSE AS PUBLISHED BY
% THE FREE SOFTWARE FOUNDATION; EITHER VERSION 2 OF THE LICENSE, OR
% (AT YOUR OPTION) ANY LATER VERSION.
%
% THIS PROGRAM IS DISTRIBUTED IN THE HOPE THAT IT WILL BE USEFUL, BUT
% WITHOUT ANY WARRANTY; WITHOUT EVEN THE IMPLIED WARRANTY OF
% MERCHANTABILITY OR FITNESS FOR A PARTICULAR PURPOSE. SEE THE GNU
% GENERAL PUBLIC LICENSE FOR MORE DETAILS.
%
% YOU SHOULD HAVE RECEIVED A COPY OF THE GNU GENERAL PUBLIC LICENSE
% ALONG WITH THIS PROGRAM; IF NOT, WRITE TO EDF R&D CODE_ASTER,
%    1 AVENUE DU GENERAL DE GAULLE, 92141 CLAMART CEDEX, FRANCE.
% ======================================================================
GENER_TH3D_3
TYPE_GENE__

ENTETE__ ELEMENT__ THER_HEXA20      MAILLE__ HEXA20
   ELREFE__  H20       GAUSS__  RIGI=FPG27  FPG1=FPG1 MASS=FPG27  GANO=FPG8 FPG_LISTE__ MATER = (FPG1)
   ELREFE__  QU8       GAUSS__  RIGI=FPG9   MASS=FPG9
ENTETE__ ELEMENT__ THER_HEXA27      MAILLE__ HEXA27
   ELREFE__  H27       GAUSS__  RIGI=FPG27  FPG1=FPG1 MASS=FPG27  GANO=FPG8 FPG_LISTE__ MATER = (FPG1)
   ELREFE__  QU9       GAUSS__  RIGI=FPG9   MASS=FPG9
ENTETE__ ELEMENT__ THER_HEXA8       MAILLE__ HEXA8
   ELREFE__  HE8       GAUSS__  RIGI=FPG8   FPG1=FPG1 MASS=FPG8   GANO=FPG8 FPG_LISTE__ MATER = (FPG1)
   ELREFE__  QU4       GAUSS__  RIGI=FPG4   MASS=FPG4
ENTETE__ ELEMENT__ THER_PENTA15     MAILLE__ PENTA15
   ELREFE__  P15       GAUSS__  RIGI=FPG21  FPG1=FPG1 MASS=FPG21  GANO=FPG21 FPG_LISTE__ MATER = (FPG1)
   ELREFE__  QU8       GAUSS__  RIGI=FPG9   MASS=FPG9
   ELREFE__  TR6       GAUSS__  RIGI=FPG6   MASS=FPG6
ENTETE__ ELEMENT__ THER_PENTA6      MAILLE__ PENTA6
   ELREFE__  PE6       GAUSS__  RIGI=FPG6   FPG1=FPG1 MASS=FPG6   GANO=FPG6 FPG_LISTE__ MATER = (FPG1)
   ELREFE__  QU4       GAUSS__  RIGI=FPG4   MASS=FPG4
   ELREFE__  TR3       GAUSS__  RIGI=COT3   MASS=COT3
ENTETE__ ELEMENT__ THER_PYRAM13     MAILLE__ PYRAM13
   ELREFE__  P13       GAUSS__  RIGI=FPG27 FPG1=FPG1  MASS=FPG27  GANO=FPG5 FPG_LISTE__ MATER = (FPG1)
   ELREFE__  QU8       GAUSS__  RIGI=FPG9   MASS=FPG9
   ELREFE__  TR6       GAUSS__  RIGI=FPG6   MASS=FPG6
   OPTION__   CHAR_THER_GRAI_F        -1
   OPTION__   CHAR_THER_GRAI_R        -1
   OPTION__   DURT_ELNO          -1
   OPTION__   META_ELNO          -1
   OPTION__   META_INIT_ELNO          -1
   OPTION__   ERTH_ELEM               -1
   OPTION__   ERTH_ELNO               -1
ENTETE__ ELEMENT__ THER_PYRAM5      MAILLE__ PYRAM5
   ELREFE__  PY5       GAUSS__  RIGI=FPG5  FPG1=FPG1 MASS=FPG5  GANO=FPG5 FPG_LISTE__ MATER = (FPG1)
   ELREFE__  QU4       GAUSS__  RIGI=FPG4  MASS=FPG4
   ELREFE__  TR3       GAUSS__  RIGI=COT3  MASS=COT3
   OPTION__   CHAR_THER_GRAI_F        -1
   OPTION__   CHAR_THER_GRAI_R        -1
   OPTION__   DURT_ELNO          -1
   OPTION__   META_ELNO          -1
   OPTION__   META_INIT_ELNO          -1
   OPTION__   ERTH_ELEM               -1
   OPTION__   ERTH_ELNO               -1
ENTETE__ ELEMENT__ THER_TETRA10     MAILLE__ TETRA10
   ELREFE__  T10       GAUSS__  RIGI=FPG15  FPG1=FPG1  MASS=FPG15  GANO=FPG15 FPG_LISTE__ MATER = (FPG1)
   ELREFE__  TR6       GAUSS__  RIGI=FPG6   MASS=FPG6
ENTETE__ ELEMENT__ THER_TETRA4      MAILLE__ TETRA4
   ELREFE__  TE4       GAUSS__  RIGI=FPG4  FPG1=FPG1  MASS=FPG4   GANO=FPG4 FPG_LISTE__ MATER = (FPG1)
   ELREFE__  TR3       GAUSS__  RIGI=COT3   MASS=COT3
ENTETE__ ELEMENT__ THER_HEXA8_D     MAILLE__ HEXA8
   ELREFE__  HE8       GAUSS__  RIGI=FPG8  FPG1=FPG1 MASS=FPG8  GANO=FPG8  NOEU=NOEU_S FPG_LISTE__ MATER = (FPG1)
   ELREFE__  QU4       GAUSS__  RIGI=FPG4    MASS=FPG4
ENTETE__ ELEMENT__ THER_PENTA6_D    MAILLE__ PENTA6
   ELREFE__  PE6       GAUSS__  RIGI=FPG6  FPG1=FPG1 MASS=FPG6  GANO=FPG6  NOEU=NOEU_S FPG_LISTE__ MATER = (FPG1)
   ELREFE__  QU4       GAUSS__  RIGI=FPG4    MASS=FPG4
   ELREFE__  TR3       GAUSS__  RIGI=COT3    MASS=COT3
ENTETE__ ELEMENT__ THER_PYRAM5_D    MAILLE__ PYRAM5
   ELREFE__  PY5       GAUSS__  RIGI=FPG5   FPG1=FPG1  MASS=FPG5  GANO=FPG5 NOEU=NOEU_S FPG_LISTE__ MATER = (FPG1)
   ELREFE__  QU4       GAUSS__  RIGI=FPG4    MASS=FPG4
   ELREFE__  TR3       GAUSS__  RIGI=COT3    MASS=COT3
   OPTION__   INIT_MAIL_VOIS          -1
   OPTION__   ERTH_ELEM               -1
   OPTION__   ERTH_ELNO               -1
ENTETE__ ELEMENT__ THER_TETRA4_D    MAILLE__ TETRA4
   ELREFE__  TE4       GAUSS__  RIGI=FPG4 FPG1=FPG1  MASS=FPG4  GANO=FPG4  NOEU=NOEU_S FPG_LISTE__ MATER = (FPG1)
   ELREFE__  TR3       GAUSS__  RIGI=COT3    MASS=COT3

MODE_LOCAL__
    ECODRET  = CODE_I   ELEM__         (IRET     )
    CMATERC  = ADRSJEVE ELEM__         (I1       )
    CFTRC    = ADRSJEVN ELEM__         (I1       I2       )
    CCAMASS  = CAMASS   ELEM__         (C        ALPHA    BETA     KAPPA    X        Y
                                        Z        )
    CCOMPOR  = COMPOR   ELEM__         (RELCOM   )
    CCOMPO2  = COMPOR   ELEM__         (NBVARI   )
    EDCEL_I  = DCEL_I   ELEM__         (NPG_DYN  NCMP_DYN )
    NVITESR  = DEPL_R   ELNO__ IDEN__  (DX       DY       DZ       )
    EDURTNO  = DURT_R   ELNO__ IDEN__  (HV       )
    EENEDNO  = ENER_R   ELEM__         (TOTALE   )
    EERREURT = ERRE_R   ELEM__         (ERTABS   ERTREL   TERMNO   TERMVO   TERMV2   TERMV1
                                        TERMSA   TERMS2   TERMS1   TERMFL   TERMF2   TERMF1
                                        TERMEC   TERME2   TERME1   )
    EERRENOT = ERRE_R   ELNO__ IDEN__  (ERTABS   ERTREL   TERMNO   TERMVO   TERMV2   TERMV1
                                        TERMSA   TERMS2   TERMS1   TERMFL   TERMF2   TERMF1
                                        TERMEC   TERME2   TERME1   )
    CGRAINF  = FLUX_F   ELEM__         (FLUX     FLUY     FLUZ     )
    CGRAINR  = FLUX_R   ELEM__         (FLUX     FLUY     FLUZ     )
    EFLUXPG  = FLUX_R   ELGA__ RIGI     (FLUX     FLUY     FLUZ     )
    EFLUXNO  = FLUX_R   ELNO__ IDEN__  (FLUX     FLUY     FLUZ     )
    NGEOMER  = GEOM_R   ELNO__ IDEN__  (X        Y        Z        )
    EGGEOP_R = GEOM_R   ELGA__ RIGI     (X        Y        Z        W       )
    ENORME   = NEUT_R   ELEM__         (X1       )
    ENGEOM_R = GEOM_R   ELNO__ IDEN__  (X        Y        Z        )
    EHYDRNO  = HYDR_R   ELNO__ IDEN__  (HYDR     )
    CTEMPSR  = INST_R   ELEM__         (INST     DELTAT   THETA    KHI      R        RHO      )
    ENINST_R = INST_R   ELNO__ IDEN__  (INST     )
    CDECENT  = NEUT_K24 ELEM__         (Z1       )
    CREFERK  = NEUT_K24 ELEM__         (Z[19])
    EGNEUT1R = NEUT_R   ELGA__ RIGI     (X1       )
    CSOURCF  = SOUR_F   ELEM__         (SOUR     )
    ESOURCR  = SOUR_R   ELGA__ RIGI    (SOUR     )
    CSOURCR  = SOUR_R   ELEM__         (SOUR     )
    NSOURCR  = SOUR_R   ELNO__ IDEN__  (SOUR     )
    DDL_THER = TEMP_R   ELNO__ IDEN__  (TEMP     )
    CPHASIN_ = VAR2_R   ELEM__         (V1       V2       V3       V4       V5       )
    EPHASNO_ = VARI_R   ELNO__ IDEN__  (VARI     )
    EGNEUT_R = NEUT_R   ELGA__ RIGI    (X[30])
    EMNEUT_R = NEUT_R   ELEM__         (X[30]     )
    EGNEUT_F = NEUT_F   ELGA__ RIGI    (X[30])
    EVOISIN  = VOISIN   ELEM__         (V0       V1       V2       V3       V4       V5
                                        V6       T0       T1       T2       T3       T4
                                        T5       T6       )

    ENNEUT_F = NEUT_F   ELNO__ IDEN__  (X[30]    )
    ENNEUT_R = NEUT_R   ELNO__ IDEN__  (X[30]    )

VECTEUR__
    MVECTTR = VTEM_R DDL_THER

MATRICE__
    MMATTTR = MTEM_R DDL_THER DDL_THER
    MMATTSR = MTNS_R DDL_THER DDL_THER

OPTION__
    VERI_JACOBIEN      328    IN__   NGEOMER  PGEOMER     OUT__  ECODRET  PCODRET
    CARA_GEOM           -1    IN__   XXXXXX   XXXXXX
                              OUT__  XXXXXX   XXXXXX
    CHAR_LIMITE         -1    IN__   XXXXXX   XXXXXX
                              OUT__  XXXXXX   XXXXXX
    CHAR_THER_EVOL      61    IN__   CCAMASS  PCAMASS  NGEOMER  PGEOMER  CMATERC  PMATERC  DDL_THER PTEMPER
                                     CTEMPSR  PTEMPSR
                              OUT__  MVECTTR  PVECTTR
    CHAR_THER_EVOLNI    281   IN__   CCOMPOR  PCOMPOR  NGEOMER  PGEOMER  EHYDRNO  PHYDRPM  CMATERC  PMATERC
                                     DDL_THER PTEMPER  CTEMPSR  PTEMPSR  DDL_THER PTMPCHF  DDL_THER PTMPCHI
                              OUT__  MVECTTR  PVECTTI  MVECTTR  PVECTTR
    CHAR_THER_GRAI_F    217   IN__   NGEOMER  PGEOMER  CGRAINF  PGRAINF  CMATERC  PMATERC  CTEMPSR  PTEMPSR
                              OUT__  MVECTTR  PVECTTR
    CHAR_THER_GRAI_R    217   IN__   NGEOMER  PGEOMER  CGRAINR  PGRAINR  CMATERC  PMATERC
                              OUT__  MVECTTR  PVECTTR
    CHAR_THER_SOUR_F    56    IN__   NGEOMER  PGEOMER  CSOURCF  PSOURCF  CTEMPSR  PTEMPSR
                              OUT__  MVECTTR  PVECTTR
    CHAR_THER_SOUR_R    55    IN__   NGEOMER  PGEOMER  ESOURCR  PSOURCR
                              OUT__  MVECTTR  PVECTTR
    CHAR_THER_TNL       525   IN__   NGEOMER  PGEOMER  EGNEUT1R PLAGRM   CMATERC  PMATERC  DDL_THER PTEMPEI
                                     DDL_THER PTEMPER  CTEMPSR  PTEMPSR  NVITESR  PVITESR
                              OUT__  EGNEUT1R PLAGRP   MVECTTR  PRESIDU  MVECTTR  PVECTTR
    COOR_ELGA           488   IN__   NGEOMER  PGEOMER
                              OUT__  EGGEOP_R PCOORPG
    DURT_ELNO      552   IN__   CMATERC  PMATERC  EPHASNO_ PPHASIN
                              OUT__  EDURTNO  PDURT_R
    ECIN_ELEM      -1    IN__   XXXXXX   XXXXXX
                              OUT__  XXXXXX   XXXXXX
    ENER_ELAS           -1    IN__   XXXXXX   XXXXXX
                              OUT__  XXXXXX   XXXXXX
    ENER_TOTALE         -1    IN__   XXXXXX   XXXXXX
                              OUT__  XXXXXX   XXXXXX
    EPOT_ELEM      -1    IN__   XXXXXX   XXXXXX
                              OUT__  XXXXXX   XXXXXX
    EPOT_ELEM_TEMP      66    IN__   NGEOMER  PGEOMER  CMATERC  PMATERC  DDL_THER PTEMPER  CTEMPSR  PTEMPSR
                              OUT__  EENEDNO  PENERDR
    ERTH_ELEM           3     IN__   CREFERK  PCHARG   EFLUXNO  PFLUX_M  EFLUXNO  PFLUX_P  NGEOMER  PGEOMER
                                     CMATERC  PMATERC  CSOURCF  PSOURCF  DDL_THER PTEMP_M  DDL_THER PTEMP_P
                                     EVOISIN  PVOISIN  ESOURCR  PSOURCR
                              OUT__  EERREURT PERREUR
    ERTH_ELNO           379   IN__   EERREURT PERREUR
                              OUT__  EERRENOT PERRENO
    FLUX_ELGA      62    IN__   CCAMASS  PCAMASS  NGEOMER  PGEOMER  CMATERC  PMATERC  DDL_THER PTEMPER
                                     CTEMPSR  PTEMPSR
                              OUT__  EFLUXPG  PFLUX_R
    FLUX_ELNO      63    IN__   CCAMASS  PCAMASS  NGEOMER  PGEOMER  CMATERC  PMATERC  DDL_THER PTEMPER
                                     CTEMPSR  PTEMPSR
                              OUT__  EFLUXNO  PFLUX_R
    INDIC_ENER          -1    IN__   XXXXXX   XXXXXX
                              OUT__  XXXXXX   XXXXXX
    INDIC_SEUIL         -1    IN__   XXXXXX   XXXXXX
                              OUT__  XXXXXX   XXXXXX
    INIT_MAIL_VOIS      99    IN__   NGEOMER  PGEOMER
                              OUT__  EVOISIN  PVOISIN
    MASS_INER           -1    IN__   XXXXXX   XXXXXX
                              OUT__  XXXXXX   XXXXXX
    MASS_THER           54    IN__   NGEOMER  PGEOMER  CMATERC  PMATERC  CTEMPSR  PTEMPSR
                              OUT__  MMATTTR  PMATTTR
    META_ELNO      64    IN__   CCOMPOR  PCOMPOR  CFTRC    PFTRC    CMATERC  PMATERC  EPHASNO_ PPHASIN
                                     DDL_THER PTEMPAR  DDL_THER PTEMPER  DDL_THER PTEMPIR  CTEMPSR  PTEMPSR
                              OUT__  EPHASNO_ PPHASNOU
    META_INIT_ELNO      321   IN__   CCOMPOR  PCOMPOR  CMATERC  PMATERC  CPHASIN_ PPHASIN  DDL_THER PTEMPER
                              OUT__  EPHASNO_ PPHASNOU
    MTAN_RIGI_MASS      279   IN__   CCOMPOR  PCOMPOR  NGEOMER  PGEOMER  CMATERC  PMATERC  DDL_THER PTEMPEI
                                     CTEMPSR  PTEMPSR  DDL_THER PTMPCHF  DDL_THER PTMPCHI
                              OUT__  MMATTTR  PMATTTR
    NSPG_NBVA           496   IN__   CCOMPO2  PCOMPOR
                              OUT__  EDCEL_I  PDCEL_I
    NORME_L2            563   IN__   EGGEOP_R PCOORPG  EGNEUT_R PCHAMPG  EMNEUT_R PCOEFR
                              OUT__  ENORME   PNORME
    RESI_RIGI_MASS      283   IN__   CCOMPOR  PCOMPOR  NGEOMER  PGEOMER  EHYDRNO  PHYDRPM  CMATERC  PMATERC
                                     DDL_THER PTEMPEI  DDL_THER PTEMPER  CTEMPSR  PTEMPSR  DDL_THER PTMPCHF
                                     DDL_THER PTMPCHI
                              OUT__  EHYDRNO  PHYDRPP  MVECTTR  PRESIDU
    RICE_TRACEY         -1    IN__   XXXXXX   XXXXXX
                              OUT__  XXXXXX   XXXXXX
    RIGI_THER           51    IN__   CCAMASS  PCAMASS  NGEOMER  PGEOMER  CMATERC  PMATERC  CTEMPSR  PTEMPSR
                              OUT__  MMATTTR  PMATTTR
    RIGI_THER_CONV_T    522   IN__   NGEOMER  PGEOMER  CMATERC  PMATERC  CDECENT  PNEUK24  DDL_THER PTEMPEI
                                     CTEMPSR  PTEMPSR  NVITESR  PVITESR
                              OUT__  MMATTSR  PMATTTR
    RIGI_THER_TRANS     521   IN__   NGEOMER  PGEOMER  CMATERC  PMATERC  DDL_THER PTEMPEI  DDL_THER PTEMPER
                                     CTEMPSR  PTEMPSR
                              OUT__  MMATTTR  PMATTTR
    SOUR_ELGA      319   IN__   CCAMASS  PCAMASS  NGEOMER  PGEOMER  CMATERC  PMATERC  DDL_THER PTEMPER
                                     CTEMPSR  PTEMPSR
                              OUT__  ESOURCR  PSOUR_R
    SYME_MTNS_R         222   IN__   MMATTSR  PNOSYM
                              OUT__  MMATTTR  PSYM
    TOU_INI_ELNO        99    IN__   NGEOMER  PGEOMER
                              OUT__  ENGEOM_R PGEOM_R  ENINST_R PINST_R  ENNEUT_F PNEUT_F  ENNEUT_R PNEUT_R
                                     NSOURCR  PSOUR_R  EHYDRNO  PHYDRPM  EFLUXNO  PFLUX_R
    TOU_INI_ELEM        99    IN__   NGEOMER  PGEOMER
                              OUT__  CSOURCR  PSOUR_R
    TOU_INI_ELGA        99    IN__   NGEOMER  PGEOMER
                              OUT__  ESOURCR  PSOUR_R  EGNEUT1R PNEUT_R  EGNEUT_R PNEUT_R EGNEUT_F PNEUT_F 
                                     EFLUXPG  PFLUX_R
    WEIBULL             -1    IN__   XXXXXX   XXXXXX
                              OUT__  XXXXXX   XXXXXX
