%& MODIF TYPELEM  DATE 03/04/2006   AUTEUR JMBHH01 J.M.PROIX 
%            CONFIGURATION MANAGEMENT OF EDF VERSION
% ======================================================================
% COPYRIGHT (C) 1991 - 2002  EDF R&D                  WWW.CODE-ASTER.ORG
% THIS PROGRAM IS FREE SOFTWARE; YOU CAN REDISTRIBUTE IT AND/OR MODIFY
% IT UNDER THE TERMS OF THE GNU GENERAL PUBLIC LICENSE AS PUBLISHED BY
% THE FREE SOFTWARE FOUNDATION; EITHER VERSION 2 OF THE LICENSE, OR
% (AT YOUR OPTION) ANY LATER VERSION.
%
% THIS PROGRAM IS DISTRIBUTED IN THE HOPE THAT IT WILL BE USEFUL, BUT
% WITHOUT ANY WARRANTY; WITHOUT EVEN THE IMPLIED WARRANTY OF
% MERCHANTABILITY OR FITNESS FOR A PARTICULAR PURPOSE. SEE THE GNU
% GENERAL PUBLIC LICENSE FOR MORE DETAILS.
%
% YOU SHOULD HAVE RECEIVED A COPY OF THE GNU GENERAL PUBLIC LICENSE
% ALONG WITH THIS PROGRAM; IF NOT, WRITE TO EDF R&D CODE_ASTER,
%    1 AVENUE DU GENERAL DE GAULLE, 92141 CLAMART CEDEX, FRANCE.
% ======================================================================
GENER_ME2DB1
TYPE_GENE__

ENTETE__ ELEMENT__ MECA_2D_BARRE    MAILLE__ SEG2
   ELREFE__    SE2    GAUSS__  RIGI=FPG1   FPG_LISTE__  MATER = (RIGI)

MODE_LOCAL__
    ZVARCPG  = VARI_R   ELGA__ MATER   (VARI     ) 
    CMATERC  = ADRSJEVE ELEM__         (I1       )
    CCAGNBA  = CAGNBA   ELEM__         (A1       )
    CCAORIE  = CAORIE   ELEM__         (ALPHA    BETA     GAMMA    )
    CCARCRI  = CARCRI   ELEM__         (ITECREL  MACOMP   RESCREL  THETA    ITEDEC   INTLOC   )
    ECODRET  = CODE_I   ELEM__         (IRET     )
    CCOMPOR  = COMPOR   ELEM__         (RELCOM   NBVARI   DEFORM   INCELA   C_PLAN   )
    CCOMPO2  = COMPOR   ELEM__         (NBVARI   )
    EDCEL_I  = DCEL_I   ELEM__         (NPG_DYN  NCMP_DYN )
    NDEPLAC  = DEPL_C   ELNO__ IDEN__  (DX       DY       )
    DDL_MECA = DEPL_R   ELNO__ IDEN__  (DX       DY       )
    NVITER   = DEPL_R   ELNO__ IDEN__  (DX       DY       )
    EENECNO  = ENER_R   ELEM__         (TOTALE   )
    EENEDNO  = ENER_R   ELEM__         (TOTALE   )
    CFORCEF  = FORC_F   ELEM__         (FX       FY       REP      )
    CFORCER  = FORC_R   ELEM__         (FX       FY       REP      )
    CFREQR   = FREQ_R   ELEM__         (FREQ     )
    NGEOMER  = GEOM_R   ELNO__ IDEN__  (X        Y        )
    EHYDRER  = HYDR_R   ELGA__ RIGI    (HYDR     )
    EHYDREN  = HYDR_R   ELNO__ IDEN__  (HYDR     )
    CTEMPSR  = INST_R   ELEM__         (INST     )
    EMASSINE = MASS_R   ELEM__         (M        CDGX     CDGY     CDGZ     IXX      IYY
                                        IZZ      IXY      IXZ      IYZ      )
    CPESANR  = PESA_R   ELEM__         (G        AG       BG       CG       )
    EDEFONO  = EPSI_R   ELNO__ IDEN__  (EPXX     )
    EDEFONC  = EPSI_C   ELNO__ IDEN__  (EPXX     )
    EEFGEGA  = SIEF_R   ELGA__ RIGI   (N        )
    EEFGEGC  = SIEF_C   ELGA__ RIGI   (N        )
    ECONTNO  = SIEF_R   ELNO__ IDEN__  (N        )
    ECONTNC  = SIEF_C   ELNO__ IDEN__  (N        )
    EEFGENO  = SIEF_R   ELNO__ IDEN__  (N        )
    EEFGENC  = SIEF_C   ELNO__ IDEN__  (N        )
    CTEREFE  = TEMP_R   ELEM__         (TEMP     )
    NTEMPER  = TEMP_R   ELNO__ IDEN__  (TEMP     )
    ZVARIPG  = VARI_R   ELGA__ RIGI   (VARI     )
    CVENTCX  = VENTCX_F ELEM__         (FCXP     )

VECTEUR__
    MVECTUR = VDEP_R DDL_MECA

MATRICE__
    MMATUUC = MDEP_C NDEPLAC NDEPLAC
    MMATUUR = MDEP_R DDL_MECA DDL_MECA
    MMATUNS = MDNS_R DDL_MECA DDL_MECA

OPTION__
    INIT_VARC           99    IN__   NGEOMER  PGEOMER
                              OUT__  ZVARCPG  PVARCPR
    ADD_SIGM            581   IN__   EEFGEGA  PEPCON1  EEFGEGA  PEPCON2
                              OUT__  EEFGEGA  PEPCON3
    AMOR_MECA           50    IN__   NGEOMER  PGEOMER  MMATUUR  PMASSEL  CMATERC  PMATERC  MMATUUR  PRIGIEL
                                     CTEREFE  PTEMPER
                              OUT__  MMATUUR  PMATUUR
    CHAR_MECA_EPSI_R    -1    IN__   XXXXXX   XXXXXX
                              OUT__  XXXXXX   XXXXXX
    CHAR_MECA_FC1D1D    -1    IN__   XXXXXX   XXXXXX
                              OUT__  XXXXXX   XXXXXX
    CHAR_MECA_FF1D1D    155   IN__   CCAGNBA  PCAGNBA  CCAORIE  PCAORIE  CFORCEF  PFF1D1D  NGEOMER  PGEOMER
                                     CMATERC  PMATERC  CTEMPSR  PTEMPSR
                              OUT__  MVECTUR  PVECTUR
    CHAR_MECA_FR1D1D    155   IN__   CCAGNBA  PCAGNBA  CCAORIE  PCAORIE  CFORCER  PFR1D1D  NGEOMER  PGEOMER
                                     CMATERC  PMATERC
                              OUT__  MVECTUR  PVECTUR
    CHAR_MECA_FRELEC    -1    IN__   XXXXXX   XXXXXX
                              OUT__  XXXXXX   XXXXXX
    CHAR_MECA_FRLAPL    -1    IN__   XXXXXX   XXXXXX
                              OUT__  XXXXXX   XXXXXX
    CHAR_MECA_PESA_R    155   IN__   CCAGNBA  PCAGNBA  CCAORIE  PCAORIE  NGEOMER  PGEOMER  CMATERC  PMATERC
                                     CPESANR  PPESANR
                              OUT__  MVECTUR  PVECTUR
    CHAR_MECA_ROTA_R    -1    IN__   XXXXXX   XXXXXX
                              OUT__  XXXXXX   XXXXXX
    CHAR_MECA_SF1D1D    155   IN__   CCAORIE  PCAORIE  DDL_MECA PDEPLMR  DDL_MECA PDEPLPR  CFORCEF  PFF1D1D
                                     NGEOMER  PGEOMER  CMATERC  PMATERC  CTEMPSR  PTEMPSR
                              OUT__  MVECTUR  PVECTUR
    CHAR_MECA_SR1D1D    155   IN__   CCAORIE  PCAORIE  DDL_MECA PDEPLMR  DDL_MECA PDEPLPR  NGEOMER  PGEOMER
                                     CVENTCX  PVENTCX  NVITER   PVITER
                              OUT__  MVECTUR  PVECTUR
    CHAR_MECA_TEMP_R    155   IN__   CCAGNBA  PCAGNBA  CCAORIE  PCAORIE  NGEOMER  PGEOMER  CMATERC  PMATERC
                                     NTEMPER  PTEMPER  CTEREFE  PTEREF
                              OUT__  MVECTUR  PVECTUR
    CHAR_MECA_SECH_R    155   IN__   CCAGNBA  PCAGNBA  CCAORIE  PCAORIE  NGEOMER  PGEOMER  CMATERC  PMATERC  
                                     NTEMPER  PSECHER  CTEREFE  PSECREF  NTEMPER  PTEMPER  CTEMPSR  PTEMPSR  
                              OUT__  MVECTUR  PVECTUR  
    CHAR_MECA_HYDR_R    155   IN__   CCAGNBA  PCAGNBA  CCAORIE  PCAORIE  NGEOMER  PGEOMER  CMATERC  PMATERC  
                                     EHYDRER  PHYDRER  NTEMPER  PTEMPER  CTEMPSR  PTEMPSR  
                              OUT__  MVECTUR  PVECTUR  
    ECIN_ELEM_DEPL      154   IN__   CCAGNBA  PCAGNBA  CCAORIE  PCAORIE  DDL_MECA PDEPLAR  CFREQR   PFREQR
                                     NGEOMER  PGEOMER  CMATERC  PMATERC
                              OUT__  EENECNO  PENERCR
    EFGE_ELNO_CART      -1    IN__   XXXXXX   XXXXXX
                              OUT__  XXXXXX   XXXXXX
    EFGE_ELNO_DEPL      154   IN__   CCAGNBA  PCAGNBA  CCAORIE  PCAORIE  DDL_MECA PDEPLAR  NGEOMER  PGEOMER
                                     CMATERC  PMATERC  NTEMPER  PTEMPER  CTEREFE  PTEREF
                              OUT__  EEFGENO  PEFFORR
                                     EEFGENC  PEFFORC
    EPOT_ELEM_DEPL      154   IN__   CCAGNBA  PCAGNBA  CCAORIE  PCAORIE  DDL_MECA PDEPLAR  NGEOMER  PGEOMER
                                     CMATERC  PMATERC
                              OUT__  EENEDNO  PENERDR
    EPSI_ELNO_DEPL      154   IN__   CCAORIE  PCAORIE  DDL_MECA PDEPLAR  NGEOMER  PGEOMER
                                     CMATERC  PMATERC
                              OUT__  EDEFONO  PDEFORR
                                     EDEFONC  PDEFORC
    FORC_NODA           156   IN__   CCAORIE  PCAORIE  EEFGEGA  PCONTMR
                              OUT__  MVECTUR  PVECTUR
    FULL_MECA           248   IN__   CCAGNBA  PCAGNBA  CCAORIE  PCAORIE  CCARCRI  PCARCRI  CCOMPOR  PCOMPOR
                                     EEFGEGA  PCONTMR  DDL_MECA PDEPLMR  DDL_MECA PDEPLPR  NGEOMER  PGEOMER
                                     CTEMPSR  PINSTMR  CTEMPSR  PINSTPR  CMATERC  PMATERC  NTEMPER  PTEMPMR
                                     NTEMPER  PTEMPPR  CTEREFE  PTEREF   ZVARCPG  PVARCMR  ZVARCPG  PVARCPR
                                     ZVARIPG  PVARIMR
                                     EHYDRER  PHYDRMR  EHYDRER  PHYDRPR  NTEMPER  PSECHMR  NTEMPER  PSECHPR  
                                     CTEREFE  PSECREF
                              OUT__  ECODRET  PCODRET  EEFGEGA  PCONTPR  MMATUUR  PMATUUR  ZVARIPG  PVARIPR
                                     MVECTUR  PVECTUR
    FULL_MECA_ELAS      248   IN__   CCAGNBA  PCAGNBA  CCAORIE  PCAORIE  CCARCRI  PCARCRI  CCOMPOR  PCOMPOR
                                     EEFGEGA  PCONTMR  DDL_MECA PDEPLMR  DDL_MECA PDEPLPR  NGEOMER  PGEOMER
                                     CTEMPSR  PINSTMR  CTEMPSR  PINSTPR  CMATERC  PMATERC  NTEMPER  PTEMPMR
                                     NTEMPER  PTEMPPR  CTEREFE  PTEREF   ZVARCPG  PVARCMR  ZVARCPG  PVARCPR
                                     ZVARIPG  PVARIMR
                                     EHYDRER  PHYDRMR  EHYDRER  PHYDRPR  NTEMPER  PSECHMR  NTEMPER  PSECHPR  
                                     CTEREFE  PSECREF
                              OUT__  ECODRET  PCODRET  EEFGEGA  PCONTPR  MMATUUR  PMATUUR  ZVARIPG  PVARIPR
                                     MVECTUR  PVECTUR
    INDU_MUTU           -1    IN__   XXXXXX   XXXXXX
                              OUT__  XXXXXX   XXXXXX
    MASS_FLUI_STRU      -1    IN__   XXXXXX   XXXXXX
                              OUT__  XXXXXX   XXXXXX
    MASS_INER           245   IN__   CCAGNBA  PCAGNBA  CCAORIE  PCAORIE  NGEOMER  PGEOMER  CMATERC  PMATERC
                              OUT__  EMASSINE PMASSINE
    MASS_MECA           153   IN__   CCAGNBA  PCAGNBA  CCAORIE  PCAORIE  NGEOMER  PGEOMER  CMATERC  PMATERC
                              OUT__  MMATUUR  PMATUUR
    MASS_MECA_DIAG      -1    IN__   XXXXXX   XXXXXX
                              OUT__  XXXXXX   XXXXXX
    MECA_SENS_MATE      -1    IN__   XXXXXX   XXXXXX
                              OUT__  XXXXXX   XXXXXX
    MECA_SENS_RAPH      -1    IN__   XXXXXX   XXXXXX
                              OUT__  XXXXXX   XXXXXX
    M_GAMMA             -1    IN__   XXXXXX   XXXXXX
                              OUT__  XXXXXX   XXXXXX
    NSPG_NBVA           496   IN__   CCOMPO2  PCOMPOR
                              OUT__  EDCEL_I  PDCEL_I
    PAS_COURANT         -1    IN__   XXXXXX   XXXXXX
                              OUT__  XXXXXX   XXXXXX
    RAPH_MECA           248   IN__   CCAGNBA  PCAGNBA  CCAORIE  PCAORIE  CCARCRI  PCARCRI  CCOMPOR  PCOMPOR
                                     EEFGEGA  PCONTMR  DDL_MECA PDEPLMR  DDL_MECA PDEPLPR  NGEOMER  PGEOMER
                                     CTEMPSR  PINSTMR  CTEMPSR  PINSTPR  CMATERC  PMATERC  NTEMPER  PTEMPMR
                                     NTEMPER  PTEMPPR  CTEREFE  PTEREF   ZVARCPG  PVARCMR  ZVARCPG  PVARCPR
                                     ZVARIPG  PVARIMR
                                     EHYDRER  PHYDRMR  EHYDRER  PHYDRPR  NTEMPER  PSECHMR  NTEMPER  PSECHPR  
                                     CTEREFE  PSECREF
                              OUT__  ECODRET  PCODRET  EEFGEGA  PCONTPR  ZVARIPG  PVARIPR  MVECTUR  PVECTUR
    REFE_FORC_NODA      -1    IN__   XXXXXX   XXXXXX
                              OUT__  XXXXXX   XXXXXX
    RIGI_FLUI_STRU      -1    IN__   XXXXXX   XXXXXX
                              OUT__  XXXXXX   XXXXXX
    RIGI_MECA           153   IN__   CCAGNBA  PCAGNBA  CCAORIE  PCAORIE  NGEOMER  PGEOMER  CMATERC  PMATERC
                              OUT__  MMATUUR  PMATUUR
    RIGI_MECA_ELAS      248   IN__   CCAGNBA  PCAGNBA  CCAORIE  PCAORIE  CCARCRI  PCARCRI  CCOMPOR  PCOMPOR
                                     EEFGEGA  PCONTMR  DDL_MECA PDEPLMR  DDL_MECA PDEPLPR  NGEOMER  PGEOMER
                                     CTEMPSR  PINSTMR  CTEMPSR  PINSTPR  CMATERC  PMATERC  NTEMPER  PTEMPMR
                                     NTEMPER  PTEMPPR  CTEREFE  PTEREF   ZVARCPG  PVARCMR  ZVARCPG  PVARCPR
                                     ZVARIPG  PVARIMR
                                     EHYDRER  PHYDRMR  EHYDRER  PHYDRPR  NTEMPER  PSECHMR  NTEMPER  PSECHPR  
                                     CTEREFE  PSECREF
                              OUT__  MMATUUR  PMATUUR
    RIGI_MECA_GE        -1    IN__   XXXXXX   XXXXXX
                              OUT__  XXXXXX   XXXXXX
    RIGI_MECA_HYST      50    IN__   NGEOMER  PGEOMER  CMATERC  PMATERC  MMATUUR  PRIGIEL  CTEREFE  PTEMPER
                              OUT__  MMATUUC  PMATUUC
    RIGI_MECA_RO        -1    IN__   XXXXXX   XXXXXX
                              OUT__  XXXXXX   XXXXXX
    RIGI_MECA_TANG      248   IN__   CCAGNBA  PCAGNBA  CCAORIE  PCAORIE  CCARCRI  PCARCRI  CCOMPOR  PCOMPOR
                                     EEFGEGA  PCONTMR  DDL_MECA PDEPLMR  DDL_MECA PDEPLPR  NGEOMER  PGEOMER
                                     CTEMPSR  PINSTMR  CTEMPSR  PINSTPR  CMATERC  PMATERC  NTEMPER  PTEMPMR
                                     NTEMPER  PTEMPPR  CTEREFE  PTEREF   ZVARCPG  PVARCMR  ZVARCPG  PVARCPR
                                     ZVARIPG  PVARIMR
                                     EHYDRER  PHYDRMR  EHYDRER  PHYDRPR  NTEMPER  PSECHMR  NTEMPER  PSECHPR  
                                     CTEREFE  PSECREF
                              OUT__  MMATUUR  PMATUUR
    SIEF_ELGA_DEPL      154   IN__   CCAGNBA  PCAGNBA  CCAORIE  PCAORIE  DDL_MECA PDEPLAR  NGEOMER  PGEOMER
                                     CMATERC  PMATERC  NTEMPER  PTEMPER  CTEREFE  PTEREF
                              OUT__  EEFGEGA  PCONTRR
                                     EEFGEGC  PCONTRC
    SIEF_ELNO_ELGA      156   IN__   EEFGEGA  PCONTRR
                              OUT__  EEFGENO  PSIEFNOR
                                     EEFGENC  PSIEFNOC
    SIGM_ELNO_DEPL      154   IN__   CCAGNBA  PCAGNBA  CCAORIE  PCAORIE  DDL_MECA PDEPLAR  NGEOMER  PGEOMER
                                     CMATERC  PMATERC  NTEMPER  PTEMPER  CTEREFE  PTEREF
                              OUT__  ECONTNO  PCONTRR
                                     ECONTNC  PCONTRC
    SYME_MDNS_R         222   IN__   MMATUNS  PNOSYM
                              OUT__  MMATUUR  PSYM
    TOU_INI_ELGA        99    IN__   NGEOMER  PGEOMER
                              OUT__  EHYDRER  PHYDR_R  EEFGEGA  PSIEF_R  ZVARIPG  PVARI_R
    VARI_ELNO_ELGA      -1    IN__   XXXXXX   XXXXXX
                              OUT__  XXXXXX   XXXXXX

