%& MODIF TYPELEM  DATE 18/07/2005   AUTEUR VABHHTS J.PELLET 
%            CONFIGURATION MANAGEMENT OF EDF VERSION
% ======================================================================
% COPYRIGHT (C) 1991 - 2002  EDF R&D                  WWW.CODE-ASTER.ORG
% THIS PROGRAM IS FREE SOFTWARE; YOU CAN REDISTRIBUTE IT AND/OR MODIFY
% IT UNDER THE TERMS OF THE GNU GENERAL PUBLIC LICENSE AS PUBLISHED BY
% THE FREE SOFTWARE FOUNDATION; EITHER VERSION 2 OF THE LICENSE, OR
% (AT YOUR OPTION) ANY LATER VERSION.
%
% THIS PROGRAM IS DISTRIBUTED IN THE HOPE THAT IT WILL BE USEFUL, BUT
% WITHOUT ANY WARRANTY; WITHOUT EVEN THE IMPLIED WARRANTY OF
% MERCHANTABILITY OR FITNESS FOR A PARTICULAR PURPOSE. SEE THE GNU
% GENERAL PUBLIC LICENSE FOR MORE DETAILS.
%
% YOU SHOULD HAVE RECEIVED A COPY OF THE GNU GENERAL PUBLIC LICENSE
% ALONG WITH THIS PROGRAM; IF NOT, WRITE TO EDF R&D CODE_ASTER,
%    1 AVENUE DU GENERAL DE GAULLE, 92141 CLAMART CEDEX, FRANCE.
% ======================================================================
GENER_MEAFO2
TYPE_GENE__

ENTETE__ ELEMENT__ MEFOQU4          MAILLE__ QUAD4
   ELREFE__  QU4     GAUSS__  RIGI=FPG4   MASS=FPG4  GANO=FPG4  NOEU_S=NOEU_S
   ELREFE__  SE2     GAUSS__  RIGI=FPG2
ENTETE__ ELEMENT__ MEFOQU8          MAILLE__ QUAD8
   ELREFE__  QU8     GAUSS__  RIGI=FPG9   MASS=FPG9  GANO=FPG4  NOEU_S=NOEU_S
   ELREFE__  SE3     GAUSS__  RIGI=FPG4
ENTETE__ ELEMENT__ MEFOQU9          MAILLE__ QUAD9
   ELREFE__  QU9     GAUSS__  RIGI=FPG9   MASS=FPG9  GANO=FPG4  NOEU_S=NOEU_S
   ELREFE__  SE3     GAUSS__  RIGI=FPG4
ENTETE__ ELEMENT__ MEFOTR3          MAILLE__ TRIA3
   ELREFE__  TR3     GAUSS__  RIGI=FPG1   MASS=FPG3  GANO=FPG3  NOEU_S=NOEU_S
   ELREFE__  SE2     GAUSS__  RIGI=FPG2
ENTETE__ ELEMENT__ MEFOTR6          MAILLE__ TRIA6
   ELREFE__  TR6     GAUSS__  RIGI=FPG3   MASS=FPG6  GANO=FPG3  NOEU_S=NOEU_S
   ELREFE__  SE3     GAUSS__  RIGI=FPG4

MODE_LOCAL__
    CMATERC  = ADRSJEVE ELEM__         (I1       )
    CCAMASS  = CAMASS   ELEM__         (C        ALPHA    )
    CCOMPO2  = COMPOR   ELEM__         (NBVARI   )
    EDCEL_I  = DCEL_I   ELEM__         (NPG_DYN  NCMP_DYN )
    DDL_MECA = DEPL_R   ELNO__ IDEN__  (DX       DY       DZ       )
    EENEDNO  = ENER_R   ELEM__         (TOTALE   )
    EENEDPG  = ENER_R   ELGA__ RIGI    (TOTALE   )
    EENEDNN  = ENER_R   ELNO__ IDEN__  (TOTALE   )
    CEPSINF  = EPSI_F   ELEM__         (EPXX     EPYY     EPZZ     EPXY     EPXZ     EPYZ     )
    CEPSINR  = EPSI_R   ELEM__         (EPXX     EPYY     EPZZ     EPXY     EPXZ     EPYZ     )
    EDEFONO  = EPSI_R   ELNO__ IDEN__  (EPXX     EPYY     EPZZ     EPXY     EPXZ     EPYZ     )
    CFORCEF  = FORC_F   ELEM__         (FX       FY       FZ       )
    EFORCER  = FORC_R   ELGA__ RIGI    (FX       FY       FZ       )
    NGEOMER  = GEOM_R   ELNO__ IDEN__  (X        Y        )
    EGGEOM_R = GEOM_R   ELGA__ RIGI    (X        Y        )
    EGGEOP_R = GEOM_R   ELGA__ RIGI    (X        Y        W)
    ENGEOM_R = GEOM_R   ELNO__ IDEN__  (X        Y        )
    CHARMON  = HARMON   ELEM__         (NH       )
    EHYDRER  = HYDR_R   ELGA__ RIGI    (HYDR     )
    CTEMPSR  = INST_R   ELEM__         (INST     )
    EGINST_R = INST_R   ELGA__ RIGI    (INST     )
    ENINST_R = INST_R   ELNO__ IDEN__  (INST     )
    EGNEUT_F = NEUT_F   ELGA__ RIGI    (X1       X2       X3       X4       X5       X6       )
    ENNEUT_F = NEUT_F   ELNO__ IDEN__  (X1       X2       X3       X4       X5       X6       )
    EGNEUT_R = NEUT_R   ELGA__ RIGI    (X1       X2       X3       X4       X5       X6       )
    ENNEUT_R = NEUT_R   ELNO__ IDEN__  (X1       X2       X3       X4       X5       X6       )
    CPESANR  = PESA_R   ELEM__         (G        AG       BG       CG       )
    CROTATR  = ROTA_R   ELEM__         (OME      AR       BR       CR       X        Y
                                        Z        )
    ECONTPG  = SIEF_R   ELGA__ RIGI    (SIXX     SIYY     SIZZ     SIXY     SIXZ     SIYZ     )
    ECONTNO  = SIEF_R   ELNO__ IDEN__  (SIXX     SIYY     SIZZ     SIXY     SIXZ     SIYZ     )
    CTEREFE  = TEMP_R   ELEM__         (TEMP     )
    NTEMPER  = TEMP_R   ELNO__ IDEN__  (TEMP     )
    NSECHER  = TEMP_R   ELNO__ IDEN__  (TEMP     )
    ZVARI1   = VARI_R   ELEM__         (VARI     )

VECTEUR__
    MVECTUR = VDEP_R DDL_MECA

MATRICE__
    MMATUUR = MDEP_R DDL_MECA DDL_MECA

OPTION__
    CHAR_MECA_EPSI_F    284   IN__   CCAMASS  PCAMASS  CEPSINF  PEPSINF  NGEOMER  PGEOMER  CHARMON  PHARMON
                                     CMATERC  PMATERC  NTEMPER  PTEMPER  CTEMPSR  PTEMPSR
                              OUT__  MVECTUR  PVECTUR
    CHAR_MECA_EPSI_R    284   IN__   CCAMASS  PCAMASS  CEPSINR  PEPSINR  NGEOMER  PGEOMER  CHARMON  PHARMON
                                     CMATERC  PMATERC  NTEMPER  PTEMPER
                              OUT__  MVECTUR  PVECTUR
    CHAR_MECA_FF2D2D    200   IN__   CFORCEF  PFF2D2D  NGEOMER  PGEOMER  CTEMPSR  PTEMPSR
                              OUT__  MVECTUR  PVECTUR
    CHAR_MECA_FR2D2D    199   IN__   EFORCER  PFR2D2D  NGEOMER  PGEOMER
                              OUT__  MVECTUR  PVECTUR
    CHAR_MECA_PESA_R    196   IN__   NGEOMER  PGEOMER  CMATERC  PMATERC  CPESANR  PPESANR
                              OUT__  MVECTUR  PVECTUR
    CHAR_MECA_ROTA_R    197   IN__   NGEOMER  PGEOMER  CMATERC  PMATERC  CROTATR  PROTATR
                              OUT__  MVECTUR  PVECTUR
    CHAR_MECA_TEMP_R    198   IN__   CCAMASS  PCAMASS  NGEOMER  PGEOMER  CHARMON  PHARMON  EHYDRER  PHYDRER
                                     CMATERC  PMATERC  NSECHER  PSECHER  NTEMPER  PTEMPER  CTEREFE  PTEREF
                              OUT__  MVECTUR  PVECTUR
    COOR_ELGA           479   IN__   NGEOMER  PGEOMER
                              OUT__  EGGEOP_R PCOORPG
    ENEL_ELGA           575   IN__   CCAMASS  PCAMASS  ECONTPG  PCONTRR  NGEOMER  PGEOMER  CMATERC  PMATERC
                                     NTEMPER  PTEMPER  CTEMPSR  PTEMPSR
                              OUT__  EENEDPG  PENERDR
    ENEL_ELNO_ELGA      575   IN__   CCAMASS  PCAMASS  ECONTPG  PCONTRR  NGEOMER  PGEOMER  CMATERC  PMATERC
                                     NTEMPER  PTEMPER  CTEMPSR  PTEMPSR
                              OUT__  EENEDNN  PENERDR
    EPOT_ELEM_DEPL      286   IN__   CCAMASS  PCAMASS  DDL_MECA PDEPLAR  NGEOMER  PGEOMER  CHARMON  PHARMON
                                     CMATERC  PMATERC  NTEMPER  PTEMPER  CTEREFE  PTEREF
                              OUT__  EENEDNO  PENERDR
    EPSI_ELGA_DEPL      -1    IN__   XXXXXX   XXXXXX
                              OUT__  XXXXXX   XXXXXX
    EPSI_ELNO_DEPL      114   IN__   DDL_MECA PDEPLAR  NGEOMER  PGEOMER  CHARMON  PHARMON
                              OUT__  EDEFONO  PDEFORR
    ETOT_ELEM           575   IN__   ECONTPG  PCONTMR  ECONTPG  PCONTPR  DDL_MECA PDEPLM   DDL_MECA PDEPLR
                                     NGEOMER  PGEOMER  CHARMON  PHARMON
                              OUT__  EENEDNO  PENERDR
    ETOT_ELGA           575   IN__   ECONTPG  PCONTMR  ECONTPG  PCONTPR  DDL_MECA PDEPLM   DDL_MECA PDEPLR
                                     NGEOMER  PGEOMER  CHARMON  PHARMON
                              OUT__  EENEDPG  PENERDR
    ETOT_ELNO_ELGA      575   IN__   ECONTPG  PCONTMR  ECONTPG  PCONTPR  DDL_MECA PDEPLM   DDL_MECA PDEPLR
                                     NGEOMER  PGEOMER  CHARMON  PHARMON
                              OUT__  EENEDNN  PENERDR
    FORC_NODA           117   IN__   ECONTPG  PCONTMR  NGEOMER  PGEOMER  CHARMON  PHARMON
                              OUT__  MVECTUR  PVECTUR
    MASS_INER           -1    IN__   XXXXXX   XXXXXX
                              OUT__  XXXXXX   XXXXXX
    MASS_MECA           191   IN__   NGEOMER  PGEOMER  CMATERC  PMATERC
                              OUT__  MMATUUR  PMATUUR
    MASS_MECA_DIAG      -1    IN__   XXXXXX   XXXXXX
                              OUT__  XXXXXX   XXXXXX
    M_GAMMA             191   IN__   DDL_MECA PDEPLAR  NGEOMER  PGEOMER  CMATERC  PMATERC
                              OUT__  MVECTUR  PVECTUR
    NSPG_NBVA           496   IN__   CCOMPO2  PCOMPOR
                              OUT__  EDCEL_I  PDCEL_I
    RIGI_MECA           190   IN__   CCAMASS  PCAMASS  NGEOMER  PGEOMER  CHARMON  PHARMON  CMATERC  PMATERC
                                     NTEMPER  PTEMPER
                              OUT__  MMATUUR  PMATUUR
    RIGI_MECA_GE        112   IN__   ECONTPG  PCONTRR  NGEOMER  PGEOMER  CHARMON  PHARMON
                              OUT__  MMATUUR  PMATUUR
    RIGI_MECA_RO        111   IN__   NGEOMER  PGEOMER  CMATERC  PMATERC  CROTATR  PROTATR  NTEMPER  PTEMPER
                              OUT__  MMATUUR  PMATUUR
    RIGI_MECA_SENSI     190   IN__   CCAMASS  PCAMASS  NGEOMER  PGEOMER  EHYDRER  PHYDRER  CMATERC  PMATERC
                                     CMATERC  PMATSEN  NTEMPER  PSECHER  NTEMPER  PTEMPER  DDL_MECA PVAPRIN
                              OUT__  MVECTUR  PVECTUR
    SIEF_ELGA_DEPL      115   IN__   CCAMASS  PCAMASS  DDL_MECA PDEPLAR  NGEOMER  PGEOMER  CHARMON  PHARMON
                                     CMATERC  PMATERC  NTEMPER  PTEMPER  CTEREFE  PTEREF
                              OUT__  ECONTPG  PCONTRR
    SIEF_ELGA_SENS      -1    IN__   XXXXXX   XXXXXX
                              OUT__  XXXXXX   XXXXXX
    SIGM_ELNO_DEPL      116   IN__   CCAMASS  PCAMASS  DDL_MECA PDEPLAR  NGEOMER  PGEOMER  CHARMON  PHARMON
                                     CMATERC  PMATERC  NTEMPER  PTEMPER  CTEREFE  PTEREF
                              OUT__  ECONTNO  PCONTRR
    SIGM_ELNO_SENS      -1    IN__   XXXXXX   XXXXXX
                              OUT__  XXXXXX   XXXXXX
    TOU_INI_ELGA        99    IN__   NGEOMER  PGEOMER
                              OUT__  EGGEOM_R PGEOM_R  EHYDRER  PHYDR_R  EGINST_R PINST_R  EGNEUT_F PNEUT_F
                                     EGNEUT_R PNEUT_R  ECONTPG  PSIEF_R
    TOU_INI_ELNO        99    IN__   NGEOMER  PGEOMER
                              OUT__  ENGEOM_R PGEOM_R  ENINST_R PINST_R  ENNEUT_F PNEUT_F  ENNEUT_R PNEUT_R

