# ======================================================================
# COPYRIGHT (C) 1991 - 2016  EDF R&D                  WWW.CODE-ASTER.ORG
# THIS PROGRAM IS FREE SOFTWARE; YOU CAN REDISTRIBUTE IT AND/OR MODIFY
# IT UNDER THE TERMS OF THE GNU GENERAL PUBLIC LICENSE AS PUBLISHED BY
# THE FREE SOFTWARE FOUNDATION; EITHER VERSION 2 OF THE LICENSE, OR
# (AT YOUR OPTION) ANY LATER VERSION.
#
# THIS PROGRAM IS DISTRIBUTED IN THE HOPE THAT IT WILL BE USEFUL, BUT
# WITHOUT ANY WARRANTY; WITHOUT EVEN THE IMPLIED WARRANTY OF
# MERCHANTABILITY OR FITNESS FOR A PARTICULAR PURPOSE. SEE THE GNU
# GENERAL PUBLIC LICENSE FOR MORE DETAILS.
#
# YOU SHOULD HAVE RECEIVED A COPY OF THE GNU GENERAL PUBLIC LICENSE
# ALONG WITH THIS PROGRAM; IF NOT, WRITE TO EDF R&D CODE_ASTER,
#    1 AVENUE DU GENERAL DE GAULLE, 92141 CLAMART CEDEX, FRANCE.
# ======================================================================
# person_in_charge: j-pierre.lefebvre at edf.fr

DEFI_MATERIAU=OPER(nom="DEFI_MATERIAU",op=5,sd_prod=mater_sdaster,
                   fr=tr("Définition des paramètres décrivant le comportement d un matériau"),
                   reentrant='f',
            UIinfo={"groupes":("Modélisation",)},
       regles=(EXCLUS('ELAS','ELAS_FO','ELAS_FLUI','ELAS_ISTR','ELAS_ISTR_FO','ELAS_ORTH',
                      'ELAS_ORTH_FO','ELAS_COQUE','ELAS_COQUE_FO',
                      'ELAS_HYPER','ELAS_2NDG','ELAS_GLRC','ELAS_DHRC'),
               EXCLUS('THER','THER_FO','THER_ORTH','THER_NL','THER_HYDR','THER_COQUE','THER_COQUE_FO'),
               EXCLUS('ECRO_LINE','ECRO_LINE_FO','ECRO_PUIS','ECRO_COOK','ECRO_COOK_FO',),
               EXCLUS('ENDO_HETEROGENE'),
               EXCLUS('TAHERI','TAHERI_FO'),
               EXCLUS('ENDO_SCALAIRE','ENDO_SCALAIRE_FO'),
               EXCLUS('ENDO_FISS_EXP','ENDO_FISS_EXP_FO'),
               EXCLUS('ROUSSELIER','ROUSSELIER_FO'),
               EXCLUS('VISC_SINH','VISC_SINH_FO'),
               PRESENT_PRESENT('ROUSSELIER','TRACTION'),
               PRESENT_PRESENT('ROUSSELIER_FO','TRACTION'),
               EXCLUS('CIN1_CHAB','CIN1_CHAB_FO'),
               EXCLUS('CIN2_CHAB','CIN2_CHAB_FO'),
               EXCLUS('VISCOCHAB','VISCOCHAB_FO'),
               EXCLUS('LEMAITRE','LEMAITRE_FO','VISC_IRRA_LOG',
               'LEMA_SEUIL','LEMA_SEUIL_FO','LEMAITRE_IRRA',),
               EXCLUS('META_LEMA_ANI','META_LEMA_ANI_FO'),
               EXCLUS('VENDOCHAB','VENDOCHAB_FO'),
               EXCLUS('VISC_ENDO','VISC_ENDO_FO'),
               PRESENT_PRESENT('BPEL_ACIER','ELAS'),
               PRESENT_PRESENT('ETCC_ACIER','ELAS'),
               EXCLUS('ETCC_ACIER','BPEL_ACIER'),
               EXCLUS('ETCC_BETON','BPEL_BETON'),

               EXCLUS('RCCM','RCCM_FO'),
               EXCLUS('WEIBULL','WEIBULL_FO'),
               PRESENT_PRESENT('LAIGLE','ELAS'),
               PRESENT_PRESENT('LETK','ELAS'),
               PRESENT_PRESENT('LKR','ELAS'),
               PRESENT_PRESENT('DRUCK_PRAGER','ELAS'),
               PRESENT_PRESENT('VISC_DRUC_PRAG','ELAS'),
               PRESENT_PRESENT('ELAS_GONF','ELAS'),
               PRESENT_PRESENT('HOEK_BROWN','ELAS'),
               EXCLUS('MAZARS','MAZARS_FO'),
               PRESENT_PRESENT('JOINT_BA','ELAS'),
               PRESENT_PRESENT('CABLE','ELAS'),
               PRESENT_PRESENT('MOHR_COULOMB','ELAS'),
               PRESENT_PRESENT('ELAS_GLRC','GLRC_DM'),
               ),
           MATER      =SIMP(statut='f',typ=mater_sdaster),
#
# comportement élastique
#
           ELAS            =FACT(statut='f',
             E               =SIMP(statut='o',typ='R',val_min=0.E+0),
             NU              =SIMP(statut='o',typ='R',val_min=-1.E+0,val_max=0.5E+0),
             RHO             =SIMP(statut='f',typ='R'),
             ALPHA           =SIMP(statut='f',typ='R'),
             AMOR_ALPHA      =SIMP(statut='f',typ='R'),
             AMOR_BETA       =SIMP(statut='f',typ='R'),
             AMOR_HYST       =SIMP(statut='f',typ='R'),
             LONG_CARA       =SIMP(statut='f',typ='R',defaut= 0.E+0 ),
             COEF_AMOR       =SIMP(statut='f',typ='R',defaut= 1.E+0 ),
           ),
           ELAS_FO         =FACT(statut='f',
             regles=(PRESENT_PRESENT('ALPHA','TEMP_DEF_ALPHA'),),
             E               =SIMP(statut='o',typ=(fonction_sdaster,nappe_sdaster,formule)),
             NU              =SIMP(statut='o',typ=(fonction_sdaster,nappe_sdaster,formule)),
             RHO             =SIMP(statut='f',typ=(fonction_sdaster,nappe_sdaster,formule)),
             TEMP_DEF_ALPHA  =SIMP(statut='f',typ='R'),
             PRECISION       =SIMP(statut='f',typ='R',defaut= 1.),
             ALPHA           =SIMP(statut='f',typ=(fonction_sdaster,formule)),
             AMOR_ALPHA      =SIMP(statut='f',typ=(fonction_sdaster,nappe_sdaster,formule)),
             AMOR_BETA       =SIMP(statut='f',typ=(fonction_sdaster,nappe_sdaster,formule)),
             AMOR_HYST       =SIMP(statut='f',typ=(fonction_sdaster,nappe_sdaster,formule)),
             K_DESSIC        =SIMP(statut='f',typ='R',defaut= 0.E+0 ),
             B_ENDOGE        =SIMP(statut='f',typ='R',defaut= 0.E+0 ),
             FONC_DESORP     =SIMP(statut='f',typ=(fonction_sdaster,nappe_sdaster,formule)),
             LONG_CARA       =SIMP(statut='f',typ='R',defaut= 0.E+0 ),
             COEF_AMOR       =SIMP(statut='f',typ='R',defaut= 1.E+0 ),
           ),
           ELAS_FLUI       =FACT(statut='f',
             E               =SIMP(statut='o',typ='R'),
             NU              =SIMP(statut='o',typ='R'),
             RHO             =SIMP(statut='o',typ='R'),
             PROF_RHO_F_INT  =SIMP(statut='o',typ=(fonction_sdaster,nappe_sdaster,formule)),
             PROF_RHO_F_EXT  =SIMP(statut='o',typ=(fonction_sdaster,nappe_sdaster,formule)),
             COEF_MASS_AJOU  =SIMP(statut='o',typ=(fonction_sdaster,nappe_sdaster,formule)),
           ),
           ELAS_ISTR       =FACT(statut='f',
             E_L             =SIMP(statut='o',typ='R'),
             E_N             =SIMP(statut='o',typ='R'),
             NU_LT           =SIMP(statut='o',typ='R'),
             NU_LN           =SIMP(statut='o',typ='R'),
             G_LN            =SIMP(statut='o',typ='R'),
             RHO             =SIMP(statut='f',typ='R'),
             ALPHA_L         =SIMP(statut='f',typ='R',defaut= 0.E+0 ),
             ALPHA_N         =SIMP(statut='f',typ='R',defaut= 0.E+0 ),
           ),
           ELAS_ISTR_FO    =FACT(statut='f',
             regles=(
                      PRESENT_PRESENT('ALPHA_L','TEMP_DEF_ALPHA'),
                      PRESENT_PRESENT('ALPHA_N','TEMP_DEF_ALPHA'),
                    ),
             E_L             =SIMP(statut='o',typ=(fonction_sdaster,nappe_sdaster,formule)),
             E_N             =SIMP(statut='o',typ=(fonction_sdaster,nappe_sdaster,formule)),
             NU_LT           =SIMP(statut='o',typ=(fonction_sdaster,nappe_sdaster,formule)),
             NU_LN           =SIMP(statut='o',typ=(fonction_sdaster,nappe_sdaster,formule)),
             G_LN            =SIMP(statut='o',typ=(fonction_sdaster,nappe_sdaster,formule)),
             RHO             =SIMP(statut='f',typ=(fonction_sdaster,nappe_sdaster,formule)),
             TEMP_DEF_ALPHA  =SIMP(statut='f',typ='R'),
             PRECISION       =SIMP(statut='f',typ='R',defaut= 1.),
             ALPHA_L         =SIMP(statut='f',typ=(fonction_sdaster,formule)),
             ALPHA_N         =SIMP(statut='f',typ=(fonction_sdaster,formule)),
           ),
           ELAS_ORTH       =FACT(statut='f',
             E_L             =SIMP(statut='o',typ='R'),
             E_T             =SIMP(statut='o',typ='R'),
             E_N             =SIMP(statut='f',typ='R'),
             NU_LT           =SIMP(statut='o',typ='R'),
             NU_LN           =SIMP(statut='f',typ='R'),
             NU_TN           =SIMP(statut='f',typ='R'),
             G_LT            =SIMP(statut='o',typ='R'),
             G_LN            =SIMP(statut='f',typ='R'),
             G_TN            =SIMP(statut='f',typ='R'),
             RHO             =SIMP(statut='f',typ='R'),
             ALPHA_L         =SIMP(statut='f',typ='R',defaut= 0.E+0 ),
             ALPHA_T         =SIMP(statut='f',typ='R',defaut= 0.E+0 ),
             ALPHA_N         =SIMP(statut='f',typ='R',defaut= 0.E+0 ),
             XT              =SIMP(statut='f',typ='R',defaut= 1. ),
             XC              =SIMP(statut='f',typ='R',defaut= 1. ),
             YT              =SIMP(statut='f',typ='R',defaut= 1. ),
             YC              =SIMP(statut='f',typ='R',defaut= 1. ),
             S_LT            =SIMP(statut='f',typ='R',defaut= 1. ),
             AMOR_ALPHA      =SIMP(statut='f',typ='R'),
             AMOR_BETA       =SIMP(statut='f',typ='R'),
             AMOR_HYST       =SIMP(statut='f',typ='R'),
           ),
           ELAS_ORTH_FO    =FACT(statut='f',
             regles=(
                      PRESENT_PRESENT('ALPHA_L','TEMP_DEF_ALPHA'),
                      PRESENT_PRESENT('ALPHA_N','TEMP_DEF_ALPHA'),
                      PRESENT_PRESENT('ALPHA_T','TEMP_DEF_ALPHA'),
                    ),
             E_L             =SIMP(statut='o',typ=(fonction_sdaster,nappe_sdaster,formule)),
             E_T             =SIMP(statut='o',typ=(fonction_sdaster,nappe_sdaster,formule)),
             E_N             =SIMP(statut='o',typ=(fonction_sdaster,nappe_sdaster,formule)),
             NU_LT           =SIMP(statut='o',typ=(fonction_sdaster,nappe_sdaster,formule)),
             NU_LN           =SIMP(statut='o',typ=(fonction_sdaster,nappe_sdaster,formule)),
             NU_TN           =SIMP(statut='o',typ=(fonction_sdaster,nappe_sdaster,formule)),
             G_LT            =SIMP(statut='o',typ=(fonction_sdaster,nappe_sdaster,formule)),
             G_LN            =SIMP(statut='o',typ=(fonction_sdaster,nappe_sdaster,formule)),
             G_TN            =SIMP(statut='o',typ=(fonction_sdaster,nappe_sdaster,formule)),
             RHO             =SIMP(statut='f',typ=(fonction_sdaster,nappe_sdaster,formule)),
             TEMP_DEF_ALPHA  =SIMP(statut='f',typ='R'),
             PRECISION       =SIMP(statut='f',typ='R',defaut= 1. ),
             ALPHA_L         =SIMP(statut='f',typ=(fonction_sdaster,formule)),
             ALPHA_T         =SIMP(statut='f',typ=(fonction_sdaster,formule)),
             ALPHA_N         =SIMP(statut='f',typ=(fonction_sdaster,formule)),
             AMOR_ALPHA      =SIMP(statut='f',typ=(fonction_sdaster,nappe_sdaster,formule)),
             AMOR_BETA       =SIMP(statut='f',typ=(fonction_sdaster,nappe_sdaster,formule)),
             AMOR_HYST       =SIMP(statut='f',typ=(fonction_sdaster,nappe_sdaster,formule)),
           ),
           ELAS_HYPER      =FACT(statut='f',
                                 regles=(UN_PARMI('K','NU'),),
             C10             =SIMP(statut='o',typ='R',
                                   fr=tr("Si C10 est le seul coefficient fourni, alors le matériau est Néo-Hookéen.")),
             C01             =SIMP(statut='f',typ='R',defaut=0.0,
                                   fr=tr("Si l'on fournit C01 en plus de C10, on obtient un matériau de type Mooney-Rivlin.")),
             C20             =SIMP(statut='f',typ='R',defaut=0.0,
                                   fr=tr("Si l'on fournit C20 en plus de C10 et C01, on obtient un matériau de type Signorini.")),
             K               =SIMP(statut='f',typ='R',fr=tr("Module de compressibilité.")),
             NU              =SIMP(statut='f',typ='R',val_min=-1.E+0,val_max=0.5E+0,fr=tr("Coefficient de Poisson.")),
             RHO             =SIMP(statut='f',typ='R',defaut=0.0,fr=tr("Masse volumique.")),
           ),
           ELAS_COQUE      =FACT(statut='f',
             regles=(EXCLUS('MEMB_L','M_LLLL',),
                     PRESENT_PRESENT('MEMB_L','MEMB_LT', 'MEMB_T','MEMB_G_LT','FLEX_L','FLEX_LT',
                                     'FLEX_T','FLEX_G_LT','CISA_L','CISA_T',),
                     PRESENT_PRESENT('M_LLLL','M_LLTT','M_LLLT','M_TTTT','M_TTLT','M_LTLT','F_LLLL',
                                     'F_LLTT','F_LLLT','F_TTTT','F_TTLT','F_LTLT','MF_LLLL',
                                     'MF_LLTT','MF_LLLT','MF_TTTT','MF_TTLT','MF_LTLT','MC_LLLZ',
                                     'MC_LLTZ','MC_TTLZ','MC_TTTZ','MC_LTLZ','MC_LTTZ','FC_LLLZ',
                                     'FC_LLTZ','FC_TTLZ','FC_TTTZ','FC_LTLZ','FC_LTTZ','C_LZLZ',
                                     'C_LZTZ','C_TZTZ'),),
             MEMB_L          =SIMP(statut='f',typ='R'),
             MEMB_LT         =SIMP(statut='f',typ='R'),
             MEMB_T          =SIMP(statut='f',typ='R'),
             MEMB_G_LT       =SIMP(statut='f',typ='R'),
             FLEX_L          =SIMP(statut='f',typ='R'),
             FLEX_LT         =SIMP(statut='f',typ='R'),
             FLEX_T          =SIMP(statut='f',typ='R'),
             FLEX_G_LT       =SIMP(statut='f',typ='R'),
             CISA_L          =SIMP(statut='f',typ='R'),
             CISA_T          =SIMP(statut='f',typ='R'),
             M_LLLL          =SIMP(statut='f',typ='R'),
             M_LLTT          =SIMP(statut='f',typ='R'),
             M_LLLT          =SIMP(statut='f',typ='R'),
             M_TTTT          =SIMP(statut='f',typ='R'),
             M_TTLT          =SIMP(statut='f',typ='R'),
             M_LTLT          =SIMP(statut='f',typ='R'),
             F_LLLL          =SIMP(statut='f',typ='R'),
             F_LLTT          =SIMP(statut='f',typ='R'),
             F_LLLT          =SIMP(statut='f',typ='R'),
             F_TTTT          =SIMP(statut='f',typ='R'),
             F_TTLT          =SIMP(statut='f',typ='R'),
             F_LTLT          =SIMP(statut='f',typ='R'),
             MF_LLLL         =SIMP(statut='f',typ='R'),
             MF_LLTT         =SIMP(statut='f',typ='R'),
             MF_LLLT         =SIMP(statut='f',typ='R'),
             MF_TTTT         =SIMP(statut='f',typ='R'),
             MF_TTLT         =SIMP(statut='f',typ='R'),
             MF_LTLT         =SIMP(statut='f',typ='R'),
             MC_LLLZ         =SIMP(statut='f',typ='R'),
             MC_LLTZ         =SIMP(statut='f',typ='R'),
             MC_TTLZ         =SIMP(statut='f',typ='R'),
             MC_TTTZ         =SIMP(statut='f',typ='R'),
             MC_LTLZ         =SIMP(statut='f',typ='R'),
             MC_LTTZ         =SIMP(statut='f',typ='R'),
             FC_LLLZ         =SIMP(statut='f',typ='R'),
             FC_LLTZ         =SIMP(statut='f',typ='R'),
             FC_TTLZ         =SIMP(statut='f',typ='R'),
             FC_TTTZ         =SIMP(statut='f',typ='R'),
             FC_LTLZ         =SIMP(statut='f',typ='R'),
             FC_LTTZ         =SIMP(statut='f',typ='R'),
             C_LZLZ          =SIMP(statut='f',typ='R'),
             C_LZTZ          =SIMP(statut='f',typ='R'),
             C_TZTZ          =SIMP(statut='f',typ='R'),
             RHO             =SIMP(statut='f',typ='R'),
             ALPHA           =SIMP(statut='f',typ='R'),
             ORDRE_PARAM     =SIMP(statut='c',typ='TXM', max='**', defaut=('MEMB_L','MEMB_LT','MEMB_T',
                             'MEMB_G_LT','FLEX_L','FLEX_LT','FLEX_T','FLEX_G_LT','CISA_L','CISA_T','M_LLLL',
                             'M_LLTT','M_LLLT','M_TTTT','M_TTLT','M_LTLT','F_LLLL','F_LLTT','F_LLLT','F_TTTT',
                             'F_TTLT','F_LTLT','MF_LLLL','MF_LLTT','MF_LLLT','MF_TTTT','MF_TTLT','MF_LTLT',
                             'MC_LLLZ','MC_LLTZ','MC_TTLZ','MC_TTTZ','MC_LTLZ','MC_LTTZ','FC_LLLZ','FC_LLTZ',
                             'FC_TTLZ','FC_TTTZ','FC_LTLZ','FC_LTTZ','C_LZLZ','C_LZTZ','C_TZTZ','RHO','ALPHA', )),
           ),
           ELAS_COQUE_FO   =FACT(statut='f',
             regles=(EXCLUS('MEMB_L','M_LLLL',),
                     PRESENT_PRESENT('MEMB_L','MEMB_LT','MEMB_T','MEMB_G_LT','FLEX_L','FLEX_LT',
                                     'FLEX_T','FLEX_G_LT','CISA_L','CISA_T',),
                     PRESENT_PRESENT('M_LLLL','M_LLTT','M_LLLT','M_TTTT','M_TTLT','M_LTLT','F_LLLL',
                                     'F_LLTT','F_LLLT','F_TTTT','F_TTLT','F_LTLT','MF_LLLL','MF_LLTT',
                                     'MF_LLLT','MF_TTTT','MF_TTLT','MF_LTLT','MC_LLLZ','MC_LLTZ',
                                     'MC_TTLZ','MC_TTTZ','MC_LTLZ','MC_LTTZ','FC_LLLZ','FC_LLTZ',
                                     'FC_TTLZ','FC_TTTZ','FC_LTLZ','FC_LTTZ','C_LZLZ','C_LZTZ','C_TZTZ'),),
             MEMB_L          =SIMP(statut='f',typ=(fonction_sdaster,nappe_sdaster,formule)),
             MEMB_LT         =SIMP(statut='f',typ=(fonction_sdaster,nappe_sdaster,formule)),
             MEMB_T          =SIMP(statut='f',typ=(fonction_sdaster,nappe_sdaster,formule)),
             MEMB_G_LT       =SIMP(statut='f',typ=(fonction_sdaster,nappe_sdaster,formule)),
             FLEX_L          =SIMP(statut='f',typ=(fonction_sdaster,nappe_sdaster,formule)),
             FLEX_LT         =SIMP(statut='f',typ=(fonction_sdaster,nappe_sdaster,formule)),
             FLEX_T          =SIMP(statut='f',typ=(fonction_sdaster,nappe_sdaster,formule)),
             FLEX_G_LT       =SIMP(statut='f',typ=(fonction_sdaster,nappe_sdaster,formule)),
             CISA_L          =SIMP(statut='f',typ=(fonction_sdaster,nappe_sdaster,formule)),
             CISA_T          =SIMP(statut='f',typ=(fonction_sdaster,nappe_sdaster,formule)),
             M_LLLL          =SIMP(statut='f',typ=(fonction_sdaster,nappe_sdaster,formule)),
             M_LLTT          =SIMP(statut='f',typ=(fonction_sdaster,nappe_sdaster,formule)),
             M_LLLT          =SIMP(statut='f',typ=(fonction_sdaster,nappe_sdaster,formule)),
             M_TTTT          =SIMP(statut='f',typ=(fonction_sdaster,nappe_sdaster,formule)),
             M_TTLT          =SIMP(statut='f',typ=(fonction_sdaster,nappe_sdaster,formule)),
             M_LTLT          =SIMP(statut='f',typ=(fonction_sdaster,nappe_sdaster,formule)),
             F_LLLL          =SIMP(statut='f',typ=(fonction_sdaster,nappe_sdaster,formule)),
             F_LLTT          =SIMP(statut='f',typ=(fonction_sdaster,nappe_sdaster,formule)),
             F_LLLT          =SIMP(statut='f',typ=(fonction_sdaster,nappe_sdaster,formule)),
             F_TTTT          =SIMP(statut='f',typ=(fonction_sdaster,nappe_sdaster,formule)),
             F_TTLT          =SIMP(statut='f',typ=(fonction_sdaster,nappe_sdaster,formule)),
             F_LTLT          =SIMP(statut='f',typ=(fonction_sdaster,nappe_sdaster,formule)),
             MF_LLLL         =SIMP(statut='f',typ=(fonction_sdaster,nappe_sdaster,formule)),
             MF_LLTT         =SIMP(statut='f',typ=(fonction_sdaster,nappe_sdaster,formule)),
             MF_LLLT         =SIMP(statut='f',typ=(fonction_sdaster,nappe_sdaster,formule)),
             MF_TTTT         =SIMP(statut='f',typ=(fonction_sdaster,nappe_sdaster,formule)),
             MF_TTLT         =SIMP(statut='f',typ=(fonction_sdaster,nappe_sdaster,formule)),
             MF_LTLT         =SIMP(statut='f',typ=(fonction_sdaster,nappe_sdaster,formule)),
             MC_LLLZ         =SIMP(statut='f',typ=(fonction_sdaster,nappe_sdaster,formule)),
             MC_LLTZ         =SIMP(statut='f',typ=(fonction_sdaster,nappe_sdaster,formule)),
             MC_TTLZ         =SIMP(statut='f',typ=(fonction_sdaster,nappe_sdaster,formule)),
             MC_TTTZ         =SIMP(statut='f',typ=(fonction_sdaster,nappe_sdaster,formule)),
             MC_LTLZ         =SIMP(statut='f',typ=(fonction_sdaster,nappe_sdaster,formule)),
             MC_LTTZ         =SIMP(statut='f',typ=(fonction_sdaster,nappe_sdaster,formule)),
             FC_LLLZ         =SIMP(statut='f',typ=(fonction_sdaster,nappe_sdaster,formule)),
             FC_LLTZ         =SIMP(statut='f',typ=(fonction_sdaster,nappe_sdaster,formule)),
             FC_TTLZ         =SIMP(statut='f',typ=(fonction_sdaster,nappe_sdaster,formule)),
             FC_TTTZ         =SIMP(statut='f',typ=(fonction_sdaster,nappe_sdaster,formule)),
             FC_LTLZ         =SIMP(statut='f',typ=(fonction_sdaster,nappe_sdaster,formule)),
             FC_LTTZ         =SIMP(statut='f',typ=(fonction_sdaster,nappe_sdaster,formule)),
             C_LZLZ          =SIMP(statut='f',typ=(fonction_sdaster,nappe_sdaster,formule)),
             C_LZTZ          =SIMP(statut='f',typ=(fonction_sdaster,nappe_sdaster,formule)),
             C_TZTZ          =SIMP(statut='f',typ=(fonction_sdaster,nappe_sdaster,formule)),
             RHO             =SIMP(statut='f',typ=(fonction_sdaster,nappe_sdaster,formule)),
             ALPHA           =SIMP(statut='f',typ=(fonction_sdaster,formule)),
             ORDRE_PARAM     =SIMP(statut='c',typ='TXM', max='**', defaut=('MEMB_L','MEMB_LT','MEMB_T',
                             'MEMB_G_LT','FLEX_L','FLEX_LT','FLEX_T','FLEX_G_LT','CISA_L','CISA_T','M_LLLL',
                             'M_LLTT','M_LLLT','M_TTTT','M_TTLT','M_LTLT','F_LLLL','F_LLTT','F_LLLT','F_TTTT',
                             'F_TTLT','F_LTLT','MF_LLLL','MF_LLTT','MF_LLLT','MF_TTTT','MF_TTLT','MF_LTLT',
                             'MC_LLLZ','MC_LLTZ','MC_TTLZ','MC_TTTZ','MC_LTLZ','MC_LTTZ','FC_LLLZ','FC_LLTZ',
                             'FC_TTLZ','FC_TTTZ','FC_LTLZ','FC_LTTZ','C_LZLZ','C_LZTZ','C_TZTZ','RHO','ALPHA', )),
           ),
           ELAS_MEMBRANE     =FACT(statut='f',
             M_LLLL          =SIMP(statut='o',typ='R'),
             M_LLTT          =SIMP(statut='o',typ='R'),
             M_LLLT          =SIMP(statut='o',typ='R'),
             M_TTTT          =SIMP(statut='o',typ='R'),
             M_TTLT          =SIMP(statut='o',typ='R'),
             M_LTLT          =SIMP(statut='o',typ='R'),
             RHO             =SIMP(statut='f',typ='R'),
             ALPHA           =SIMP(statut='f',typ='R'),
           ),
           ELAS_2NDG        =FACT(statut='f',
             A1              =SIMP(statut='o',typ='R'),
             A2              =SIMP(statut='f',typ='R'),
             A3              =SIMP(statut='f',typ='R'),
             A4              =SIMP(statut='f',typ='R'),
             A5              =SIMP(statut='f',typ='R'),
           ),
           ELAS_GLRC        =FACT(statut='f',
             regles=(PRESENT_PRESENT('BT1','BT2'),),
             E_M             =SIMP(statut='o',typ='R',val_min=0.E+0),
             NU_M            =SIMP(statut='o',typ='R',val_min=0.E+0,val_max=0.5+0),
             E_F             =SIMP(statut='f',typ='R',val_min=0.E+0),
             NU_F            =SIMP(statut='f',typ='R',val_min=0.E+0,val_max=0.5+0),
             BT1             =SIMP(statut='f',typ='R',val_min=0.E+0),
             BT2             =SIMP(statut='f',typ='R',val_min=0.E+0,val_max=0.5+0),
             RHO             =SIMP(statut='f',typ='R',val_min=0.E+0),
             ALPHA           =SIMP(statut='f',typ='R'),
             AMOR_ALPHA      =SIMP(statut='f',typ='R'),
             AMOR_BETA       =SIMP(statut='f',typ='R'),
             AMOR_HYST       =SIMP(statut='f',typ='R'),
           ),
           ELAS_GLRC_FO     =FACT(statut='f',
             regles=(PRESENT_PRESENT('ALPHA','TEMP_DEF_ALPHA'),
                     PRESENT_PRESENT('BT1','BT2'),),
             E_M             =SIMP(statut='o',typ=(fonction_sdaster,nappe_sdaster,formule)),
             NU_M            =SIMP(statut='o',typ=(fonction_sdaster,nappe_sdaster,formule)),
             E_F             =SIMP(statut='f',typ=(fonction_sdaster,nappe_sdaster,formule)),
             NU_F            =SIMP(statut='f',typ=(fonction_sdaster,nappe_sdaster,formule)),
             BT1             =SIMP(statut='f',typ=(fonction_sdaster,nappe_sdaster,formule)),
             BT2             =SIMP(statut='f',typ=(fonction_sdaster,nappe_sdaster,formule)),
             RHO             =SIMP(statut='f',typ=(fonction_sdaster,nappe_sdaster,formule)),
             TEMP_DEF_ALPHA  =SIMP(statut='f',typ='R'),
             ALPHA           =SIMP(statut='f',typ=(fonction_sdaster,formule)),
             AMOR_ALPHA      =SIMP(statut='f',typ=(fonction_sdaster,nappe_sdaster,formule)),
             AMOR_BETA       =SIMP(statut='f',typ=(fonction_sdaster,nappe_sdaster,formule)),
             AMOR_HYST       =SIMP(statut='f',typ=(fonction_sdaster,nappe_sdaster,formule)),
           ),
           ELAS_DHRC     =FACT(statut='f',
             A0            =SIMP(statut='o',typ='R',min=21,max=21),

             RHO             =SIMP(statut='f',typ='R',val_min=0.E+0),
             ALPHA           =SIMP(statut='f',typ='R'),
             AMOR_ALPHA      =SIMP(statut='f',typ='R'),
             AMOR_BETA       =SIMP(statut='f',typ='R'),
             AMOR_HYST       =SIMP(statut='f',typ='R'),
           ),
           CABLE           =FACT(statut='f',
             EC_SUR_E        =SIMP(statut='f',typ='R',defaut= 1.E-4 ),
           ),
#
# comportements mécanique non linéaire
# vérification du domaine de validité
           VERI_BORNE      =FACT(statut='f',
             regles=(ENSEMBLE('TEMP_MAXI','TEMP_MINI'),
                     ),
             EPSI_MAXI       =SIMP(statut='f',typ='R'),
             TEMP_MAXI       =SIMP(statut='f',typ='R'),
             TEMP_MINI       =SIMP(statut='f',typ='R'),
             VEPS_MAXI       =SIMP(statut='f',typ='R'),
           ),
           TRACTION        =FACT(statut='f',
             SIGM            =SIMP(statut='o',typ=(fonction_sdaster,nappe_sdaster,formule)),

           ),
           ECRO_LINE       =FACT(statut='f',
             D_SIGM_EPSI     =SIMP(statut='o',typ='R',),
             SY              =SIMP(statut='o',typ='R',),
             SIGM_LIM        =SIMP(statut='f',typ='R'),
             EPSI_LIM        =SIMP(statut='f',typ='R'),
           ),
           ENDO_HETEROGENE   =FACT(statut='f',
             WEIBULL         =SIMP(statut='o',typ='R',),
             SY              =SIMP(statut='o',typ='R',),
             KI              =SIMP(statut='o',typ='R',),
             EPAI            =SIMP(statut='o',typ='R',),
             GR              =SIMP(statut='f',typ='R',defaut= 1.0),
           ),
           ECRO_LINE_FO    =FACT(statut='f',
             D_SIGM_EPSI     =SIMP(statut='o',typ=(fonction_sdaster,nappe_sdaster,formule)),
             SY              =SIMP(statut='o',typ=(fonction_sdaster,nappe_sdaster,formule)),
           ),
           ECRO_PUIS       =FACT(statut='f',
             SY              =SIMP(statut='o',typ='R',),
             A_PUIS          =SIMP(statut='o',typ='R',val_min=0.0),
             N_PUIS          =SIMP(statut='o',typ='R',val_min=1.E-6),
           ),
           ECRO_PUIS_FO    =FACT(statut='f',
             SY              =SIMP(statut='o',typ=(fonction_sdaster,nappe_sdaster,formule)),
             A_PUIS          =SIMP(statut='o',typ=(fonction_sdaster,nappe_sdaster,formule)),
             N_PUIS          =SIMP(statut='o',typ=(fonction_sdaster,nappe_sdaster,formule)),
           ),
           ECRO_COOK       =FACT(statut='f',
             regles=(PRESENT_PRESENT('C','EPSP0'),
                     PRESENT_PRESENT('TROOM','TMELT','M_PUIS'),),
             A               =SIMP(statut='o',typ='R',val_min=0.0),
             B               =SIMP(statut='o',typ='R',val_min=0.0),
             C               =SIMP(statut='f',typ='R',val_min=0.0),
             N_PUIS          =SIMP(statut='o',typ='R',val_min=0.0),
             M_PUIS          =SIMP(statut='f',typ='R',val_min=0.0),
             EPSP0           =SIMP(statut='f',typ='R',val_min=1.E-6),
             TROOM           =SIMP(statut='f',typ='R',val_min=0.0),
             TMELT           =SIMP(statut='f',typ='R',val_min=0.0),
           ),
           ECRO_COOK_FO       =FACT(statut='f',
             regles=(PRESENT_PRESENT('C','EPSP0'),
                     PRESENT_PRESENT('TROOM','TMELT','M_PUIS'),),
             A               =SIMP(statut='o',typ=(fonction_sdaster,nappe_sdaster,formule)),
             B               =SIMP(statut='o',typ=(fonction_sdaster,nappe_sdaster,formule)),
             C               =SIMP(statut='f',typ='R',val_min=0.0),
             N_PUIS          =SIMP(statut='o',typ='R',val_min=0.0),
             M_PUIS          =SIMP(statut='f',typ='R',val_min=0.0),
             EPSP0           =SIMP(statut='f',typ='R',val_min=1.E-6),
             TROOM           =SIMP(statut='f',typ='R',val_min=0.0),
             TMELT           =SIMP(statut='f',typ='R',val_min=0.0),
           ),
           BETON_ECRO_LINE =FACT(statut='f',
             D_SIGM_EPSI     =SIMP(statut='o',typ='R'),
             SYT             =SIMP(statut='o',typ='R'),
             SYC             =SIMP(statut='f',typ='R'),
           ),
           BETON_REGLE_PR =FACT(statut='f',
             D_SIGM_EPSI     =SIMP(statut='o',typ='R'),
             SYT             =SIMP(statut='o',typ='R'),
             SYC             =SIMP(statut='f',typ='R'),
             EPSC            =SIMP(statut='f',typ='R'),
             N               =SIMP(statut='f',typ='R'),
           ),
           ENDO_ORTH_BETON  =FACT(statut='f',
             ALPHA            =SIMP(statut='f',typ='R',defaut=0.9),
             K0               =SIMP(statut='o',typ='R'),
             K1               =SIMP(statut='o',typ='R'),
             K2               =SIMP(statut='f',typ='R',defaut=7.E-4),
             ECROB            =SIMP(statut='o',typ='R'),
             ECROD            =SIMP(statut='o',typ='R'),
           ),
           PRAGER          =FACT(statut='f',
             C               =SIMP(statut='o',typ='R'),
           ),
           PRAGER_FO       =FACT(statut='f',
             C               =SIMP(statut='o',typ=(fonction_sdaster,nappe_sdaster,formule)),
           ),
           TAHERI          =FACT(statut='f',
             R_0             =SIMP(statut='o',typ='R'),
             ALPHA           =SIMP(statut='o',typ='R'),
             M               =SIMP(statut='o',typ='R'),
             A               =SIMP(statut='o',typ='R'),
             B               =SIMP(statut='o',typ='R'),
             C1              =SIMP(statut='o',typ='R'),
             C_INF           =SIMP(statut='o',typ='R'),
             S               =SIMP(statut='o',typ='R'),
           ),
           TAHERI_FO       =FACT(statut='f',
             R_0             =SIMP(statut='o',typ=(fonction_sdaster,nappe_sdaster,formule)),
             ALPHA           =SIMP(statut='o',typ=(fonction_sdaster,nappe_sdaster,formule)),
             M               =SIMP(statut='o',typ=(fonction_sdaster,nappe_sdaster,formule)),
             A               =SIMP(statut='o',typ=(fonction_sdaster,nappe_sdaster,formule)),
             B               =SIMP(statut='o',typ=(fonction_sdaster,nappe_sdaster,formule)),
             C1              =SIMP(statut='o',typ=(fonction_sdaster,nappe_sdaster,formule)),
             C_INF           =SIMP(statut='o',typ=(fonction_sdaster,nappe_sdaster,formule)),
             S               =SIMP(statut='o',typ=(fonction_sdaster,nappe_sdaster,formule)),
           ),
           ROUSSELIER      =FACT(statut='f',
             D               =SIMP(statut='o',typ='R'),
             SIGM_1          =SIMP(statut='o',typ='R'),
             PORO_INIT       =SIMP(statut='o',typ='R'),
             PORO_CRIT       =SIMP(statut='f',typ='R',defaut= 1. ),
             PORO_ACCE       =SIMP(statut='f',typ='R',defaut= 1. ),
             PORO_LIMI       =SIMP(statut='f',typ='R',defaut= 0.999 ),
             D_SIGM_EPSI_NORM=SIMP(statut='f',typ='R',defaut= 1. ),
             AN              =SIMP(statut='f',typ='R',defaut= 0. ),
             DP_MAXI         =SIMP(statut='f',typ='R',defaut= 0.1),
             BETA            =SIMP(statut='f',typ='R',defaut=0.85),
             PORO_TYPE       =SIMP(statut='f',typ='R',defaut=1.,fr=tr("choix de la modélisation de la porosité : 1 = IMPLICITE, 2 = EXPLICITE")),
           ),
           ROUSSELIER_FO   =FACT(statut='f',
             D               =SIMP(statut='o',typ=(fonction_sdaster,nappe_sdaster,formule)),
             SIGM_1          =SIMP(statut='o',typ=(fonction_sdaster,nappe_sdaster,formule)),
             PORO_INIT       =SIMP(statut='o',typ=(fonction_sdaster,nappe_sdaster,formule)),
             PORO_CRIT       =SIMP(statut='f',typ='R',defaut= 1. ),
             PORO_ACCE       =SIMP(statut='f',typ='R',defaut= 1. ),
             PORO_LIMI       =SIMP(statut='f',typ='R',defaut= 0.999 ),
             D_SIGM_EPSI_NORM=SIMP(statut='f',typ='R',defaut= 1. ),
             AN              =SIMP(statut='f',typ='R',defaut= 0. ),
             DP_MAXI         =SIMP(statut='f',typ='R',defaut= 0.1),
             BETA            =SIMP(statut='f',typ='R',defaut=0.85),
             PORO_TYPE       =SIMP(statut='f',typ='R',defaut=1.,fr=tr("choix de la modelisation de la porosite : 1 = IMPLICITE, 2 = EXPLICITE")),
           ),
           VISC_SINH      =FACT(statut='f',
             SIGM_0          =SIMP(statut='o',typ='R'),
             EPSI_0          =SIMP(statut='o',typ='R'),
             M               =SIMP(statut='o',typ='R'),
           ),
           VISC_SINH_FO      =FACT(statut='f',
             SIGM_0          =SIMP(statut='o',typ=(fonction_sdaster,nappe_sdaster,formule)),
             EPSI_0          =SIMP(statut='o',typ=(fonction_sdaster,nappe_sdaster,formule)),
             M               =SIMP(statut='o',typ=(fonction_sdaster,nappe_sdaster,formule)),
           ),
           CIN1_CHAB  =FACT(statut='f',
             R_0             =SIMP(statut='o',typ='R'),
             R_I             =SIMP(statut='f',typ='R'),
             B               =SIMP(statut='f',typ='R',defaut= 0.0E+0),
             C_I             =SIMP(statut='o',typ='R'),
             K               =SIMP(statut='f',typ='R',defaut= 1.0E+0),
             W               =SIMP(statut='f',typ='R',defaut= 0.0E+0),
             G_0             =SIMP(statut='o',typ='R'),
             A_I             =SIMP(statut='f',typ='R',defaut= 1.0E+0),
           ),
           CIN1_CHAB_FO  =FACT(statut='f',
             R_0             =SIMP(statut='o',typ=(fonction_sdaster,nappe_sdaster,formule)),
             R_I             =SIMP(statut='o',typ=(fonction_sdaster,nappe_sdaster,formule)),
             B               =SIMP(statut='o',typ=(fonction_sdaster,nappe_sdaster,formule)),
             C_I             =SIMP(statut='o',typ=(fonction_sdaster,nappe_sdaster,formule)),
             K               =SIMP(statut='o',typ=(fonction_sdaster,nappe_sdaster,formule)),
             W               =SIMP(statut='o',typ=(fonction_sdaster,nappe_sdaster,formule)),
             G_0             =SIMP(statut='o',typ=(fonction_sdaster,nappe_sdaster,formule)),
             A_I             =SIMP(statut='o',typ=(fonction_sdaster,nappe_sdaster,formule)),
           ),
           CIN2_CHAB  =FACT(statut='f',
             R_0             =SIMP(statut='o',typ='R'),
             R_I             =SIMP(statut='f',typ='R'),
             B               =SIMP(statut='f',typ='R',defaut= 0.E+0),
             C1_I            =SIMP(statut='o',typ='R'),
             C2_I            =SIMP(statut='o',typ='R'),
             K               =SIMP(statut='f',typ='R',defaut= 1.),
             W               =SIMP(statut='f',typ='R',defaut= 0.E+0),
             G1_0            =SIMP(statut='o',typ='R'),
             G2_0            =SIMP(statut='o',typ='R'),
             A_I             =SIMP(statut='f',typ='R',defaut= 1.E+0 ),
           ),
           CIN2_CHAB_FO  =FACT(statut='f',
             R_0             =SIMP(statut='o',typ=(fonction_sdaster,nappe_sdaster,formule)),
             R_I             =SIMP(statut='o',typ=(fonction_sdaster,nappe_sdaster,formule)),
             B               =SIMP(statut='o',typ=(fonction_sdaster,nappe_sdaster,formule)),
             C1_I            =SIMP(statut='o',typ=(fonction_sdaster,nappe_sdaster,formule)),
             C2_I            =SIMP(statut='o',typ=(fonction_sdaster,nappe_sdaster,formule)),
             K               =SIMP(statut='o',typ=(fonction_sdaster,nappe_sdaster,formule)),
             W               =SIMP(statut='o',typ=(fonction_sdaster,nappe_sdaster,formule)),
             G1_0            =SIMP(statut='o',typ=(fonction_sdaster,nappe_sdaster,formule)),
             G2_0            =SIMP(statut='o',typ=(fonction_sdaster,nappe_sdaster,formule)),
             A_I             =SIMP(statut='o',typ=(fonction_sdaster,nappe_sdaster,formule)),
           ),
           CIN2_NRAD  =FACT(statut='f',
             DELTA1          =SIMP(statut='f',typ='R',defaut= 1.E+0,val_min=0.E+0, val_max=1.E+0),
             DELTA2          =SIMP(statut='f',typ='R',defaut= 1.E+0,val_min=0.E+0, val_max=1.E+0),
           ),
           MEMO_ECRO       =FACT(statut='f',
             MU              =SIMP(statut='o',typ='R'),
             Q_M             =SIMP(statut='o',typ='R'),
             Q_0             =SIMP(statut='o',typ='R'),
             ETA             =SIMP(statut='f',typ='R',defaut= 0.5E+0 ),
           ),
           MEMO_ECRO_FO        =FACT(statut='f',
             MU              =SIMP(statut='o',typ=(fonction_sdaster,nappe_sdaster,formule)),
             Q_M             =SIMP(statut='o',typ=(fonction_sdaster,nappe_sdaster,formule)),
             Q_0             =SIMP(statut='o',typ=(fonction_sdaster,nappe_sdaster,formule)),
             ETA             =SIMP(statut='o',typ=(fonction_sdaster,nappe_sdaster,formule)),
           ),
           VISCOCHAB       =FACT(statut='f',
             K_0             =SIMP(statut='o',typ='R'),
             A_K             =SIMP(statut='f',typ='R',defaut= 0.E+0 ),
             A_R             =SIMP(statut='f',typ='R',defaut= 1.E+0 ),
             K               =SIMP(statut='o',typ='R'),
             N               =SIMP(statut='o',typ='R'),
             ALP             =SIMP(statut='f',typ='R',defaut= 0.E+0 ),
             B               =SIMP(statut='o',typ='R'),
             M_R             =SIMP(statut='f',typ='R',defaut= 1.E+0 ),
             G_R             =SIMP(statut='f',typ='R',defaut= 0.E+0 ),
             MU              =SIMP(statut='o',typ='R',defaut= 0.E+0 ),
             Q_M             =SIMP(statut='o',typ='R'),
             Q_0             =SIMP(statut='o',typ='R'),
             QR_0            =SIMP(statut='f',typ='R',defaut= 0.E+0 ),
             ETA             =SIMP(statut='f',typ='R',defaut= 0.5E+0 ),
             C1              =SIMP(statut='o',typ='R'),
             M_1             =SIMP(statut='f',typ='R',defaut= 1.E+0 ),
             D1              =SIMP(statut='f',typ='R',defaut= 1.E+0 ),
             G_X1            =SIMP(statut='f',typ='R',defaut= 0.E+0 ),
             G1_0            =SIMP(statut='o',typ='R'),
             C2              =SIMP(statut='o',typ='R'),
             M_2             =SIMP(statut='f',typ='R',defaut= 1.E+0 ),
             D2              =SIMP(statut='f',typ='R',defaut= 1.E+0 ),
             G_X2            =SIMP(statut='f',typ='R',defaut= 0.E+0 ),
             G2_0            =SIMP(statut='o',typ='R'),
             A_I             =SIMP(statut='f',typ='R',defaut= 1.E+0 ),
             ORDRE_PARAM     =SIMP(statut='c',typ='TXM', max='**', defaut=("K_0","A_K","A_R","K","N",
                              "ALP","B","M_R","G_R","MU","Q_M","Q_0","QR_0","ETA","C1","M_1","D1",
                              "G_X1","G1_0","C2","M_2","D2","G_X2","G2_0","A_I",)),
           ),
           VISCOCHAB_FO    =FACT(statut='f',
             K_0             =SIMP(statut='o',typ=(fonction_sdaster,nappe_sdaster,formule)),
             A_K             =SIMP(statut='o',typ=(fonction_sdaster,nappe_sdaster,formule)),
             A_R             =SIMP(statut='o',typ=(fonction_sdaster,nappe_sdaster,formule)),
             K               =SIMP(statut='o',typ=(fonction_sdaster,nappe_sdaster,formule)),
             N               =SIMP(statut='o',typ=(fonction_sdaster,nappe_sdaster,formule)),
             ALP             =SIMP(statut='o',typ=(fonction_sdaster,nappe_sdaster,formule)),
             B               =SIMP(statut='o',typ=(fonction_sdaster,nappe_sdaster,formule)),
             M_R             =SIMP(statut='o',typ=(fonction_sdaster,nappe_sdaster,formule)),
             G_R             =SIMP(statut='o',typ=(fonction_sdaster,nappe_sdaster,formule)),
             MU              =SIMP(statut='o',typ=(fonction_sdaster,nappe_sdaster,formule)),
             Q_M             =SIMP(statut='o',typ=(fonction_sdaster,nappe_sdaster,formule)),
             Q_0             =SIMP(statut='o',typ=(fonction_sdaster,nappe_sdaster,formule)),
             QR_0            =SIMP(statut='o',typ=(fonction_sdaster,nappe_sdaster,formule)),
             ETA             =SIMP(statut='o',typ=(fonction_sdaster,nappe_sdaster,formule)),
             C1              =SIMP(statut='o',typ=(fonction_sdaster,nappe_sdaster,formule)),
             M_1             =SIMP(statut='o',typ=(fonction_sdaster,nappe_sdaster,formule)),
             D1              =SIMP(statut='o',typ=(fonction_sdaster,nappe_sdaster,formule)),
             G_X1            =SIMP(statut='o',typ=(fonction_sdaster,nappe_sdaster,formule)),
             G1_0            =SIMP(statut='o',typ=(fonction_sdaster,nappe_sdaster,formule)),
             C2              =SIMP(statut='o',typ=(fonction_sdaster,nappe_sdaster,formule)),
             M_2             =SIMP(statut='o',typ=(fonction_sdaster,nappe_sdaster,formule)),
             D2              =SIMP(statut='o',typ=(fonction_sdaster,nappe_sdaster,formule)),
             G_X2            =SIMP(statut='o',typ=(fonction_sdaster,nappe_sdaster,formule)),
             G2_0            =SIMP(statut='o',typ=(fonction_sdaster,nappe_sdaster,formule)),
             A_I             =SIMP(statut='o',typ=(fonction_sdaster,nappe_sdaster,formule)),
             ORDRE_PARAM     =SIMP(statut='c',typ='TXM', max='**', defaut=("K_0","A_K","A_R","K","N",
                              "ALP","B","M_R","G_R","MU","Q_M","Q_0","QR_0","ETA","C1","M_1","D1",
                              "G_X1","G1_0","C2","M_2","D2","G_X2","G2_0","A_I",)),
           ),
           LEMAITRE        =FACT(statut='f',
             N               =SIMP(statut='o',typ='R'),
             UN_SUR_K        =SIMP(statut='o',typ='R'),
             UN_SUR_M        =SIMP(statut='f',typ='R',defaut= 0.E+0 ),
           ),
           LEMAITRE_IRRA    =FACT(statut='f',
             N               =SIMP(statut='o',typ='R'),
             UN_SUR_K        =SIMP(statut='o',typ='R'),
             UN_SUR_M        =SIMP(statut='o',typ='R',),
             QSR_K           =SIMP(statut='o',typ='R',),
             BETA            =SIMP(statut='o',typ='R',),
             PHI_ZERO        =SIMP(statut='o',typ='R',),
             L               =SIMP(statut='o',typ='R',),
             GRAN_FO         =SIMP(statut='f',typ=(fonction_sdaster,nappe_sdaster,formule)),
           ),
          VISC_IRRA_LOG    =FACT(statut='f',
             A               =SIMP(statut='o',typ='R',),
             B               =SIMP(statut='o',typ='R',),
             CSTE_TPS        =SIMP(statut='o',typ='R',),
             ENER_ACT        =SIMP(statut='o',typ='R',),
             FLUX_PHI        =SIMP(statut='o',typ='R',),
           ),
          GRAN_IRRA_LOG    =FACT(statut='f',
             A               =SIMP(statut='o',typ='R',),
             B               =SIMP(statut='o',typ='R',),
             CSTE_TPS        =SIMP(statut='o',typ='R',),
             ENER_ACT        =SIMP(statut='o',typ='R',),
             FLUX_PHI        =SIMP(statut='o',typ='R',),
             GRAN_FO         =SIMP(statut='f',typ=(fonction_sdaster,nappe_sdaster,formule)),
           ),
          LEMA_SEUIL   =FACT(statut='f',
             A               =SIMP(statut='o',typ='R',),
             S               =SIMP(statut='o',typ='R',),
           ),
          LEMA_SEUIL_FO=FACT(statut='f',
             A               =SIMP(statut='o',typ=(fonction_sdaster,nappe_sdaster,formule)),
             S               =SIMP(statut='o',typ=(fonction_sdaster,nappe_sdaster,formule)),
           ),
         IRRAD3M=FACT(statut='f',
               R02      =SIMP(statut='o',typ=(fonction_sdaster,nappe_sdaster,formule)),
               EPSI_U   =SIMP(statut='o',typ=(fonction_sdaster,nappe_sdaster,formule)),
               RM       =SIMP(statut='o',typ=(fonction_sdaster,nappe_sdaster,formule)),
               AI0      =SIMP(statut='o',typ='R',val_min=0.0),
               ZETA_F   =SIMP(statut='f',typ=(fonction_sdaster,nappe_sdaster,formule)),
               ETAI_S   =SIMP(statut='o',typ='R',val_min=0.0),
               RG0      =SIMP(statut='o',typ='R',val_min=0.0),
               ALPHA    =SIMP(statut='o',typ='R',val_min=0.0),
               PHI0     =SIMP(statut='o',typ='R',val_min=0.0),
               KAPPA    =SIMP(statut='f',typ='R',val_min=0.0,defaut=0.8,val_max=1.0),
               ZETA_G   =SIMP(statut='f',typ=(fonction_sdaster,nappe_sdaster,formule)),
               TOLER_ET =SIMP(statut='f',typ='R',val_min=0.0,defaut=0.15 ),
         ),
           LEMAITRE_FO     =FACT(statut='f',
             N               =SIMP(statut='o',typ=(fonction_sdaster,nappe_sdaster,formule)),
             UN_SUR_K        =SIMP(statut='o',typ=(fonction_sdaster,nappe_sdaster,formule)),
             UN_SUR_M        =SIMP(statut='o',typ=(fonction_sdaster,nappe_sdaster,formule)),
           ),
             META_LEMA_ANI     =FACT(statut='f',
             regles=(PRESENT_PRESENT('F_MRR_RR','C_MRR_RR','F_MTT_TT','C_MTT_TT',
                                     'F_MZZ_ZZ','C_MZZ_ZZ','F_MRT_RT','C_MRT_RT',
                                     'F_MRZ_RZ','C_MRZ_RZ','F_MTZ_TZ','C_MTZ_TZ'),
                     PRESENT_PRESENT('F_MXX_XX','C_MXX_XX','F_MYY_YY','C_MYY_YY',
                                     'F_MZZ_ZZ','C_MZZ_ZZ','F_MXY_XY','C_MXY_XY',
                                     'F_MXZ_XZ','C_MXZ_XZ','F_MYZ_YZ','C_MYZ_YZ'),
                     EXCLUS('F_MRR_RR','F_MXX_XX'),),
             F1_A            =SIMP(statut='o',typ='R'),
             F2_A            =SIMP(statut='o',typ='R'),
             C_A             =SIMP(statut='o',typ='R'),
             F1_M            =SIMP(statut='o',typ='R'),
             F2_M            =SIMP(statut='o',typ='R'),
             C_M             =SIMP(statut='o',typ='R'),
             F1_N            =SIMP(statut='o',typ='R'),
             F2_N            =SIMP(statut='o',typ='R'),
             C_N             =SIMP(statut='o',typ='R'),
             F1_Q            =SIMP(statut='o',typ='R'),
             F2_Q            =SIMP(statut='o',typ='R'),
             C_Q             =SIMP(statut='o',typ='R'),
             F_MRR_RR        =SIMP(statut='f',typ='R'),
             C_MRR_RR        =SIMP(statut='f',typ='R'),
             F_MTT_TT        =SIMP(statut='f',typ='R'),
             C_MTT_TT        =SIMP(statut='f',typ='R'),
             F_MZZ_ZZ        =SIMP(statut='f',typ='R'),
             C_MZZ_ZZ        =SIMP(statut='f',typ='R'),
             F_MRT_RT        =SIMP(statut='f',typ='R'),
             C_MRT_RT        =SIMP(statut='f',typ='R'),
             F_MRZ_RZ        =SIMP(statut='f',typ='R'),
             C_MRZ_RZ        =SIMP(statut='f',typ='R'),
             F_MTZ_TZ        =SIMP(statut='f',typ='R'),
             C_MTZ_TZ        =SIMP(statut='f',typ='R'),
             F_MXX_XX        =SIMP(statut='f',typ='R'),
             C_MXX_XX        =SIMP(statut='f',typ='R'),
             F_MYY_YY        =SIMP(statut='f',typ='R'),
             C_MYY_YY        =SIMP(statut='f',typ='R'),
             F_MXY_XY        =SIMP(statut='f',typ='R'),
             C_MXY_XY        =SIMP(statut='f',typ='R'),
             F_MXZ_XZ        =SIMP(statut='f',typ='R'),
             C_MXZ_XZ        =SIMP(statut='f',typ='R'),
             F_MYZ_YZ        =SIMP(statut='f',typ='R'),
             C_MYZ_YZ        =SIMP(statut='f',typ='R'),
           ),
             META_LEMA_ANI_FO  =FACT(statut='f',
             regles=(PRESENT_PRESENT('F_MRR_RR','C_MRR_RR','F_MTT_TT','C_MTT_TT',
                                     'F_MZZ_ZZ','C_MZZ_ZZ','F_MRT_RT','C_MRT_RT',
                                     'F_MRZ_RZ','C_MRZ_RZ','F_MTZ_TZ','C_MTZ_TZ'),
                     PRESENT_PRESENT('F_MXX_XX','C_MXX_XX','F_MYY_YY','C_MYY_YY',
                                     'F_MZZ_ZZ','C_MZZ_ZZ','F_MXY_XY','C_MXY_XY',
                                     'F_MXZ_XZ','C_MXZ_XZ','F_MYZ_YZ','C_MYZ_YZ'),
                     EXCLUS('F_MRR_RR','F_MXX_XX'),),
             F1_A            =SIMP(statut='o',typ=(fonction_sdaster,nappe_sdaster,formule)),
             F2_A            =SIMP(statut='o',typ=(fonction_sdaster,nappe_sdaster,formule)),
             C_A             =SIMP(statut='o',typ=(fonction_sdaster,nappe_sdaster,formule)),
             F1_M            =SIMP(statut='o',typ=(fonction_sdaster,nappe_sdaster,formule)),
             F2_M            =SIMP(statut='o',typ=(fonction_sdaster,nappe_sdaster,formule)),
             C_M             =SIMP(statut='o',typ=(fonction_sdaster,nappe_sdaster,formule)),
             F1_N            =SIMP(statut='o',typ=(fonction_sdaster,nappe_sdaster,formule)),
             F2_N            =SIMP(statut='o',typ=(fonction_sdaster,nappe_sdaster,formule)),
             C_N             =SIMP(statut='o',typ=(fonction_sdaster,nappe_sdaster,formule)),
             F1_Q            =SIMP(statut='o',typ=(fonction_sdaster,nappe_sdaster,formule)),
             F2_Q            =SIMP(statut='o',typ=(fonction_sdaster,nappe_sdaster,formule)),
             C_Q             =SIMP(statut='o',typ=(fonction_sdaster,nappe_sdaster,formule)),
             F_MRR_RR        =SIMP(statut='f',typ=(fonction_sdaster,nappe_sdaster,formule)),
             C_MRR_RR        =SIMP(statut='f',typ=(fonction_sdaster,nappe_sdaster,formule)),
             F_MTT_TT        =SIMP(statut='f',typ=(fonction_sdaster,nappe_sdaster,formule)),
             C_MTT_TT        =SIMP(statut='f',typ=(fonction_sdaster,nappe_sdaster,formule)),
             F_MZZ_ZZ        =SIMP(statut='f',typ=(fonction_sdaster,nappe_sdaster,formule)),
             C_MZZ_ZZ        =SIMP(statut='f',typ=(fonction_sdaster,nappe_sdaster,formule)),
             F_MRT_RT        =SIMP(statut='f',typ=(fonction_sdaster,nappe_sdaster,formule)),
             C_MRT_RT        =SIMP(statut='f',typ=(fonction_sdaster,nappe_sdaster,formule)),
             F_MRZ_RZ        =SIMP(statut='f',typ=(fonction_sdaster,nappe_sdaster,formule)),
             C_MRZ_RZ        =SIMP(statut='f',typ=(fonction_sdaster,nappe_sdaster,formule)),
             F_MTZ_TZ        =SIMP(statut='f',typ=(fonction_sdaster,nappe_sdaster,formule)),
             C_MTZ_TZ        =SIMP(statut='f',typ=(fonction_sdaster,nappe_sdaster,formule)),
             F_MXX_XX        =SIMP(statut='f',typ=(fonction_sdaster,nappe_sdaster,formule)),
             C_MXX_XX        =SIMP(statut='f',typ=(fonction_sdaster,nappe_sdaster,formule)),
             F_MYY_YY        =SIMP(statut='f',typ=(fonction_sdaster,nappe_sdaster,formule)),
             C_MYY_YY        =SIMP(statut='f',typ=(fonction_sdaster,nappe_sdaster,formule)),
             F_MXY_XY        =SIMP(statut='f',typ=(fonction_sdaster,nappe_sdaster,formule)),
             C_MXY_XY        =SIMP(statut='f',typ=(fonction_sdaster,nappe_sdaster,formule)),
             F_MXZ_XZ        =SIMP(statut='f',typ=(fonction_sdaster,nappe_sdaster,formule)),
             C_MXZ_XZ        =SIMP(statut='f',typ=(fonction_sdaster,nappe_sdaster,formule)),
             F_MYZ_YZ        =SIMP(statut='f',typ=(fonction_sdaster,nappe_sdaster,formule)),
             C_MYZ_YZ        =SIMP(statut='f',typ=(fonction_sdaster,nappe_sdaster,formule)),
           ),
           ARME            =FACT(statut='f',
             KYE             =SIMP(statut='o',typ='R'),
             DLE             =SIMP(statut='o',typ='R'),
             KYP             =SIMP(statut='o',typ='R'),
             DLP             =SIMP(statut='o',typ='R'),
             KYG             =SIMP(statut='o',typ='R'),
           ),
           ASSE_CORN       =FACT(statut='f',
             NU_1            =SIMP(statut='o',typ='R'),
             MU_1            =SIMP(statut='o',typ='R'),
             DXU_1           =SIMP(statut='o',typ='R'),
             DRYU_1          =SIMP(statut='o',typ='R'),
             C_1             =SIMP(statut='o',typ='R'),
             NU_2            =SIMP(statut='o',typ='R'),
             MU_2            =SIMP(statut='o',typ='R'),
             DXU_2           =SIMP(statut='o',typ='R'),
             DRYU_2          =SIMP(statut='o',typ='R'),
             C_2             =SIMP(statut='o',typ='R'),
             KY              =SIMP(statut='o',typ='R'),
             KZ              =SIMP(statut='o',typ='R'),
             KRX             =SIMP(statut='o',typ='R'),
             KRZ             =SIMP(statut='o',typ='R'),
             R_P0            =SIMP(statut='f',typ='R',defaut= 1.E+4 ),
           ),
           DIS_CONTACT     =FACT(statut='f',
             RIGI_NOR        =SIMP(statut='f',typ='R' ),
             RIGI_TAN        =SIMP(statut='f',typ='R',defaut= 0.E+0 ),
             AMOR_NOR        =SIMP(statut='f',typ='R' ),
             AMOR_TAN        =SIMP(statut='f',typ='R' ),
             COULOMB         =SIMP(statut='f',typ='R',defaut= 0.E+0 ),
             DIST_1          =SIMP(statut='f',typ='R',defaut= 0.E+0 ),
             DIST_2          =SIMP(statut='f',typ='R',defaut= 0.E+0 ),
             JEU             =SIMP(statut='f',typ='R',defaut= 0.E+0 ),
           ),
           ENDO_SCALAIRE   =FACT(statut='f',
             K               =SIMP(statut='o',typ='R',val_min=0.0),
             P               =SIMP(statut='o',typ='R',val_min=1.0),
             Q               =SIMP(statut='f',typ='R',defaut=0.0),
             M               =SIMP(statut='o',typ='R',),
             C_COMP          =SIMP(statut='f',typ='R',defaut=0.0),
             C_VOLU          =SIMP(statut='f',typ='R',defaut=1.0,val_min=0.0),
             COEF_RIGI_MINI  =SIMP(statut='f',typ='R',defaut=1.E-5),
           ),
           ENDO_SCALAIRE_FO =FACT(statut='f',
             K               =SIMP(statut='o',typ=(fonction_sdaster,nappe_sdaster,formule)),
             P               =SIMP(statut='o',typ=(fonction_sdaster,nappe_sdaster,formule)),
             Q               =SIMP(statut='f',typ='R',defaut=0.0),
             M               =SIMP(statut='o',typ=(fonction_sdaster,nappe_sdaster,formule)),
             C_COMP          =SIMP(statut='o',typ=(fonction_sdaster,nappe_sdaster,formule)),
             C_VOLU          =SIMP(statut='o',typ=(fonction_sdaster,nappe_sdaster,formule)),
             COEF_RIGI_MINI  =SIMP(statut='f',typ='R',defaut=1.E-5),
           ),
           ENDO_FISS_EXP    =FACT(statut='f',
             K               =SIMP(statut='o',typ='R',val_min=0.0),
             P               =SIMP(statut='o',typ='R',val_min=1.0),
             Q               =SIMP(statut='f',typ='R',defaut=0.0),
             M               =SIMP(statut='o',typ='R',),
             TAU             =SIMP(statut='o',typ='R'),
             SIG0            =SIMP(statut='o',typ='R'),
             BETA            =SIMP(statut='f',typ='R',defaut=0.1),
             REST_RIGIDITE   =SIMP(statut='o',typ='R',val_min=0.0),
             COEF_RIGI_MINI  =SIMP(statut='f',typ='R',defaut=1.E-5),
           ),
           ENDO_FISS_EXP_FO =FACT(statut='f',
             K               =SIMP(statut='o',typ=(fonction_sdaster,nappe_sdaster,formule)),
             P               =SIMP(statut='o',typ=(fonction_sdaster,nappe_sdaster,formule)),
             Q               =SIMP(statut='f',typ='R',defaut=0.0),
             M               =SIMP(statut='o',typ=(fonction_sdaster,nappe_sdaster,formule)),
             TAU             =SIMP(statut='o',typ=(fonction_sdaster,nappe_sdaster,formule)),
             SIG0            =SIMP(statut='o',typ=(fonction_sdaster,nappe_sdaster,formule)),
             BETA            =SIMP(statut='f',typ='R',defaut=0.1),
             REST_RIGIDITE   =SIMP(statut='o',typ='R',val_min=0.0),
             COEF_RIGI_MINI  =SIMP(statut='f',typ='R',defaut=1.E-5),
           ),
           DIS_GRICRA    =FACT(statut='f',
             KN_AX       =SIMP(statut='o',typ='R' ),
             KT_AX       =SIMP(statut='o',typ='R' ),
             COUL_AX     =SIMP(statut='o',typ='R' ),
             F_SER       =SIMP(statut='f',typ='R' ),
             F_SER_FO    =SIMP(statut='f',typ=(fonction_sdaster,nappe_sdaster,formule)),
             ET_AX       =SIMP(statut='f',typ='R',defaut=1.e-7 ),
             ET_ROT      =SIMP(statut='f',typ='R',defaut=1.e-7 ),
             ANG1        =SIMP(statut='f',typ='R' ),
             ANG2        =SIMP(statut='f',typ='R' ),
             PEN1        =SIMP(statut='f',typ='R' ),
             PEN2        =SIMP(statut='f',typ='R' ),
             PEN3        =SIMP(statut='f',typ='R' ),
             ANG1_FO     =SIMP(statut='f',typ=(fonction_sdaster,nappe_sdaster,formule)),
             ANG2_FO     =SIMP(statut='f',typ=(fonction_sdaster,nappe_sdaster,formule)),
             PEN1_FO     =SIMP(statut='f',typ=(fonction_sdaster,nappe_sdaster,formule)),
             PEN2_FO     =SIMP(statut='f',typ=(fonction_sdaster,nappe_sdaster,formule)),
             PEN3_FO     =SIMP(statut='f',typ=(fonction_sdaster,nappe_sdaster,formule)),
             regles=(EXCLUS('ANG1','ANG1_FO',),
                     UN_PARMI('ANG1','ANG1_FO',),
                     EXCLUS('F_SER','F_SER_FO',),
                     UN_PARMI('F_SER','F_SER_FO',),
                     PRESENT_PRESENT('ANG1','ANG2','PEN1','PEN2','PEN3',),
                     PRESENT_PRESENT('ANG1_FO','ANG2_FO','PEN1_FO','PEN2_FO','PEN3_FO',),
                                     ),
           ),
           BETON_DOUBLE_DP =FACT(statut='f',
             F_C             =SIMP(statut='o',typ=(fonction_sdaster,nappe_sdaster,formule)),
             F_T             =SIMP(statut='o',typ=(fonction_sdaster,nappe_sdaster,formule)),
             COEF_BIAX       =SIMP(statut='o',typ=(fonction_sdaster,nappe_sdaster,formule)),
             ENER_COMP_RUPT  =SIMP(statut='o',typ=(fonction_sdaster,nappe_sdaster,formule)),
             ENER_TRAC_RUPT  =SIMP(statut='o',typ=(fonction_sdaster,nappe_sdaster,formule)),
             COEF_ELAS_COMP  =SIMP(statut='o',typ='R',val_min=0.E+0,val_max=100.E+0),
             LONG_CARA       =SIMP(statut='f',typ='R',val_min=0.E+0),
             ECRO_COMP_P_PIC =SIMP(statut='f',typ='TXM',defaut="LINEAIRE",into=("LINEAIRE","PARABOLE") ),
             ECRO_TRAC_P_PIC =SIMP(statut='f',typ='TXM',defaut="LINEAIRE",into=("LINEAIRE","EXPONENT") ),
           ),
         MAZARS=FACT(statut='f',min=0 ,
             EPSD0           =SIMP(statut='o',typ='R'),
             K               =SIMP(statut='o',typ='R'),
             AC              =SIMP(statut='o',typ='R'),
             BC              =SIMP(statut='o',typ='R'),
             AT              =SIMP(statut='o',typ='R'),
             BT              =SIMP(statut='o',typ='R'),
             CHI             =SIMP(statut='f',typ='R',val_min=0.0E+0,val_max=1.0E+0),
             SIGM_LIM        =SIMP(statut='f',typ='R'),
             EPSI_LIM        =SIMP(statut='f',typ='R'),
           ),
         MAZARS_FO=FACT(statut='f',min=0 ,
             EPSD0           =SIMP(statut='o',typ=(fonction_sdaster,nappe_sdaster,formule)),
             K               =SIMP(statut='o',typ=(fonction_sdaster,nappe_sdaster,formule)),
             AC              =SIMP(statut='o',typ=(fonction_sdaster,nappe_sdaster,formule)),
             BC              =SIMP(statut='o',typ=(fonction_sdaster,nappe_sdaster,formule)),
             AT              =SIMP(statut='o',typ=(fonction_sdaster,nappe_sdaster,formule)),
             BT              =SIMP(statut='o',typ=(fonction_sdaster,nappe_sdaster,formule)),
             CHI             =SIMP(statut='f',typ='R'),
           ),
         JOINT_BA=FACT(statut='f',min=0 ,max=1,
             HPEN            =SIMP(statut='o',typ='R',defaut= 1.E+0,val_min=0.E+0),
             GTT             =SIMP(statut='o',typ='R',val_min=0.E+0),
             GAMD0           =SIMP(statut='o',typ='R',val_min=1.E-4,val_max=1.E-1),
             AD1             =SIMP(statut='o',typ='R',val_min=0.E+0),
             BD1             =SIMP(statut='o',typ='R',defaut= 5.E-1,val_min=1.E-1),
             GAMD2           =SIMP(statut='o',typ='R',val_min=1.E-4,val_max=1.E+0),
             AD2             =SIMP(statut='o',typ='R',val_min=0.E+0),
             BD2             =SIMP(statut='o',typ='R',defaut= 1.E+0,val_min=1.E-1),
             VIFROT          =SIMP(statut='o',typ='R',val_min=0.E+0),
             FA              =SIMP(statut='o',typ='R',val_min=0.E+0),
             FC              =SIMP(statut='o',typ='R',val_min=0.E+0),
             EPSTR0          =SIMP(statut='o',typ='R',val_min=1.E-4,val_max=1.E+0),
             ADN             =SIMP(statut='o',typ='R',val_min=0.E+0),
             BDN             =SIMP(statut='o',typ='R',defaut= 1.E+0,val_min=1.E-1),
           ),
          VENDOCHAB       =FACT(statut='f',
             SY              =SIMP(statut='o',typ='R',defaut= 0.E+0),
             ALPHA_D         =SIMP(statut='o',typ='R',defaut= 0.E+0),
             BETA_D          =SIMP(statut='o',typ='R',defaut= 0.E+0),
             R_D             =SIMP(statut='o',typ='R'),
             A_D             =SIMP(statut='o',typ='R'),
             K_D             =SIMP(statut='o',typ='R'),
           ),
           VENDOCHAB_FO    =FACT(statut='f',
             SY              =SIMP(statut='o',typ=(fonction_sdaster,nappe_sdaster,formule)),
             ALPHA_D         =SIMP(statut='o',typ=(fonction_sdaster,nappe_sdaster,formule)),
             BETA_D          =SIMP(statut='o',typ=(fonction_sdaster,nappe_sdaster,formule)),
             R_D             =SIMP(statut='o',typ=(fonction_sdaster,nappe_sdaster,formule)),
             A_D             =SIMP(statut='o',typ=(fonction_sdaster,nappe_sdaster,formule)),
             K_D             =SIMP(statut='o',typ=(fonction_sdaster,nappe_sdaster,formule)),
           ),
          HAYHURST     =FACT(statut='f',
             EPS0         =SIMP(statut='o',typ='R'),
             K            =SIMP(statut='o',typ='R'),
             H1           =SIMP(statut='o',typ='R'),
             H2           =SIMP(statut='o',typ='R'),
             DELTA1       =SIMP(statut='o',typ='R'),
             DELTA2       =SIMP(statut='o',typ='R'),
             H1ST         =SIMP(statut='o',typ='R'),
             H2ST         =SIMP(statut='o',typ='R'),
             KC           =SIMP(statut='f',typ='R',defaut=0.),
             BIGA         =SIMP(statut='o',typ='R'),
             SIG0         =SIMP(statut='o',typ='R'),
             ALPHAD       =SIMP(statut='f',typ='R',defaut=0.),
             S_EQUI_D     =SIMP(statut='f',typ='R',defaut=0.,into=(0.,1.) ),
           ),
           VISC_ENDO      =FACT(statut='f',
             SY              =SIMP(statut='o',typ='R',defaut= 0.E+0),
             R_D             =SIMP(statut='o',typ='R'),
             A_D             =SIMP(statut='o',typ='R'),
           ),
           VISC_ENDO_FO   =FACT(statut='f',
             SY              =SIMP(statut='o',typ=(fonction_sdaster,nappe_sdaster,formule)),
             R_D             =SIMP(statut='o',typ=(fonction_sdaster,nappe_sdaster,formule)),
             A_D             =SIMP(statut='o',typ=(fonction_sdaster,nappe_sdaster,formule)),
           ),
           PINTO_MENEGOTTO =FACT(statut='f',
             SY              =SIMP(statut='o',typ='R'),
             EPSI_ULTM       =SIMP(statut='o',typ='R'),
             SIGM_ULTM       =SIMP(statut='o',typ='R'),
             ELAN            =SIMP(statut='f',typ='R',defaut= 4. ),
             EPSP_HARD       =SIMP(statut='o',typ='R'),
             R_PM            =SIMP(statut='f',typ='R',defaut= 20. ),
             EP_SUR_E        =SIMP(statut='f',typ='R'),
             A1_PM           =SIMP(statut='f',typ='R',defaut= 18.5 ),
             A2_PM           =SIMP(statut='f',typ='R',defaut= 0.15 ),
             A6_PM           =SIMP(statut='f',typ='R',defaut= 620. ),
             C_PM            =SIMP(statut='f',typ='R',defaut= 0.5 ),
             A_PM            =SIMP(statut='f',typ='R',defaut= 6.0E-3 ),
           ),
           BPEL_BETON      =FACT(statut='f',
             PERT_FLUA       =SIMP(statut='f',typ='R',defaut= 0.E+0 ),
             PERT_RETR       =SIMP(statut='f',typ='R',defaut= 0.E+0 ),
           ),
           BPEL_ACIER      =FACT(statut='f',
            regles=(PRESENT_PRESENT('RELAX_1000','F_PRG',),
                     PRESENT_PRESENT('MU0_RELAX','F_PRG',),),
             RELAX_1000      =SIMP(statut='f',typ='R',defaut= 0.E+0 ),
             MU0_RELAX       =SIMP(statut='f',typ='R',defaut= 0.E+0 ),
             F_PRG           =SIMP(statut='f',typ='R'),
             FROT_COURB      =SIMP(statut='f',typ='R',defaut=0.E+0),
             FROT_LINE       =SIMP(statut='f',typ='R',defaut=0.E+0),
           ),
          ETCC_BETON      =FACT(statut='f',
            EP_BETON           =SIMP(statut='f',typ='R',val_min=0.E+0,defaut=0. ),
           ),
          ETCC_ACIER      =FACT(statut='f',
            regles=(PRESENT_PRESENT('RELAX_1000','F_PRG',),),
             F_PRG           =SIMP(statut='f',typ='R',val_min=0.E+0),
             COEF_FROT       =SIMP(statut='f',typ='R',defaut=0.E+0,val_min=0.E+0),
             PERT_LIGNE     =SIMP(statut='f',typ='R',defaut=0.E+0,val_min=0.E+0),
             RELAX_1000      =SIMP(statut='f',typ='R',defaut= 0.E+0,val_min=0.E+0 ),


           ),
           MOHR_COULOMB  =FACT(statut='f',
               PHI         =SIMP(statut='o',typ='R',val_min=0.E+0,val_max=60.E+0,),
               ANGDIL      =SIMP(statut='o',typ='R',val_min=0.E+0,val_max=60.E+0,),
               COHESION    =SIMP(statut='o',typ='R',val_min=0.E+0,),
             ),

           CAM_CLAY      =FACT(statut='f',
             MU              =SIMP(statut='o',typ='R'),
             PORO            =SIMP(statut='o',typ='R'),
             LAMBDA          =SIMP(statut='o',typ='R'),
             KAPA            =SIMP(statut='o',typ='R'),
             M               =SIMP(statut='o',typ='R'),
             PRES_CRIT       =SIMP(statut='o',typ='R'),
             KCAM            =SIMP(statut='f',typ='R',val_min=0.E+0),
             PTRAC           =SIMP(statut='f',typ='R',val_max=0.E+0),
               regles=(PRESENT_PRESENT('PTRAC','KCAM',),),
           ),
           BARCELONE      =FACT(statut='f',
             MU              =SIMP(statut='o',typ='R'),
             PORO            =SIMP(statut='o',typ='R'),
             LAMBDA          =SIMP(statut='o',typ='R'),
             KAPA            =SIMP(statut='o',typ='R'),
             M               =SIMP(statut='o',typ='R'),
             PRES_CRIT       =SIMP(statut='o',typ='R'),
             PA            =SIMP(statut='o',typ='R'),
             R             =SIMP(statut='o',typ='R'),
             BETA          =SIMP(statut='o',typ='R'),
             KC            =SIMP(statut='o',typ='R'),
             PC0_INIT      =SIMP(statut='o',typ='R'),
             KAPAS         =SIMP(statut='o',typ='R'),
             LAMBDAS       =SIMP(statut='o',typ='R'),
             ALPHAB        =SIMP(statut='f',typ='R'),
           ),
           CJS             =FACT(statut='f',
             BETA_CJS        =SIMP(statut='o',typ='R'),
             RM              =SIMP(statut='o',typ='R'),
             N_CJS           =SIMP(statut='f',typ='R',defaut= 0.E+0 ),
             KP              =SIMP(statut='f',typ='R',defaut= 0.E+0 ),
             RC              =SIMP(statut='f',typ='R',defaut= 0.E+0 ),
             A_CJS           =SIMP(statut='f',typ='R',defaut= 0.E+0 ),
             B_CJS           =SIMP(statut='f',typ='R',defaut= 1.0E+25 ),
             C_CJS           =SIMP(statut='f',typ='R',defaut= 0.E+0 ),
             GAMMA_CJS       =SIMP(statut='o',typ='R'),
             MU_CJS          =SIMP(statut='f',typ='R',defaut= 0.E+0 ),
             PCO             =SIMP(statut='f',typ='R',defaut= 0.E+0 ),
             PA              =SIMP(statut='o',typ='R'),
             Q_INIT          =SIMP(statut='f',typ='R',defaut= 0.E+0 ),
             R_INIT          =SIMP(statut='f',typ='R',defaut= 0.E+0 ),
           ),
           HUJEUX   =FACT(statut='f',
             N      =SIMP(statut='o',typ='R' ),
             BETA   =SIMP(statut='o',typ='R' ),
             B      =SIMP(statut='o',typ='R' ),
             D      =SIMP(statut='o',typ='R' ),
             PHI    =SIMP(statut='o',typ='R' ),
             ANGDIL =SIMP(statut='o',typ='R' ),
             PCO    =SIMP(statut='o',typ='R' ),
             PREF   =SIMP(statut='o',typ='R' ),
             ACYC   =SIMP(statut='o',typ='R' ),
             AMON   =SIMP(statut='o',typ='R' ),
             CCYC   =SIMP(statut='o',typ='R' ),
             CMON   =SIMP(statut='o',typ='R' ),
             RD_ELA =SIMP(statut='o',typ='R' ),
             RI_ELA =SIMP(statut='o',typ='R' ),
             RHYS   =SIMP(statut='o',typ='R' ),
             RMOB   =SIMP(statut='o',typ='R' ),
             XM     =SIMP(statut='o',typ='R' ),
             RD_CYC =SIMP(statut='o',typ='R' ),
             RI_CYC =SIMP(statut='o',typ='R' ),
             DILA   =SIMP(statut='o',typ='R' ),
             PTRAC  =SIMP(statut='f',typ='R',defaut= 0.E+0 ),
           ),
           ECRO_ASYM_LINE  =FACT(statut='f',
             DC_SIGM_EPSI    =SIMP(statut='o',typ='R'),
             SY_C            =SIMP(statut='o',typ='R'),
             DT_SIGM_EPSI    =SIMP(statut='o',typ='R'),
             SY_T            =SIMP(statut='o',typ='R'),
           ),
           BETON_GRANGER      =FACT(statut='f',
                 J1              =SIMP(statut='f',typ='R'),
                 J2              =SIMP(statut='f',typ='R'),
                 J3              =SIMP(statut='f',typ='R'),
                 J4              =SIMP(statut='f',typ='R'),
                 J5              =SIMP(statut='f',typ='R'),
                 J6              =SIMP(statut='f',typ='R'),
                 J7              =SIMP(statut='f',typ='R'),
                 J8              =SIMP(statut='f',typ='R'),
                 TAUX_1          =SIMP(statut='f',typ='R'),
                 TAUX_2          =SIMP(statut='f',typ='R'),
                 TAUX_3          =SIMP(statut='f',typ='R'),
                 TAUX_4          =SIMP(statut='f',typ='R'),
                 TAUX_5          =SIMP(statut='f',typ='R'),
                 TAUX_6          =SIMP(statut='f',typ='R'),
                 TAUX_7          =SIMP(statut='f',typ='R'),
                 TAUX_8          =SIMP(statut='f',typ='R'),
           ),
           V_BETON_GRANGER    =FACT(statut='f',
                FONC_V          =SIMP(statut='o',typ=(fonction_sdaster,nappe_sdaster,formule)),
           ),
           BETON_BURGER   =FACT(statut='f',min=0 ,
             K_RS            =SIMP(statut='o',typ='R'),
             ETA_RS          =SIMP(statut='o',typ='R'),
             KAPPA           =SIMP(statut='o',typ='R'),
             ETA_IS          =SIMP(statut='o',typ='R'),
             K_RD            =SIMP(statut='o',typ='R'),
             ETA_RD          =SIMP(statut='o',typ='R'),
             ETA_ID          =SIMP(statut='o',typ='R'),
             QSR_K           =SIMP(statut='o',typ='R'),
             TEMP_0_C        =SIMP(statut='o',typ='R'),
             ETA_FD          =SIMP(statut='f',typ='R'),
           ),
           BETON_UMLV   =FACT(statut='f',min=0 ,
             K_RS            =SIMP(statut='o',typ='R'),
             ETA_RS          =SIMP(statut='o',typ='R'),
             K_IS            =SIMP(statut='o',typ='R'),
             ETA_IS          =SIMP(statut='o',typ='R'),
             K_RD            =SIMP(statut='o',typ='R'),
             ETA_RD          =SIMP(statut='o',typ='R'),
             ETA_ID          =SIMP(statut='o',typ='R'),
             ETA_FD          =SIMP(statut='f',typ='R'),
           ),
           BETON_RAG    =FACT(statut='f',
             ACTIV_FL        =SIMP(statut='f',typ='R',defaut=1.0 ),
             K_RS            =SIMP(statut='o',typ='R'),
             K_IS            =SIMP(statut='o',typ='R'),
             ETA_RS          =SIMP(statut='o',typ='R'),
             ETA_IS          =SIMP(statut='o',typ='R'),
             K_RD            =SIMP(statut='o',typ='R'),
             K_ID            =SIMP(statut='o',typ='R'),
             ETA_RD          =SIMP(statut='o',typ='R'),
             ETA_ID          =SIMP(statut='o',typ='R'),
             EPS_0           =SIMP(statut='o',typ='R'),
             TAU_0           =SIMP(statut='o',typ='R'),
             EPS_FL_L        =SIMP(statut='f',typ='R',defaut=3.0e-2 ),
             ACTIV_LO        =SIMP(statut='f',typ='R',defaut=1.0 ),
             F_C             =SIMP(statut='o',typ='R'),
             F_T             =SIMP(statut='o',typ='R'),
             ANG_CRIT        =SIMP(statut='f',typ='R',defaut=8.594367 ),
             EPS_COMP        =SIMP(statut='o',typ='R'),
             EPS_TRAC        =SIMP(statut='o',typ='R'),
             LC_COMP         =SIMP(statut='o',typ='R',defaut=1.0  ),
             LC_TRAC         =SIMP(statut='o',typ='R',defaut=1.0  ),
             HYD_PRES        =SIMP(statut='f',typ='R',defaut=0.   ),
             A_VAN_GE        =SIMP(statut='f',typ='R',defaut=0.0  ),
             B_VAN_GE        =SIMP(statut='f',typ='R',defaut=1.9  ),
             BIOT_EAU        =SIMP(statut='o',typ='R',defaut=0.3  ),
             MODU_EAU        =SIMP(statut='o',typ='R',defaut=0.0  ),
             W_EAU_0         =SIMP(statut='o',typ='R'),
             BIOT_GEL        =SIMP(statut='o',typ='R'),
             MODU_GEL        =SIMP(statut='o',typ='R'),
             VOL_GEL         =SIMP(statut='o',typ='R'),
             AVANC_LI        =SIMP(statut='o',typ='R'),
             SEUIL_SR        =SIMP(statut='o',typ='R'),
             PARA_CIN        =SIMP(statut='o',typ='R'),
             ENR_AC_G        =SIMP(statut='o',typ='R'),
           ),

             PORO_BETON      =FACT(statut='f',
             HYDS            =SIMP(statut='o',typ='R'),
             F_C               =SIMP(statut='f',typ='R'),
             F_T              =SIMP(statut='f',typ='R'),
             EPS_COMP             =SIMP(statut='f',typ='R'),
             EPS_TRAC             =SIMP(statut='f',typ='R'),
             EKVP            =SIMP(statut='f',typ='R'),
             CBIO            =SIMP(statut='f',typ='R'),
             MODU_EAU        =SIMP(statut='f',typ='R'),
             SFLD            =SIMP(statut='f',typ='R'),
             MODU_GEL        =SIMP(statut='f',typ='R'),
             VOL_GEL         =SIMP(statut='f',typ='R'),
             PORO            =SIMP(statut='o',typ='R'),
             TKVP            =SIMP(statut='f',typ='R'),
             NRJA            =SIMP(statut='f',typ='R'),
             MSHR            =SIMP(statut='f',typ='R'),
             KD              =SIMP(statut='f',typ='R'),
             MU              =SIMP(statut='f',typ='R'),
             DT80            =SIMP(statut='o',typ='R'),
             STMP            =SIMP(statut='f',typ='R'),
             KTMP            =SIMP(statut='f',typ='R'),
             TREF            =SIMP(statut='f',typ='R'),
             Y1SY            =SIMP(statut='f',typ='R'),
             TAU1            =SIMP(statut='f',typ='R'),
             TAU2            =SIMP(statut='f',typ='R'),
             EKFL            =SIMP(statut='f',typ='R'),
             DFMX            =SIMP(statut='f',typ='R'),
             GFTL            =SIMP(statut='f',typ='R'),
             GFCL            =SIMP(statut='f',typ='R'),
             WREF            =SIMP(statut='f',typ='R'),
             TPHI            =SIMP(statut='f',typ='R'),
             ANG_CRIT        =SIMP(statut='f',typ='R'),
             SREF            =SIMP(statut='f',typ='R'),
             VREF            =SIMP(statut='f',typ='R'),
             VMAX            =SIMP(statut='f',typ='R'),
             KWB             =SIMP(statut='f',typ='R'),
             COVS            =SIMP(statut='f',typ='R'),
             ALUC            =SIMP(statut='f',typ='R'),
             SULC            =SIMP(statut='f',typ='R'),
             SILC            =SIMP(statut='f',typ='R'),
             TDEF            =SIMP(statut='f',typ='R'),
             TAAR            =SIMP(statut='f',typ='R'),
             SSAR            =SIMP(statut='f',typ='R'),
             SSDE            =SIMP(statut='f',typ='R'),
             VAAR            =SIMP(statut='f',typ='R'),
             VETT            =SIMP(statut='f',typ='R'),
             VVAR            =SIMP(statut='f',typ='R'),
             VVDE            =SIMP(statut='f',typ='R'),
             BAAR            =SIMP(statut='f',typ='R'),
             BDEF            =SIMP(statut='f',typ='R'),
             MAAR            =SIMP(statut='f',typ='R'),
             MDEF            =SIMP(statut='f',typ='R'),
             COTH            =SIMP(statut='f',typ='R'),
             CORG            =SIMP(statut='f',typ='R'),
             ID0             =SIMP(statut='f',typ='R'),
             ID1             =SIMP(statut='f',typ='R'),
             ID2             =SIMP(statut='f',typ='R'),
            ),

           GLRC_DM         =FACT(statut='f',min=0,max=1,
             GAMMA_T         =SIMP(statut='o',typ='R',val_min=-1.E+0,val_max=1.E+0),
             GAMMA_C         =SIMP(statut='f',typ='R',val_min=-1.E+0,val_max=1.E+0),
             GAMMA_F         =SIMP(statut='o',typ='R',val_min=-1.E+0,val_max=1.E+0),
             NYT             =SIMP(statut='o',typ='R',val_min=0.E+0),
             NYC             =SIMP(statut='f',typ='R'),
             MYF             =SIMP(statut='o',typ='R',val_min=0.E+0),
             ALPHA_C         =SIMP(statut='d',typ='R',val_min=1.E+0,defaut=1.E+0),
           ),
           DHRC            =FACT(statut='f',
             NYD           =SIMP(statut='o',typ='R',min=2,max=2),
             SCRIT         =SIMP(statut='o',typ='R',min=4,max=4),

             AA_C          =SIMP(statut='o',typ='R',min=42,max=42),
             AA_T          =SIMP(statut='o',typ='R',min=42,max=42),
             GA_C          =SIMP(statut='o',typ='R',min=42,max=42),
             GA_T          =SIMP(statut='o',typ='R',min=42,max=42),

             AB            =SIMP(statut='o',typ='R',min=24,max=24),
             GB            =SIMP(statut='o',typ='R',min=24,max=24),

             C0            =SIMP(statut='o',typ='R',min=8,max=8),
             AC            =SIMP(statut='o',typ='R',min=8,max=8),
             GC            =SIMP(statut='o',typ='R',min=8,max=8),

           ),
           CORR_ACIER   =FACT(statut='f',min=0 ,max=1,
             D_CORR           =SIMP(statut='o',typ='R'),
             ECRO_K           =SIMP(statut='o',typ='R'),
             ECRO_M           =SIMP(statut='o',typ='R'),
             SY              =SIMP(statut='o',typ='R'),
             ),
           CABLE_GAINE_FROT=FACT(statut='f',min=0 ,max=1,
             TYPE = SIMP(statut='o',typ='TXM',into=("FROTTANT","GLISSANT","ADHERENT")),
             b_glissant =BLOC(condition="TYPE=='GLISSANT'",
                                    fr=tr("Loi cable gaine glissante"),
                     FROT_LINE         =SIMP(statut='c',typ='R',defaut= 0.0,),
                     FROT_COURB       =SIMP(statut='c',typ='R',defaut= 0.0,),
             ),
             b_adherent =BLOC(condition="TYPE=='ADHERENT'",
                                    fr=tr("Loi cable gaine adherent"),
                     FROT_LINE         =SIMP(statut='c',typ='R',defaut= -1.0,),
                     FROT_COURB       =SIMP(statut='c',typ='R',defaut= 0.0,),
             ),
             b_frottant =BLOC(condition="TYPE=='FROTTANT'",
                                    fr=tr("Loi cable gaine frottant"),
                     FROT_LINE         =SIMP(statut='o',typ='R',defaut= 0.0,),
                     FROT_COURB       =SIMP(statut='o',typ='R',defaut= 0.0,),
             ),
             PENA_LAGR       =SIMP(statut='o',typ='R',val_min=0.E+0),
[...]
             N          =SIMP(statut='o',typ='R',fr=tr("parametre intervenant dans la formule pilotant la cinetique de fluage")),
             P_PIC      =SIMP(statut='o',typ='R',fr=tr("niveau d ecrouissage pour atteindre le seuil de pic")),
             P_ULT      =SIMP(statut='o',typ='R',fr=tr("niveau d ecrouissage pour atteindre le seuil utime")),
             ALPHA_0    =SIMP(statut='o',typ='R',fr=tr("parametre d ecrouissage relatif à la cohesion au seuil d elasticite")),
             ALPHA_PIC  =SIMP(statut='o',typ='R',fr=tr("parametre d ecrouissage relatif à la cohesion au seuil de pic")),
             ALPHA_ULT  =SIMP(statut='o',typ='R',fr=tr("parametre d ecrouissage relatif à la cohesion au seuil ultime")),
             R_0        =SIMP(statut='o',typ='R',fr=tr("parametre d ecrouissage correspondant au seuil d'elasticite")),
             R_PIC      =SIMP(statut='o',typ='R',fr=tr("parametre d ecrouissage correspondant au seuil de pic")),
             R_ULT      =SIMP(statut='o',typ='R',fr=tr("parametre d ecrouissage correspondant au seuil ultime")),
             BETA_0     =SIMP(statut='o',typ='R',fr=tr("parametre d ecrouissage relatif à la dilatance au seuil d elasticite")),
             BETA_PIC   =SIMP(statut='o',typ='R',fr=tr("parametre d ecrouissage relatif à la dilatance au seuil de pic")),
             BETA_ULT   =SIMP(statut='o',typ='R',fr=tr("parametre d ecrouissage relatif à la dilatance au seuil ultime")),
           ),
             HOEK_BROWN          =FACT(statut='f',
             GAMMA_RUP       =SIMP(statut='o',typ='R'),
             GAMMA_RES       =SIMP(statut='o',typ='R'),
             S_END           =SIMP(statut='o',typ='R'),
             S_RUP           =SIMP(statut='o',typ='R'),
             M_END           =SIMP(statut='o',typ='R'),
             M_RUP           =SIMP(statut='o',typ='R'),
             BETA            =SIMP(statut='o',typ='R'),
             ALPHAHB         =SIMP(statut='o',typ='R'),
             PHI_RUP         =SIMP(statut='o',typ='R'),
             PHI_RES         =SIMP(statut='o',typ='R'),
             PHI_END         =SIMP(statut='f',typ='R'),
           ),
             ELAS_GONF             =FACT(statut='f',
             BETAM           =SIMP(statut='o',typ='R'),
             PREF            =SIMP(statut='o',typ='R'),
           ),
             JOINT_BANDIS         =FACT(statut='f',
             K                =SIMP(statut='o',typ='R'),
             DMAX             =SIMP(statut='o',typ='R'),
             GAMMA            =SIMP(statut='o',typ='R'),
             KT               =SIMP(statut='f',typ='R',defaut = 1.E12),
           ),
####  MONOCRISTAL

           MONO_VISC1      =FACT(statut='f',
             TYPE_PARA       =SIMP(statut='f',typ='TXM',into=("ECOU_VISC",),),
             N               =SIMP(statut='o',typ='R'),
             K               =SIMP(statut='o',typ='R'),
             C               =SIMP(statut='o',typ='R'),
           ),
           MONO_VISC2      =FACT(statut='f',
             TYPE_PARA       =SIMP(statut='f',typ='TXM',into=("ECOU_VISC",),),
             N               =SIMP(statut='o',typ='R'),
             K               =SIMP(statut='o',typ='R'),
             C               =SIMP(statut='o',typ='R'),
             D               =SIMP(statut='o',typ='R'),
             A               =SIMP(statut='o',typ='R'),
           ),
           MONO_ISOT1      =FACT(statut='f',
              regles=(UN_PARMI('H','H1'),
                      PRESENT_PRESENT('H1','H2','H3','H4'),
                      PRESENT_ABSENT('H','H1','H2','H3','H4','H5','H6'),
                      ),
             TYPE_PARA       =SIMP(statut='f',typ='TXM',into=("ECRO_ISOT",),),
             R_0             =SIMP(statut='o',typ='R'),
             Q               =SIMP(statut='o',typ='R'),
             B               =SIMP(statut='o',typ='R'),
             H               =SIMP(statut='f',typ='R'),
             H1              =SIMP(statut='f',typ='R'),
             H2              =SIMP(statut='f',typ='R'),
             H3              =SIMP(statut='f',typ='R'),
             H4              =SIMP(statut='f',typ='R'),
             H5              =SIMP(statut='f',typ='R'),
             H6              =SIMP(statut='f',typ='R'),
           ),
           MONO_ISOT2      =FACT(statut='f',
              regles=(UN_PARMI('H','H1'),
                      PRESENT_PRESENT('H1','H2','H3','H4'),
                      PRESENT_ABSENT('H','H1','H2','H3','H4','H5','H6'),
                      ),
             TYPE_PARA       =SIMP(statut='f',typ='TXM',into=("ECRO_ISOT",),),
             R_0             =SIMP(statut='o',typ='R'),
             Q1              =SIMP(statut='o',typ='R'),
             B1              =SIMP(statut='o',typ='R'),
             H               =SIMP(statut='f',typ='R'),
             H1              =SIMP(statut='f',typ='R'),
             H2              =SIMP(statut='f',typ='R'),
             H3              =SIMP(statut='f',typ='R'),
             H4              =SIMP(statut='f',typ='R'),
             H5              =SIMP(statut='f',typ='R'),
             H6              =SIMP(statut='f',typ='R'),
             Q2              =SIMP(statut='o',typ='R'),
             B2              =SIMP(statut='o',typ='R'),
           ),
           MONO_CINE1      =FACT(statut='f',
             TYPE_PARA       =SIMP(statut='f',typ='TXM',into=("ECRO_CINE",),),
             D               =SIMP(statut='o',typ='R'),
           ),
           MONO_CINE2      =FACT(statut='f',
             TYPE_PARA       =SIMP(statut='f',typ='TXM',into=("ECRO_CINE",),),
             D               =SIMP(statut='o',typ='R'),
             GM              =SIMP(statut='o',typ='R'),
             PM              =SIMP(statut='o',typ='R'),
             C               =SIMP(statut='o',typ='R'),
           ),
           MONO_DD_KR      =FACT(statut='f',
              regles=(UN_PARMI('H','H1'),
                      PRESENT_PRESENT('H1','H2','H3','H4'),
                      PRESENT_ABSENT('H','H1','H2','H3','H4','H5','H6'),
                      ),
            # TYPE_PARA       =SIMP(statut='f',typ='TXM',into=("ECOU_VISC",),),
             K               =SIMP(statut='o',typ='R',fr=tr("Constante de Boltzmann, en eV/K")),
             TAUR            =SIMP(statut='o',typ='R',fr=tr("Contraintes de cisaillement à T=0K, en unite de contraintes")),
             TAU0            =SIMP(statut='o',typ='R',fr=tr("Contraintes critique initiale de cisaillement, en unite de contraintes")),
             GAMMA0          =SIMP(statut='o',typ='R',fr=tr("Vitesse d ecoulement initiale")),
             DELTAG0         =SIMP(statut='o',typ='R',fr=tr("Gain d energie lie au franchissement d obstacle")),
             BSD             =SIMP(statut='o',typ='R',fr=tr("fonction de la taille du grain B/D")),
             GCB             =SIMP(statut='o',typ='R',fr=tr("distance critique d'annihilation GC/B")),
             KDCS            =SIMP(statut='o',typ='R',fr=tr("Parametre relatif à la direction principale de la dislocation")),
             P               =SIMP(statut='o',typ='R',fr=tr("Parametre materiau dépendant de la forme de l'obstacle")),
             Q               =SIMP(statut='o',typ='R',fr=tr("Parametre materiau dépendant de la forme de l'obstacle")),
             H               =SIMP(statut='f',typ='R'),
             H1              =SIMP(statut='f',typ='R'),
             H2              =SIMP(statut='f',typ='R'),
             H3              =SIMP(statut='f',typ='R'),
             H4              =SIMP(statut='f',typ='R'),
             H5              =SIMP(statut='f',typ='R'),
             H6              =SIMP(statut='f',typ='R'),
           ),
           MONO_DD_CFC      =FACT(statut='f',
             regles=(UN_PARMI('H','H1'),
                     PRESENT_PRESENT('H1','H2','H3','H4','H5'),
                     PRESENT_ABSENT('H','H1','H2','H3','H4','H5'),
                     ),
             #TYPE_PARA       =SIMP(statut='f',typ='TXM',into=("ECOU_VISC",),),
             GAMMA0          =SIMP(statut='f',typ='R',defaut=0.001,fr=tr("Vitesse d ecoulement initiale en s**-1")),
             TAU_F           =SIMP(statut='o',typ='R',fr=tr("Contraintes , en unite de contraintes ex 20 MPa")),
             A               =SIMP(statut='f',typ='R',defaut=0.13,fr=tr("paramètre A, sans unité")),
             B               =SIMP(statut='f',typ='R',defaut=0.005,fr=tr("paramètre B, sans unité")),
             N               =SIMP(statut='f',typ='R',defaut=200.,fr=tr("paramètre n, sans unité")),
             Y               =SIMP(statut='o',typ='R',fr=tr("paramète Y, en unité de longueur ex 2.5 A")),
             ALPHA           =SIMP(statut='f',typ='R',defaut=0.35,fr=tr("ecrouissage, paramètre alpha")),
             BETA            =SIMP(statut='o',typ='R',fr=tr("ecrouissage, paramètre b, en unite de longueur")),
             RHO_REF         =SIMP(statut='o',typ='R',fr=tr("ecrouissage, paramètre rho_ref, en unité de longueur **-2")),
             H               =SIMP(statut='f',typ='R'),
             H1              =SIMP(statut='f',typ='R',defaut=0.124,fr=tr("matrice d'interaction, terme a*"),),
             H2              =SIMP(statut='f',typ='R',defaut=0.625,fr=tr("matrice d'interaction, terme a_colineaire"),),
             H3              =SIMP(statut='f',typ='R',defaut=0.137,fr=tr("matrice d'interaction, terme a_glissile"),),
             H4              =SIMP(statut='f',typ='R',defaut=0.122,fr=tr("matrice d'interaction, terme a_Lomer"),),
             H5              =SIMP(statut='f',typ='R',defaut=0.07,fr=tr("matrice d'interaction, terme a_Hirth"),),
           ),

           MONO_DD_CFC_IRRA      =FACT(statut='f',
             regles=(UN_PARMI('H','H1'),
                     PRESENT_PRESENT('H1','H2','H3','H4','H5'),
                     PRESENT_ABSENT('H','H1','H2','H3','H4','H5'),
                     ),
             #TYPE_PARA       =SIMP(statut='f',typ='TXM',into=("ECOU_VISC",),),
             GAMMA0          =SIMP(statut='f',typ='R',defaut=0.001,fr=tr("Vitesse d ecoulement initiale en s**-1")),
             TAU_F           =SIMP(statut='o',typ='R',fr=tr("Contraintes , en unite de contraintes ex 20 MPa")),
             A               =SIMP(statut='f',typ='R',defaut=0.13,fr=tr("paramètre A, sans unité")),
             B               =SIMP(statut='f',typ='R',defaut=0.005,fr=tr("paramètre B, sans unité")),
             N               =SIMP(statut='f',typ='R',defaut=200.,fr=tr("paramètre n, sans unité")),
             Y               =SIMP(statut='o',typ='R',fr=tr("paramète Y, en unité de longueur ex 2.5 A")),
             ALPHA           =SIMP(statut='f',typ='R',defaut=0.35,fr=tr("ecrouissage, paramètre alpha")),
             BETA            =SIMP(statut='o',typ='R',fr=tr("ecrouissage, paramètre b, en unite de longueur")),
             RHO_REF         =SIMP(statut='o',typ='R',fr=tr("ecrouissage, paramètre rho_ref, en unité de longueur **-2")),
             H               =SIMP(statut='f',typ='R'),
             H1              =SIMP(statut='f',typ='R',defaut=0.124,fr=tr("matrice d'interaction, terme a*"),),
             H2              =SIMP(statut='f',typ='R',defaut=0.625,fr=tr("matrice d'interaction, terme a_colineaire"),),
             H3              =SIMP(statut='f',typ='R',defaut=0.137,fr=tr("matrice d'interaction, terme a_glissile"),),
             H4              =SIMP(statut='f',typ='R',defaut=0.122,fr=tr("matrice d'interaction, terme a_Lomer"),),
             H5              =SIMP(statut='f',typ='R',defaut=0.07,fr=tr("matrice d'interaction, terme a_Hirth"),),

             DZ_IRRA         =SIMP(statut='o',typ='R',val_min=0.E+0,fr=tr("Parametre dzeta pour irradiation")),
             XI_IRRA         =SIMP(statut='o',typ='R',val_min=0.E+0,fr=tr("Parametre xi pour irradiation")),
             RHO_VOID        =SIMP(statut='o',typ='R',fr=tr("Parametre rho_voids pour irradiation")),
             PHI_LOOP        =SIMP(statut='o',typ='R',fr=tr("Parametre phi_loops pour irradiation")),
             ALP_VOID        =SIMP(statut='o',typ='R',fr=tr("Parametre alpha_voids pour irradiation")),
             ALP_LOOP        =SIMP(statut='o',typ='R',fr=tr("Parametre alpha_loops pour irradiation")),
             RHO_SAT         =SIMP(statut='o',typ='R',fr=tr("Parametre rho_sat*b*b pour irradiation")),
             PHI_SAT         =SIMP(statut='o',typ='R',fr=tr("Parametre phi_sat pour irradiation")),

           ),

           MONO_DD_FAT      =FACT(statut='f',
             regles=(UN_PARMI('H','H1'),
                     PRESENT_PRESENT('H1','H2','H3','H4','H5'),
                     PRESENT_ABSENT('H','H1','H2','H3','H4','H5'),
                     ),
             #TYPE_PARA       =SIMP(statut='f',typ='TXM',into=("ECOU_VISC",),),
             GAMMA0          =SIMP(statut='o',typ='R',fr=tr("Vitesse d ecoulement initiale en s**-1")),
             TAU_F           =SIMP(statut='o',typ='R',fr=tr("Contraintes , en unite de contraintes ex 20 MPa")),
             BETA            =SIMP(statut='o',typ='R',fr=tr("ecrouissage, paramètre b, en unite de longueur")),
             N               =SIMP(statut='o',typ='R',fr=tr("paramètre n, sans unite")),
             UN_SUR_D        =SIMP(statut='o',typ='R',fr=tr("paramètre 1/D, en unite de 1/longueur")),
             GC0             =SIMP(statut='o',typ='R',fr=tr("paramètre GC0, en unite de longueur")),
             K               =SIMP(statut='o',typ='R',fr=tr("paramètre K, sans unite")),
             H               =SIMP(statut='f',typ='R'),
             H1              =SIMP(statut='f',typ='R',defaut=0.124,fr=tr("matrice d'interaction, terme a*"),),
             H2              =SIMP(statut='f',typ='R',defaut=0.625,fr=tr("matrice d'interaction, terme a_colineaire"),),
             H3              =SIMP(statut='f',typ='R',defaut=0.137,fr=tr("matrice d'interaction, terme a_glissile"),),
             H4              =SIMP(statut='f',typ='R',defaut=0.122,fr=tr("matrice d'interaction, terme a_Lomer"),),
             H5              =SIMP(statut='f',typ='R',defaut=0.07,fr=tr("matrice d'interaction, terme a_Hirth"),),
           ),

          MONO_DD_CC      =FACT(statut='f',
             #TYPE_PARA       =SIMP(statut='f',typ='TXM',into=("ECOU_VISC",),),
             B               =SIMP(statut='o',typ='R',fr=tr("parametre B, en unite de longueur")),
             GH               =SIMP(statut='o',typ='R',fr=tr("parametre H, en unite de 1/temps")),
             DELTAG0         =SIMP(statut='o',typ='R',fr=tr("energie d'activation, en unite d'energie (eV ou J)")),
             TAU_0           =SIMP(statut='o',typ='R',fr=tr("contrainte ultime, en unite de contraintes ")),
             TAU_F           =SIMP(statut='o',typ='R',fr=tr("seuil en contrainte , en unite de contraintes")),
             GAMMA0          =SIMP(statut='o',typ='R',fr=tr("Vitesse d ecoulement initiale en s**-1")),
             N               =SIMP(statut='o',typ='R',fr=tr("parametre n, sans unite")),
             RHO_MOB         =SIMP(statut='o',typ='R',fr=tr("densite de dislocations mobiles, en unite de longueur **-2")),
             D               =SIMP(statut='o',typ='R',fr=tr("parametre D, en unite de longueur")),
             D_LAT           =SIMP(statut='o',typ='R',fr=tr("parametre D_LAT, en unite de longueur")),
             Y_AT            =SIMP(statut='o',typ='R',fr=tr("parametre Y_AT, en unite de longueur")),
             K_F             =SIMP(statut='o',typ='R',fr=tr("Parametre K_F")),
             K_SELF          =SIMP(statut='o',typ='R',fr=tr("Parametre K_SELF")),
             K_BOLTZ         =SIMP(statut='o',typ='R',fr=tr("Constante de Boltzmann, en eV/K")),
             H1              =SIMP(statut='o',typ='R',fr=tr("Parametre a_self")),
             H2              =SIMP(statut='o',typ='R',fr=tr("Parametre a_coli")),
             H3              =SIMP(statut='o',typ='R',fr=tr("Parametre a_ncol")),
             H4              =SIMP(statut='f',typ='R',defaut=0.),
             H5              =SIMP(statut='f',typ='R',defaut=0.),
             H6              =SIMP(statut='f',typ='R',defaut=0.),
             DEPDT           =SIMP(statut='f',typ='R',defaut=0.,fr=tr("parametre dEps/dT pour le calcul de DeltaG")),
             MU_MOY          =SIMP(statut='f',typ='R'),
           ),

          MONO_DD_CC_IRRA =FACT(statut='f',
             #TYPE_PARA       =SIMP(statut='f',typ='TXM',into=("ECOU_VISC",),),
             B               =SIMP(statut='o',typ='R',fr=tr("parametre B, en unite de longueur")),
             GH               =SIMP(statut='o',typ='R',fr=tr("parametre H, en unite de 1/temps")),
             DELTAG0         =SIMP(statut='o',typ='R',fr=tr("Gain d energie lie au franchissement d obstacle")),
             TAU_0           =SIMP(statut='o',typ='R',fr=tr("Contraintes , en unite de contraintes ex 20 MPa")),
             TAU_F           =SIMP(statut='o',typ='R',fr=tr("Contraintes , en unite de contraintes ex 20 MPa")),
             GAMMA0          =SIMP(statut='o',typ='R',fr=tr("Vitesse d ecoulement initiale en s**-1")),
             N               =SIMP(statut='o',typ='R',fr=tr("parametre n, sans unite")),
             RHO_MOB         =SIMP(statut='o',typ='R',fr=tr("densite de dislocations mobiles, en unite de longueur **-2")),
             D               =SIMP(statut='o',typ='R',fr=tr("parametre D, en unite de longueur")),
             D_LAT           =SIMP(statut='o',typ='R',fr=tr("parametre D_LAT, en unite de longueur")),
             Y_AT            =SIMP(statut='o',typ='R',fr=tr("parametre Y_AT, en unite de longueur")),
             K_F             =SIMP(statut='o',typ='R',fr=tr("Parametre K_F")),
             K_SELF          =SIMP(statut='o',typ='R',fr=tr("Parametre K_SELF")),
             K_BOLTZ         =SIMP(statut='o',typ='R',fr=tr("Constante de Boltzmann, en eV/K")),
             H1              =SIMP(statut='o',typ='R',fr=tr("Parametre a_self")),
             H2              =SIMP(statut='o',typ='R',fr=tr("Parametre a_coli")),
             H3              =SIMP(statut='o',typ='R',fr=tr("Parametre a_ncol")),
             H4              =SIMP(statut='f',typ='R',defaut=0.),
             H5              =SIMP(statut='f',typ='R',defaut=0.),
             H6              =SIMP(statut='f',typ='R',defaut=0.),
             DEPDT           =SIMP(statut='f',typ='R',defaut=0.,fr=tr("parametre dEps/dT pour le calcul de DeltaG")),
             A_IRRA          =SIMP(statut='o',typ='R',fr=tr("Parametre a_loops pour irradiation")),
             XI_IRRA         =SIMP(statut='o',typ='R',fr=tr("Parametre xi pour irradiation")),
             MU_MOY          =SIMP(statut='f',typ='R'),
           ),


####  FIN MONOCRISTAL

### MFRONT
           MFRONT  =FACT(statut='f',
             LISTE_COEF =SIMP(statut='f',typ='R',min=2,max='**'),
           ),

           MFRONT_FO   =FACT(statut='f',
             LISTE_COEF =SIMP(statut='f',typ=(fonction_sdaster,formule), min=2,max='**'),
           ),
### MFRONT

### UMAT
           UMAT  =FACT(statut='f',
             LISTE_COEF =SIMP(statut='f',typ='R',min=2,max='**'),
           ),

           UMAT_FO   =FACT(statut='f',
             LISTE_COEF =SIMP(statut='f',typ=(fonction_sdaster,formule), min=2,max='**'),
           ),
### UMAT

### CRITERE DE RUPTURE
           CRIT_RUPT      =FACT(statut='f',
             SIGM_C           =SIMP(statut='o',typ='R',fr=tr("contrainte critique")),
             COEF             =SIMP(statut='o',typ='R',fr=tr("E=E/COEF,si la contrainte principale max est atteinte dans l'element")),
           ),
#
### RESTAURATION D'ECROUISSAGE (ANNEALING)
           REST_ECRO      =FACT(statut='f',
             FONC_MULT =SIMP(statut='o',typ=(fonction_sdaster,nappe_sdaster,formule)),
           ),
#

           INFO            =SIMP(statut='f',typ='I',defaut=1,into=(1,2) ),
           **C_MFRONT_OFFICIAL()
)
