#& MODIF COMMANDE  DATE 09/10/2002   AUTEUR DURAND C.DURAND 
#            CONFIGURATION MANAGEMENT OF EDF VERSION
# ======================================================================
# COPYRIGHT (C) 1991 - 2001  EDF R&D                  WWW.CODE-ASTER.ORG
# THIS PROGRAM IS FREE SOFTWARE; YOU CAN REDISTRIBUTE IT AND/OR MODIFY
# IT UNDER THE TERMS OF THE GNU GENERAL PUBLIC LICENSE AS PUBLISHED BY
# THE FREE SOFTWARE FOUNDATION; EITHER VERSION 2 OF THE LICENSE, OR   
# (AT YOUR OPTION) ANY LATER VERSION.                                 
#
# THIS PROGRAM IS DISTRIBUTED IN THE HOPE THAT IT WILL BE USEFUL, BUT 
# WITHOUT ANY WARRANTY; WITHOUT EVEN THE IMPLIED WARRANTY OF          
# MERCHANTABILITY OR FITNESS FOR A PARTICULAR PURPOSE. SEE THE GNU    
# GENERAL PUBLIC LICENSE FOR MORE DETAILS.                            
#
# YOU SHOULD HAVE RECEIVED A COPY OF THE GNU GENERAL PUBLIC LICENSE   
# ALONG WITH THIS PROGRAM; IF NOT, WRITE TO EDF R&D CODE_ASTER,       
#    1 AVENUE DU GENERAL DE GAULLE, 92141 CLAMART CEDEX, FRANCE.      
# ======================================================================
# RESPONSABLE VABHHTS J.PELLET
ENGENDRE_TEST=PROC(nom="ENGENDRE_TEST",op=178,docu="U4.92.11-b",
            UIinfo={"groupes":("Impression",)},
      regles=(UN_PARMI('TOUT','CO'),),
         FICHIER         =SIMP(statut='f',typ='TXM',defaut="RESULTAT"),
         TOUT            =SIMP(statut='f',typ='TXM',into=("OUI",) ),
         CO              =SIMP(statut='f',typ=assd,max='**'),
         TYPE_TEST       =SIMP(statut='f',typ='TXM',defaut="SOMME",into=("SOMME","RESUME") ),
         FORMAT_R        =SIMP(statut='f',typ='TXM',defaut="1PE12.5"),
         PREC_R          =SIMP(statut='f',typ='TXM',defaut="1.E-5"),
)  ;
