#& MODIF COMMANDE  DATE 10/06/2004   AUTEUR REZETTE C.REZETTE 
#            CONFIGURATION MANAGEMENT OF EDF VERSION
# ======================================================================
# COPYRIGHT (C) 1991 - 2002  EDF R&D                  WWW.CODE-ASTER.ORG
# THIS PROGRAM IS FREE SOFTWARE; YOU CAN REDISTRIBUTE IT AND/OR MODIFY  
# IT UNDER THE TERMS OF THE GNU GENERAL PUBLIC LICENSE AS PUBLISHED BY  
# THE FREE SOFTWARE FOUNDATION; EITHER VERSION 2 OF THE LICENSE, OR     
# (AT YOUR OPTION) ANY LATER VERSION.                                                  
#                                                                       
# THIS PROGRAM IS DISTRIBUTED IN THE HOPE THAT IT WILL BE USEFUL, BUT   
# WITHOUT ANY WARRANTY; WITHOUT EVEN THE IMPLIED WARRANTY OF            
# MERCHANTABILITY OR FITNESS FOR A PARTICULAR PURPOSE. SEE THE GNU      
# GENERAL PUBLIC LICENSE FOR MORE DETAILS.                              
#                                                                       
# YOU SHOULD HAVE RECEIVED A COPY OF THE GNU GENERAL PUBLIC LICENSE     
# ALONG WITH THIS PROGRAM; IF NOT, WRITE TO EDF R&D CODE_ASTER,         
#    1 AVENUE DU GENERAL DE GAULLE, 92141 CLAMART CEDEX, FRANCE.        
# ======================================================================
# RESPONSABLE CAMBIER S.CAMBIER
GENE_VARI_ALEA=OPER(nom="GENE_VARI_ALEA",op=  28,sd_prod=table_sdaster,
               fr="Generateur de variable aleatoire",
               reentrant='n',
            UIinfo={"groupes":("Fonction",)},
   TYPE       = SIMP(statut='f', typ='TXM', into=("EXP_TRONQUEE", "EXPONENTIELLE", "GAMMA"), defaut="GAMMA"),
   b_gamma    =BLOC(condition = "TYPE == 'GAMMA' ",fr="Parametres loi gamma",
           VALE_MOY   = SIMP(statut='f', typ='R', defaut=1.),
           BORNE_INF  = SIMP(statut='f', typ='R', defaut=0.),
           COEF_VAR   = SIMP(statut='f', typ='R', defaut=0.1),
             ),
   b_expo    =BLOC(condition = "TYPE == 'EXPONENTIELLE' ",fr="Parametres loi exponentielle",
           VALE_MOY   = SIMP(statut='f', typ='R', defaut=0.),
           BORNE_INF  = SIMP(statut='f', typ='R', defaut=-1.),
             ),
   b_expo_tronq    =BLOC(condition = "TYPE == 'EXP_TRONQUEE' ",fr="Parametres loi exponentielle tronquee",
           VALE_MOY   = SIMP(statut='f', typ='R', defaut=0.),
           BORNE_INF  = SIMP(statut='f', typ='R', defaut=-1.),
           BORNE_SUP  = SIMP(statut='f', typ='R', defaut=1.),
           COEF_VAR   = SIMP(statut='f', typ='R', defaut=0.1),
             ),
   INIT_ALEA       =SIMP(statut='f',typ='I'),
) ;
   
