#& MODIF COMMANDE  DATE 21/01/2004   AUTEUR CIBHHLV L.VIVAN 
# RESPONSABLE VABHHTS J.PELLET
#            CONFIGURATION MANAGEMENT OF EDF VERSION
# ======================================================================
# COPYRIGHT (C) 1991 - 2001  EDF R&D                  WWW.CODE-ASTER.ORG
# THIS PROGRAM IS FREE SOFTWARE; YOU CAN REDISTRIBUTE IT AND/OR MODIFY
# IT UNDER THE TERMS OF THE GNU GENERAL PUBLIC LICENSE AS PUBLISHED BY
# THE FREE SOFTWARE FOUNDATION; EITHER VERSION 2 OF THE LICENSE, OR
# (AT YOUR OPTION) ANY LATER VERSION.
#
# THIS PROGRAM IS DISTRIBUTED IN THE HOPE THAT IT WILL BE USEFUL, BUT
# WITHOUT ANY WARRANTY; WITHOUT EVEN THE IMPLIED WARRANTY OF
# MERCHANTABILITY OR FITNESS FOR A PARTICULAR PURPOSE. SEE THE GNU
# GENERAL PUBLIC LICENSE FOR MORE DETAILS.
#
# YOU SHOULD HAVE RECEIVED A COPY OF THE GNU GENERAL PUBLIC LICENSE
# ALONG WITH THIS PROGRAM; IF NOT, WRITE TO EDF R&D CODE_ASTER,
#    1 AVENUE DU GENERAL DE GAULLE, 92141 CLAMART CEDEX, FRANCE.
#
#
# ======================================================================
TEST_RESU=PROC(nom="TEST_RESU",op=23,docu="U4.92.01-g",
            UIinfo={"groupes":("Impression",)},
         fr="Extraction d une valeur et comparaison à une valeur de référence",
         regles=(AU_MOINS_UN('CHAM_NO','CHAM_ELEM','RESU','OBJET')),
         FICHIER         =SIMP(statut='f',typ='TXM',defaut="RESULTAT"),

         CHAM_NO         =FACT(statut='f',max='**',
           regles=(UN_PARMI('NOEUD','GROUP_NO','TYPE_TEST'),
                   EXCLUS('NOEUD','GROUP_NO'),
                   PRESENT_PRESENT('NOEUD','NOM_CMP'),
                   PRESENT_PRESENT( 'GROUP_NO','NOM_CMP'),
                   UN_PARMI('VALE','VALE_I','VALE_C'),),
           CHAM_GD         =SIMP(statut='o',typ=cham_no),
           NOEUD           =SIMP(statut='f',typ=no   ),
           GROUP_NO        =SIMP(statut='f',typ=grno ),
           NOM_CMP         =SIMP(statut='f',typ='TXM'),
           TYPE_TEST       =SIMP(statut='f',typ='TXM',into=("SOMM_ABS","SOMM","MAX","MIN")),
           VALE            =SIMP(statut='f',typ='R'),
           VALE_I          =SIMP(statut='f',typ='I'),
           VALE_C          =SIMP(statut='f',typ='C'),
           CRITERE         =SIMP(statut='f',typ='TXM',defaut="RELATIF",into=("RELATIF","ABSOLU")),
           PRECISION       =SIMP(statut='f',typ='R',defaut= 1.0E-3),
           REFERENCE       =SIMP(statut='f',typ='TXM',into=("ANALYTIQUE","SOURCE_EXTERNE",
                                                            "NON_REGRESSION","AUTRE_ASTER")),
           VERSION         =SIMP(statut='f',typ='TXM'),
         ),

         CHAM_ELEM       =FACT(statut='f',max='**',
           regles=(UN_PARMI('MAILLE','TYPE_TEST',),
                   EXCLUS('NOEUD','GROUP_NO','POINT'),
                   PRESENT_PRESENT('NOEUD','NOM_CMP'),
                   PRESENT_PRESENT('GROUP_NO','NOM_CMP'),
                   PRESENT_PRESENT('POINT','NOM_CMP'),
                   UN_PARMI('VALE','VALE_I','VALE_C'), ),
           CHAM_GD         =SIMP(statut='o',typ=cham_elem),
           MAILLE          =SIMP(statut='f',typ=ma),
           POINT           =SIMP(statut='f',typ='I' ),
           SOUS_POINT      =SIMP(statut='f',typ='I'),
           NOEUD           =SIMP(statut='f',typ=no),
           GROUP_NO        =SIMP(statut='f',typ=grno),
           NOM_CMP         =SIMP(statut='f',typ='TXM',max='**'),
           TYPE_TEST       =SIMP(statut='f',typ='TXM',into=("SOMM_ABS","SOMM","MAX","MIN") ),
           VALE            =SIMP(statut='f',typ='R' ),
           VALE_I          =SIMP(statut='f',typ='I' ),
           VALE_C          =SIMP(statut='f',typ='C' ),
           CRITERE         =SIMP(statut='f',typ='TXM',defaut="RELATIF",into=("RELATIF","ABSOLU")),
           PRECISION       =SIMP(statut='f',typ='R',defaut= 1.0E-3 ),
           REFERENCE       =SIMP(statut='f',typ='TXM',into=("ANALYTIQUE","SOURCE_EXTERNE",
                                                            "NON_REGRESSION","AUTRE_ASTER") ),
           VERSION         =SIMP(statut='f',typ='TXM' ),
         ),

         RESU            =FACT(statut='f',max='**',
           regles=(UN_PARMI('NUME_ORDRE','INST','FREQ','NUME_MODE','NOEUD_CMP','NOM_CAS','ANGL'),
                   UN_PARMI('NOM_CHAM','PARA'),
                   PRESENT_ABSENT('PARA','NOEUD','GROUP_NO','POINT','NOM_CMP','TYPE_TEST'),
                   PRESENT_PRESENT('NOM_CMP','NOM_CHAM'),
                   EXCLUS('NOEUD','GROUP_NO','POINT','TYPE_TEST'),
                   PRESENT_PRESENT('NOEUD','NOM_CMP'),
                   PRESENT_PRESENT('GROUP_NO','NOM_CMP'),
                   PRESENT_PRESENT('POINT','NOM_CMP'),
                   UN_PARMI('VALE','VALE_I','VALE_C') ,),
           RESULTAT        =SIMP(statut='o',typ=resultat),
           SENSIBILITE     =SIMP(statut='f',typ=(para_sensi,theta_geom),
                                 fr="Paramètre de sensibilité.",
                                 ang="Sensitivity parameter"),
           NUME_ORDRE      =SIMP(statut='f',typ='I'),
           INST            =SIMP(statut='f',typ='R'),
           FREQ            =SIMP(statut='f',typ='R'),
           NUME_MODE       =SIMP(statut='f',typ='I'),
           NOEUD_CMP       =SIMP(statut='f',typ='TXM',max='**'),
           NOM_CAS         =SIMP(statut='f',typ='TXM'),
           ANGL            =SIMP(statut='f',typ='R'),
           PARA            =SIMP(statut='f',typ='TXM'),
           NOM_CHAM        =SIMP(statut='f',typ='TXM',into=C_NOM_CHAM_INTO()),
           NOM_CMP         =SIMP(statut='f',typ='TXM',max='**'),
           MAILLE          =SIMP(statut='f',typ=ma   ,max='**'),
           NOEUD           =SIMP(statut='f',typ=no   ,max='**'),
           GROUP_NO        =SIMP(statut='f',typ=grno ,max='**'),
           POINT           =SIMP(statut='f',typ='I'),
           SOUS_POINT      =SIMP(statut='f',typ='I'),
           TYPE_TEST       =SIMP(statut='f',typ='TXM',into=("SOMM_ABS","SOMM","MAX","MIN")),
           VALE            =SIMP(statut='f',typ='R'),
           VALE_I          =SIMP(statut='f',typ='I'),
           VALE_C          =SIMP(statut='f',typ='C'),
           CRITERE         =SIMP(statut='f',typ='TXM',into=("RELATIF","ABSOLU"),max=2),
           PRECISION       =SIMP(statut='f',typ='R',max=2),
           REFERENCE       =SIMP(statut='f',typ='TXM',into=("ANALYTIQUE","SOURCE_EXTERNE",
                                                            "NON_REGRESSION","AUTRE_ASTER",) ),
           VERSION         =SIMP(statut='f',typ='TXM' ),
         ),

         OBJET           =FACT(statut='f',max='**',
           regles=(UN_PARMI('S_I','S_R','RESUME',),
                   UN_PARMI('VALE','VALE_I','VALE_C','RESUME','S_R','S_I'),),
           NOM             =SIMP(statut='o',typ='TXM'),
           S_R             =SIMP(statut='f',typ='R'),
           S_I             =SIMP(statut='f',typ='I'),
           RESUME          =SIMP(statut='f',typ='I'),
           VALE            =SIMP(statut='f',typ='R'),
           VALE_I          =SIMP(statut='f',typ='I'),
           VALE_C          =SIMP(statut='f',typ='C'),
           CRITERE         =SIMP(statut='f',typ='TXM',defaut="RELATIF",into=("RELATIF","ABSOLU")),
           PRECISION       =SIMP(statut='f',typ='R',defaut=1.0E-3 ),
           REFERENCE       =SIMP(statut='f',typ='TXM',into=("ANALYTIQUE","SOURCE_EXTERNE",
                                                            "NON_REGRESSION","AUTRE_ASTER",) ),
           VERSION         =SIMP(statut='f',typ='TXM' ),
         ),
)  ;
