# MODIF  DATE 07/06/2002   AUTEUR DURAND C.DURAND 
# TITRE PISTON COUPLE A UNE COLONNE DE FLUIDE
#            CONFIGURATION MANAGEMENT OF EDF VERSION
# ======================================================================
# COPYRIGHT (C) 1991 - 2001  EDF R&D                  WWW.CODE-ASTER.ORG
# THIS PROGRAM IS FREE SOFTWARE; YOU CAN REDISTRIBUTE IT AND/OR MODIFY
# IT UNDER THE TERMS OF THE GNU GENERAL PUBLIC LICENSE AS PUBLISHED BY
# THE FREE SOFTWARE FOUNDATION; EITHER VERSION 2 OF THE LICENSE, OR   
# (AT YOUR OPTION) ANY LATER VERSION.                                 
#
# THIS PROGRAM IS DISTRIBUTED IN THE HOPE THAT IT WILL BE USEFUL, BUT 
# WITHOUT ANY WARRANTY; WITHOUT EVEN THE IMPLIED WARRANTY OF          
# MERCHANTABILITY OR FITNESS FOR A PARTICULAR PURPOSE. SEE THE GNU    
# GENERAL PUBLIC LICENSE FOR MORE DETAILS.                            
#
# YOU SHOULD HAVE RECEIVED A COPY OF THE GNU GENERAL PUBLIC LICENSE   
# ALONG WITH THIS PROGRAM; IF NOT, WRITE TO EDF R&D CODE_ASTER,       
#    1 AVENUE DU GENERAL DE GAULLE, 92141 CLAMART CEDEX, FRANCE.      
# ======================================================================
# AVEC MODELISATION AXIS ELEMENTS TRIA6 ET SEG3
# VALIDATION INDEPENDANTE PAR LMS_NT (J.P.ROSSION)
#
DEBUT(CODE=_F( NOM = 'ADLV100M',NIV_PUB_WEB='INTERNET'))

PRE_IDEAS()

#
MA=LIRE_MAILLAGE()

MO=AFFE_MODELE(
         MAILLAGE=MA,AFFE=( 
         _F( GROUP_MA = ('TRIAEAU', 'TRIAAIR',),
                   MODELISATION = 'AXIS_FLUIDE', PHENOMENE = 'MECANIQUE'),
         _F( GROUP_MA = ('LINEAU', 'LINAIR',),
                   MODELISATION = 'AXIS_FLUI_STRU',
                   PHENOMENE = 'MECANIQUE'),
         _F( GROUP_MA = 'TRIAPIST',
                   MODELISATION = 'AXIS', PHENOMENE = 'MECANIQUE'))
         )

#
# PROPRIETES MECANIQUES
#
AIR=DEFI_MATERIAU(
          FLUIDE=_F( RHO = 1.2,
                CELE_R = 340.0)
         )

EAU=DEFI_MATERIAU(
          FLUIDE=_F( RHO = 1000.,
                CELE_R = 1400.0)
         )

ACIER=DEFI_MATERIAU(
          ELAS=_F( RHO = 7800.,
              NU = 0.3,
                E = 2.E+11)
         )

CHM=AFFE_MATERIAU(
         MAILLAGE=MA,AFFE=( 
         _F( GROUP_MA = ('TRIAEAU', 'LINEAU',),
              MATER = EAU),
         _F( GROUP_MA = ('TRIAAIR', 'LINAIR',),
              MATER = AIR),
         _F( GROUP_MA = 'TRIAPIST',
              MATER = ACIER))
         )

#
# CONDITIONS AUX LIMITES
#
SURFLIBR=AFFE_CHAR_MECA(
         MODELE=MO,
         DDL_IMPO=_F( GROUP_NO = 'SURFLIB',
                    PRES = 0., PHI = 0.)
         )

GUIDAGE=AFFE_CHAR_MECA(
         MODELE=MO,
         DDL_IMPO=_F( GROUP_NO = 'NOEUDPIS',
                    DX = 0.)
         )

#
# MATRICES ELEMENTAIRES
#
MK=CALC_MATR_ELEM(
         OPTION='RIGI_MECA',
         MODELE=MO,
         CHAM_MATER=CHM,
         CHARGE=(SURFLIBR, GUIDAGE,)
        )

MM=CALC_MATR_ELEM(
         OPTION='MASS_MECA',
         MODELE=MO,
         CHAM_MATER=CHM,
         CHARGE=(SURFLIBR, GUIDAGE,)
        )

NDDL=NUME_DDL(
         MATR_RIGI=MK
        )

#
# ASSEMBLAGE
#
MATK=ASSE_MATRICE(
         MATR_ELEM=MK,
         NUME_DDL=NDDL
        )

MATM=ASSE_MATRICE(
         MATR_ELEM=MM,
         NUME_DDL=NDDL
        )

#
# CALCUL DES MODES
#
MODES=MODE_ITER_INV(  MATR_A=MATK,
                        MATR_B=MATM,
                        CALC_FREQ=_F( OPTION = 'AJUSTE',
                                   FREQ = (10., 20.,))
                         )

TEST_RESU(
          RESU=_F( RESULTAT = MODES,
           PARA = 'FREQ',
           CRITERE = 'RELATIF',
           PRECISION = 5.E-3,
           NUME_ORDRE = 1,
           VALE = 13.8285)
          )

FIN()
#
