# TITRE PROBLEME DE COUPLAGE CAVITE-PLAQUE
# ======================================================================
# COPYRIGHT (C) 1991 - 2013  EDF R&D                  WWW.CODE-ASTER.ORG
# THIS PROGRAM IS FREE SOFTWARE; YOU CAN REDISTRIBUTE IT AND/OR MODIFY
# IT UNDER THE TERMS OF THE GNU GENERAL PUBLIC LICENSE AS PUBLISHED BY
# THE FREE SOFTWARE FOUNDATION; EITHER VERSION 2 OF THE LICENSE, OR   
# (AT YOUR OPTION) ANY LATER VERSION.                                 
#
# THIS PROGRAM IS DISTRIBUTED IN THE HOPE THAT IT WILL BE USEFUL, BUT 
# WITHOUT ANY WARRANTY; WITHOUT EVEN THE IMPLIED WARRANTY OF          
# MERCHANTABILITY OR FITNESS FOR A PARTICULAR PURPOSE. SEE THE GNU    
# GENERAL PUBLIC LICENSE FOR MORE DETAILS.                            
#
# YOU SHOULD HAVE RECEIVED A COPY OF THE GNU GENERAL PUBLIC LICENSE   
# ALONG WITH THIS PROGRAM; IF NOT, WRITE TO EDF R&D CODE_ASTER,       
#    1 AVENUE DU GENERAL DE GAULLE, 92141 CLAMART CEDEX, FRANCE.      
# ======================================================================
# E.F. VIBRO-ACOUSTIQUES HEXA8 ET QUAD4
# VALIDATION INDEPENDANTE PAR LMS_NT (J.P.ROSSION)
#
DEBUT(CODE=_F(NIV_PUB_WEB='INTERNET'))
#
MA=LIRE_MAILLAGE(FORMAT='MED',)

MO=AFFE_MODELE(
         MAILLAGE=MA,AFFE=( 
         _F( GROUP_MA = 'FLUIDE',
                   MODELISATION = '3D_FLUIDE', PHENOMENE = 'MECANIQUE'),
         _F( GROUP_MA = 'INTER',
                   MODELISATION = 'FLUI_STRU', PHENOMENE = 'MECANIQUE'),
         _F( GROUP_MA = 'PLAQUE',
                   MODELISATION = 'DKT', PHENOMENE = 'MECANIQUE'))
         )

#
# PROPRIETES MECANIQUES
#
AIR=DEFI_MATERIAU(
          FLUIDE=_F( RHO = 1.2,
                CELE_R = 340.0)
         )

ACIER=DEFI_MATERIAU(
          ELAS=_F( RHO = 7800.,
              NU = 0.3,
                E = 2.E+11)
         )

CARAPLA=AFFE_CARA_ELEM(
            MODELE=MO,
            COQUE=_F( GROUP_MA = 'PLAQUE',
                   EPAIS = 0.005)
          )

CHM=AFFE_MATERIAU(
         MAILLAGE=MA,AFFE=( 
         _F( GROUP_MA = ('FLUIDE', 'INTER',),
              MATER = AIR),
         _F( GROUP_MA = 'PLAQUE',
              MATER = ACIER))
         )

#
# CONDITIONS AUX LIMITES
#
DDLIMP=AFFE_CHAR_MECA(
         MODELE=MO,
          DDL_IMPO=_F( GROUP_NO = 'NOEUDF',
                    DX = 0., DY = 0., DZ = 0.)
         )

FORCE=AFFE_CHAR_MECA(
         MODELE=MO,
         FORCE_NODALE=_F( GROUP_NO = 'N1',
                      FZ = 1.)
         )

#
# MATRICES ELEMENTAIRES
#
MK=CALC_MATR_ELEM(
         OPTION='RIGI_MECA',
         MODELE=MO,
         CHAM_MATER=CHM,
         CARA_ELEM=CARAPLA,
         CHARGE=(DDLIMP, FORCE,)
        )

MM=CALC_MATR_ELEM(
         OPTION='MASS_MECA',
         MODELE=MO,
         CHAM_MATER=CHM,
         CARA_ELEM=CARAPLA,
         CHARGE=(DDLIMP, FORCE,)
        )

NDDL=NUME_DDL(
         MATR_RIGI=MK,
         RENUM='METIS'
        #METHODE: 'LDLT' 
        )

VECTELEM=CALC_VECT_ELEM( 
               OPTION='CHAR_MECA',
               CHAM_MATER=CHM,
               CHARGE=(DDLIMP, FORCE,)
           )

#
# ASSEMBLAGE
#
MATK=ASSE_MATRICE(
         MATR_ELEM=MK,
         NUME_DDL=NDDL
        )

MATM=ASSE_MATRICE(
         MATR_ELEM=MM,
         NUME_DDL=NDDL
        )

VECTASS=ASSE_VECTEUR( 
               VECT_ELEM=VECTELEM,
               NUME_DDL=NDDL
          )

#
# REPONSE HARMONIQUE
#
DYNAHARM=DYNA_VIBRA(TYPE_CALCUL='HARM',BASE_CALCUL='PHYS', 
               MATR_RIGI=MATK,
               MATR_MASS=MATM,
               FREQ=100.,
               EXCIT=_F( VECT_ASSE = VECTASS,
                      COEF_MULT = 1.,
                      PUIS_PULS = 0,
                      PHAS_DEG = 0.)
           )

TEST_RESU(RESU=(_F(NUME_ORDRE=1,
                   VALE_CALC_C=-0.0685016+0j,
                   RESULTAT=DYNAHARM,
                   NOM_CHAM='DEPL',
                   GROUP_NO='N1',
                   NOM_CMP='PRES',),
                _F(NUME_ORDRE=1,
                   VALE_CALC_C=-0.02507196+0j,
                   VALE_REFE_C=(-0.02536+0j),
                   REFERENCE='NON_DEFINI',
                   RESULTAT=DYNAHARM,
                   NOM_CHAM='DEPL',
                   GROUP_NO='N2',
                   NOM_CMP='PRES',
                   PRECISION=0.02,),
                _F(NUME_ORDRE=1,
                   VALE_CALC_C=0.09240108+0.0j,
                   VALE_REFE_C=(0.092240+0j),
                   REFERENCE='NON_DEFINI',
                   RESULTAT=DYNAHARM,
                   NOM_CHAM='DEPL',
                   GROUP_NO='N3',
                   NOM_CMP='PRES',
                   PRECISION=2.E-3,),
                ),
          )

FIN()
#
