# TITRE PISTON COUPLE A UNE COLONNE DE FLUIDE
# ======================================================================
# COPYRIGHT (C) 1991 - 2013  EDF R&D                  WWW.CODE-ASTER.ORG
# THIS PROGRAM IS FREE SOFTWARE; YOU CAN REDISTRIBUTE IT AND/OR MODIFY
# IT UNDER THE TERMS OF THE GNU GENERAL PUBLIC LICENSE AS PUBLISHED BY
# THE FREE SOFTWARE FOUNDATION; EITHER VERSION 2 OF THE LICENSE, OR
# (AT YOUR OPTION) ANY LATER VERSION.
#
# THIS PROGRAM IS DISTRIBUTED IN THE HOPE THAT IT WILL BE USEFUL, BUT
# WITHOUT ANY WARRANTY; WITHOUT EVEN THE IMPLIED WARRANTY OF
# MERCHANTABILITY OR FITNESS FOR A PARTICULAR PURPOSE. SEE THE GNU
# GENERAL PUBLIC LICENSE FOR MORE DETAILS.
#
# YOU SHOULD HAVE RECEIVED A COPY OF THE GNU GENERAL PUBLIC LICENSE
# ALONG WITH THIS PROGRAM; IF NOT, WRITE TO EDF R&D CODE_ASTER,
#    1 AVENUE DU GENERAL DE GAULLE, 92141 CLAMART CEDEX, FRANCE.
# ======================================================================

#      PISTON COUPLE A UNE COLONNE DE FLUIDE
#              CAS TEST ADLV100A

DEBUT(CODE=_F( NOM = 'ADLV100A',NIV_PUB_WEB='INTERNET'),DEBUG=_F(SDVERI='OUI'),
      RESERVE_CPU=_F(VALE=60))

MAYA=LIRE_MAILLAGE(FORMAT='MED', )

EAU=DEFI_MATERIAU( FLUIDE=_F( RHO = 1000.,  CELE_R = 1400.))

AIR=DEFI_MATERIAU( FLUIDE=_F( RHO = 1.2,    CELE_R = 340.))

ACIER=DEFI_MATERIAU( ELAS=_F( RHO = 7800.,  NU = 0.3,  E = 2.E+11))

CHAMPMAT=AFFE_MATERIAU(  MAILLAGE=MAYA,AFFE=(
                       _F( GROUP_MA = ('HEXAEAU',  'COUPEAU',),  MATER = EAU),
                       _F( GROUP_MA = ('HEXAAIR',  'COUPAIR',),  MATER = AIR),
                       _F( GROUP_MA = 'HEXAPIST',           MATER = ACIER))
                            )

COLONNE=AFFE_MODELE( MAILLAGE=MAYA,  VERIF='MAILLE',AFFE=(
                     _F( GROUP_MA = ('HEXAEAU',  'HEXAAIR',),
                       MODELISATION = '3D_FLUIDE',  PHENOMENE = 'MECANIQUE'),
                     _F( GROUP_MA = ('COUPEAU',  'COUPAIR',),
                       MODELISATION = 'FLUI_STRU',  PHENOMENE = 'MECANIQUE'),
                     _F( GROUP_MA = 'HEXAPIST',
                       MODELISATION = '3D',         PHENOMENE = 'MECANIQUE'))
                          )

SURFLIBR=AFFE_CHAR_MECA( MODELE=COLONNE,
                    DDL_IMPO=_F( GROUP_NO = 'NOEUSURF',  PRES = 0.,  PHI = 0.))

GUIDAGE=AFFE_CHAR_MECA( MODELE=COLONNE,
                    DDL_IMPO=_F( GROUP_NO = 'NOEUPIST',  DY = 0.,  DZ = 0.))

MATELE_K=CALC_MATR_ELEM( MODELE=COLONNE,
                              CHAM_MATER=CHAMPMAT,  OPTION='RIGI_MECA',
                              CHARGE=(SURFLIBR,  GUIDAGE,))

MATELE_M=CALC_MATR_ELEM( MODELE=COLONNE,
                              CHAM_MATER=CHAMPMAT,  OPTION='MASS_MECA',
                              CHARGE=(SURFLIBR, GUIDAGE,))

NUM=NUME_DDL( MATR_RIGI=MATELE_K)

MATASK=ASSE_MATRICE(MATR_ELEM=MATELE_K,NUME_DDL=NUM)

MATASM=ASSE_MATRICE(MATR_ELEM=MATELE_M,NUME_DDL=NUM)

MODES=MODE_ITER_INV( MATR_RIGI=MATASK,  MATR_MASS=MATASM,
                             CALC_FREQ=_F( OPTION = 'AJUSTE',
                                        FREQ = (10., 20.,))
                            )


MASSES=POST_ELEM(
                             MODELE=COLONNE,
                         CHAM_MATER=CHAMPMAT,
                          MASS_INER=_F(
                                      TOUT = 'OUI')
                     )

TEST_TABLE(
           VALE_CALC=0.61272499999999996,

           NOM_PARA='MASSE',
           TABLE=MASSES,)

TEST_TABLE(
           VALE_CALC=0.054868109999999998,
           TOLE_MACHINE=9.9999999999999995E-08,
           NOM_PARA='CDG_X',
           TABLE=MASSES,)

TEST_TABLE(
           VALE_CALC=2.55302083E-4,

           NOM_PARA='IX_G',
           TABLE=MASSES,)

TEST_TABLE(
           VALE_CALC=3.1984386000000003E-4,
           TOLE_MACHINE=9.9999999999999995E-08,
           NOM_PARA='IY_G',
           TABLE=MASSES,)

TEST_TABLE(
           VALE_CALC=3.1984386000000003E-4,
           TOLE_MACHINE=9.9999999999999995E-08,
           NOM_PARA='IZ_G',
           TABLE=MASSES,)

TEST_RESU(RESU=_F(NUME_ORDRE=1,
                  PARA='FREQ',
                  RESULTAT=MODES,
                  VALE_CALC=13.827697948,
                  VALE_REFE=13.82,
                  REFERENCE='NON_DEFINI',
                  CRITERE='RELATIF',
                  PRECISION=5.0000000000000001E-3,),
          )

FIN()
#
