# MODIF  DATE 21/02/2012   AUTEUR MACOCCO K.MACOCCO 
# TITRE GUIDE D'ONDE A SORTIE ANECHOIQUE (ONDES PLANES) E.F. CLASSIQUES
#            CONFIGURATION MANAGEMENT OF EDF VERSION
# ======================================================================
# COPYRIGHT (C) 1991 - 2012  EDF R&D                  WWW.CODE-ASTER.ORG
# THIS PROGRAM IS FREE SOFTWARE; YOU CAN REDISTRIBUTE IT AND/OR MODIFY
# IT UNDER THE TERMS OF THE GNU GENERAL PUBLIC LICENSE AS PUBLISHED BY
# THE FREE SOFTWARE FOUNDATION; EITHER VERSION 2 OF THE LICENSE, OR
# (AT YOUR OPTION) ANY LATER VERSION.
#
# THIS PROGRAM IS DISTRIBUTED IN THE HOPE THAT IT WILL BE USEFUL, BUT
# WITHOUT ANY WARRANTY; WITHOUT EVEN THE IMPLIED WARRANTY OF
# MERCHANTABILITY OR FITNESS FOR A PARTICULAR PURPOSE. SEE THE GNU
# GENERAL PUBLIC LICENSE FOR MORE DETAILS.
#
# YOU SHOULD HAVE RECEIVED A COPY OF THE GNU GENERAL PUBLIC LICENSE
# ALONG WITH THIS PROGRAM; IF NOT, WRITE TO EDF R&D CODE_ASTER,
#    1 AVENUE DU GENERAL DE GAULLE, 92141 CLAMART CEDEX, FRANCE.
# ======================================================================
#  MODELISATION 'ACOUSTIQUE' AVEC ELEMENTS HEXA20 ET FACE8
#  GUIDE D'ONDE ACOUSTIQUE EN E.F. CLASSIQUES
#

DEBUT(CODE=_F( NOM = 'AHLV100A',NIV_PUB_WEB='INTERNET'),DEBUG=_F(SDVERI='OUI'),)

F=500.

MAIL=LIRE_MAILLAGE(FORMAT='MED', )

AIR=DEFI_MATERIAU( FLUIDE=_F( RHO = 1.3, CELE_C = ('RI',343.,0.,)))

CHAMPMAT=AFFE_MATERIAU(  MAILLAGE=MAIL,
                                 AFFE=_F( TOUT = 'OUI',  MATER = AIR) )

GUIDE=AFFE_MODELE(  MAILLAGE=MAIL,     VERIF='MAILLE',
                            AFFE=_F( TOUT = 'OUI', MODELISATION = '3D',
                                     PHENOMENE = 'ACOUSTIQUE') )

CHARACOU=AFFE_CHAR_ACOU(      MODELE=GUIDE,
                 VITE_FACE=_F( GROUP_MA = 'ENTREE', VNOR = ('RI',0.014,0.,)))

IMPEACOU=AFFE_CHAR_ACOU(      MODELE=GUIDE,
                 IMPE_FACE=_F( GROUP_MA = 'SORTIE', IMPE = ('RI',445.9,0.,)))

MACRO_MATR_ASSE(
                      MODELE=GUIDE,         CHARGE=IMPEACOU,
                      CHAM_MATER=CHAMPMAT,
                      NUME_DDL=CO("NUM"),MATR_ASSE=(
                      _F(  MATRICE = CO("MATASK"), OPTION = 'RIGI_ACOU'),
                                _F(  MATRICE = CO("MATASM"), OPTION = 'MASS_ACOU'),
                                _F(  MATRICE = CO("MATASI"), OPTION = 'AMOR_ACOU'))
                   )

#

VECTELEM=CALC_VECT_ELEM(   OPTION='CHAR_ACOU',  CHAM_MATER=CHAMPMAT,
                                CHARGE=CHARACOU )


VECTASS=ASSE_VECTEUR(  VECT_ELEM=VECTELEM,   NUME_DDL=NUM )

#
#  ____________________CALCUL DES MODES_________________________________
#

MATASKR=COMB_MATR_ASSE(    COMB_R=_F( MATR_ASSE = MATASK,  PARTIE = 'REEL', COEF_R = 1.))

MATASMR=COMB_MATR_ASSE(    COMB_R=_F( MATR_ASSE = MATASM,  PARTIE = 'REEL', COEF_R = 1.))

#

MODES=MODE_ITER_SIMULT(      MATR_A=MATASKR,
                                     MATR_B=MATASMR,
                                  CALC_FREQ=_F( OPTION = 'BANDE',
                                             FREQ = ( 1., 1000.,))
                               )

TEST_RESU(RESU=(_F( RESULTAT = MODES,  PARA = 'FREQ',
                    CRITERE = 'RELATIF',  PRECISION = 1.E-4,
                    NUME_ORDRE = 1,  VALE = 171.5),
              _F( RESULTAT = MODES,  PARA = 'FREQ',
                    CRITERE = 'RELATIF',  PRECISION = 1.E-4,
                    NUME_ORDRE = 2,  VALE = 343.),
              _F( RESULTAT = MODES,  PARA = 'FREQ',
                    CRITERE = 'RELATIF',  PRECISION = 1.E-3,
                    NUME_ORDRE = 3,  VALE = 514.5),
              _F( RESULTAT = MODES,  PARA = 'FREQ',
                    CRITERE = 'RELATIF',  PRECISION = 1.E-2,
                    NUME_ORDRE = 4,  VALE = 686.),
              _F( RESULTAT = MODES,  PARA = 'FREQ',
                    CRITERE = 'RELATIF',  PRECISION = 1.E-3,
                    NUME_ORDRE = 5,  VALE = 857.5),
              _F( RESULTAT = MODES,  PARA = 'FREQ',
                    CRITERE = 'RELATIF',  PRECISION = 5.E-3,
                    NUME_ORDRE = 6,  VALE = 857.5),
              _F( RESULTAT = MODES,  PARA = 'FREQ',
                    CRITERE = 'RELATIF',  PRECISION = 5.E-3,
                    NUME_ORDRE = 7,  VALE = 874.482),
              _F( RESULTAT = MODES,  PARA = 'FREQ',
                    CRITERE = 'RELATIF',  PRECISION = 5.E-3,
                    NUME_ORDRE = 8,  VALE = 923.556))
             )

IMPR_RESU(RESU=_F(RESULTAT=MODES,NUME_ORDRE=2),)
IMPR_RESU(FORMAT='MED',RESU=_F(RESULTAT=MODES,NUME_ORDRE=2),)


#  ----------------------CALCUL DECOMPOSE-------------------------------
#

MATRES=COMB_MATR_ASSE( COMB_C=(   _F( MATR_ASSE = MATASK,
                                        COEF_R = 1.),
                                       _F( MATR_ASSE = MATASM,
                                        COEF_R = -9869604.4),
                                       _F( MATR_ASSE = MATASI,
                                        COEF_C = ('RI',0.,3141.5926,)))
                            )



VECRES=CREA_CHAMP(OPERATION='ASSE',TYPE_CHAM='NOEU_PRES_C',MODELE=GUIDE,NUME_DDL=NUM ,
              ASSE=_F(CHAM_GD=VECTASS,CUMUL='NON',TOUT='OUI',COEF_C=('RI',0.,-3141.5926,)))


MATRES=FACTORISER( reuse=MATRES,  MATR_ASSE=MATRES )

VECRES=RESOUDRE( INFO=2,reuse=VECRES,  MATR=MATRES,
                             CHAM_NO=VECRES
                        )

TEST_RESU(CHAM_NO=(
             _F( CHAM_GD = VECRES,
              NOEUD = 'NO1',   NOM_CMP = 'PRES', VALE_C = ('RI',-6.2426,0.,)),
             _F( CHAM_GD = VECRES,
              NOEUD = 'NO780', NOM_CMP = 'PRES', VALE_C = ('RI',-6.2426,0.,)),
             _F( CHAM_GD = VECRES,
              NOEUD = 'NO751', NOM_CMP = 'PRES', VALE_C = ('RI',6.02368,1.6387,)),
             _F( CHAM_GD = VECRES,
              NOEUD = 'NO763', NOM_CMP = 'PRES', VALE_C = ('RI',6.02368,1.6387,)))
             )

CHPRAC=CALC_CHAM_ELEM(      MODELE=GUIDE,
                               PRES=VECRES,  OPTION='PRAC_ELNO' )

TEST_RESU(CHAM_ELEM=(
             _F( CHAM_GD = CHPRAC,
              MAILLE = 'MA1',
              NOEUD = 'NO1',   NOM_CMP = 'DB',  VALE = 109.9),
             _F( CHAM_GD = CHPRAC,
              MAILLE = 'MA1',
              NOEUD = 'NO780', NOM_CMP = 'DB',  VALE = 109.9),
             _F( CHAM_GD = CHPRAC,
              MAILLE = 'MA57',
              NOEUD = 'NO751', NOM_CMP = 'DB',  VALE = 109.9),
             _F( CHAM_GD = CHPRAC,
              MAILLE = 'MA57',
              NOEUD = 'NO763', NOM_CMP = 'DB',  VALE = 109.9))
             )


TEST_RESU(CHAM_ELEM=(
             _F( CHAM_GD = CHPRAC,   MAILLE = 'MA1',
              NOEUD = 'NO1',   NOM_CMP = 'PRES_R', VALE = -6.2426),
             _F( CHAM_GD = CHPRAC,  MAILLE = 'MA1',
              NOEUD = 'NO780', NOM_CMP = 'PRES_R', VALE = -6.2426),
             _F( CHAM_GD = CHPRAC, MAILLE = 'MA57',
              NOEUD = 'NO751', NOM_CMP = 'PRES_R', VALE = 6.02368),
             _F( CHAM_GD = CHPRAC, MAILLE = 'MA57',
              NOEUD = 'NO763', NOM_CMP = 'PRES_R', VALE = 6.02368))
             )

TEST_RESU(CHAM_ELEM=(
           _F( CHAM_GD = CHPRAC,  MAILLE = 'MA1',
            NOEUD = 'NO1',   NOM_CMP = 'PRES_I', VALE = 0., CRITERE = 'ABSOLU'),
           _F( CHAM_GD = CHPRAC, MAILLE = 'MA1',
            NOEUD = 'NO780', NOM_CMP = 'PRES_I', VALE = 0., CRITERE = 'ABSOLU'),
           _F( CHAM_GD = CHPRAC, MAILLE = 'MA57',
            NOEUD = 'NO751', NOM_CMP = 'PRES_I', VALE = 1.6387, PRECISION = 3.3E-3),
           _F( CHAM_GD = CHPRAC, MAILLE = 'MA57',
            NOEUD = 'NO763', NOM_CMP = 'PRES_I', VALE = 1.6387, PRECISION = 3.3E-3))
             )


#-----------------------CALCUL HARMONIQUE-------------------------------


PRESHARM=DYNA_VIBRA(TYPE_CALCUL='HARM',BASE_CALCUL='PHYS',
                             MATR_MASS=MATASM,  MATR_RIGI=MATASK,
                             MATR_AMOR=MATASI,
                             FREQ=F,
                             EXCIT=_F( VECT_ASSE = VECTASS,  COEF_MULT = -1.,
                                    PUIS_PULS = 1,  PHAS_DEG = 90.))

TEST_RESU(RESU=(
             _F( RESULTAT = PRESHARM,  NOM_CHAM = 'PRES',  NUME_ORDRE = 1,
              NOEUD = 'NO1',  NOM_CMP = 'PRES', VALE_C = ('RI',-6.2426,0.,)),
             _F( RESULTAT = PRESHARM,  NOM_CHAM = 'PRES',  NUME_ORDRE = 1,
              NOEUD = 'NO780', NOM_CMP = 'PRES', VALE_C = ('RI',-6.2426,0.,)),
             _F( RESULTAT = PRESHARM,  NOM_CHAM = 'PRES',  NUME_ORDRE = 1,
              NOEUD = 'NO751', NOM_CMP = 'PRES', VALE_C = ('RI',6.02368,1.6387,)),
             _F( RESULTAT = PRESHARM,  NOM_CHAM = 'PRES',  NUME_ORDRE = 1,
              NOEUD = 'NO763',  NOM_CMP = 'PRES', VALE_C = ('RI',6.02368,1.6387,)))
             )

IMPR_RESU(FORMAT='RESULTAT',
          RESU=_F(RESULTAT=PRESHARM,  NOM_CHAM = 'PRES',  NUME_ORDRE = 1,NOM_CMP = 'PRES',
                  ),)

IMPR_RESU(FORMAT='MED',
          RESU=(_F(RESULTAT=PRESHARM,  NOM_CHAM = 'PRES',  NUME_ORDRE = 1,
                  PARTIE='REEL',NOM_CMP='PRES',NOM_CHAM_MED='PRESHARM_DEPL_PRES_REEL'),
                _F(RESULTAT=PRESHARM,  NOM_CHAM = 'PRES',  NUME_ORDRE = 1,
                  PARTIE='IMAG',NOM_CMP='PRES',NOM_CHAM_MED='PRESHARM_DEPL_PRES_IMAG'),),);


PRESHARM=CALC_CHAMP( reuse=PRESHARM,
                            TOUT_ORDRE='OUI',
                             RESULTAT=PRESHARM,
                                ACOUSTIQUE=('INTE_ELNO')
           )

TEST_RESU(RESU=(
            # INTX_R :
           _F( RESULTAT = PRESHARM,  NOM_CHAM = 'INTE_ELNO', NUME_ORDRE = 1, MAILLE = 'MA1',
            NOEUD = 'NO1',  NOM_CMP = 'INTX_R',  VALE = 0.04370, PRECISION = 3.E-2),
           _F( RESULTAT = PRESHARM,  NOM_CHAM = 'INTE_ELNO', NUME_ORDRE = 1, MAILLE = 'MA1',
            NOEUD = 'NO780', NOM_CMP = 'INTX_R',  VALE = 0.04370, PRECISION = 3.E-2),
           _F( RESULTAT = PRESHARM,  NOM_CHAM = 'INTE_ELNO', NUME_ORDRE = 1, MAILLE = 'MA57',
            NOEUD = 'NO751', NOM_CMP = 'INTX_R',  VALE = 0.04370, PRECISION = 3.E-2),
           _F( RESULTAT = PRESHARM,  NOM_CHAM = 'INTE_ELNO', NUME_ORDRE = 1, MAILLE = 'MA57',
            NOEUD = 'NO763', NOM_CMP = 'INTX_R',  VALE = 0.04370, PRECISION = 3.E-2),

            # INTX_I :
           _F( RESULTAT = PRESHARM,  NOM_CHAM = 'INTE_ELNO', NUME_ORDRE = 1, MAILLE = 'MA1',
            NOEUD = 'NO1',   NOM_CMP = 'INTX_I',  VALE = 0.0, PRECISION = 3.5E-4, CRITERE = 'ABSOLU'),
           _F( RESULTAT = PRESHARM,  NOM_CHAM = 'INTE_ELNO', NUME_ORDRE = 1, MAILLE = 'MA1',
            NOEUD = 'NO780', NOM_CMP = 'INTX_I',  VALE = 0.0, PRECISION = 3.5E-4, CRITERE = 'ABSOLU'),
           _F( RESULTAT = PRESHARM,  NOM_CHAM = 'INTE_ELNO', NUME_ORDRE = 1, MAILLE = 'MA57',
            NOEUD = 'NO751', NOM_CMP = 'INTX_I',  VALE = 0.0, PRECISION = 3.5E-4, CRITERE = 'ABSOLU'),
           _F( RESULTAT = PRESHARM,  NOM_CHAM = 'INTE_ELNO', NUME_ORDRE = 1, MAILLE = 'MA57',
            NOEUD = 'NO763', NOM_CMP = 'INTX_I',  VALE = 0.0, PRECISION = 3.5E-4, CRITERE = 'ABSOLU'))
           )

PRESHARM=CALC_CHAMP( reuse=PRESHARM,
                            TOUT_ORDRE='OUI',
                             RESULTAT=PRESHARM,
                                ACOUSTIQUE=('PRAC_ELNO')
           )

TEST_RESU(RESU=(
             _F( RESULTAT = PRESHARM,  NOM_CHAM = 'PRAC_ELNO', NUME_ORDRE = 1, MAILLE = 'MA1',
              NOEUD = 'NO1',  NOM_CMP = 'DB',  VALE = 109.9),
             _F( RESULTAT = PRESHARM,  NOM_CHAM = 'PRAC_ELNO', NUME_ORDRE = 1, MAILLE = 'MA1',
              NOEUD = 'NO780', NOM_CMP = 'DB',  VALE = 109.9),
             _F( RESULTAT = PRESHARM,  NOM_CHAM = 'PRAC_ELNO', NUME_ORDRE = 1, MAILLE = 'MA57',
              NOEUD = 'NO751', NOM_CMP = 'DB',  VALE = 109.9),
             _F( RESULTAT = PRESHARM,  NOM_CHAM = 'PRAC_ELNO', NUME_ORDRE = 1, MAILLE = 'MA57',
              NOEUD = 'NO763', NOM_CMP = 'DB',  VALE = 109.9))
             )


TEST_RESU(RESU=(
             _F( RESULTAT = PRESHARM,  NOM_CHAM = 'PRAC_ELNO', NUME_ORDRE = 1, MAILLE = 'MA1',
              NOEUD = 'NO1',   NOM_CMP = 'PRES_R',  VALE = -6.2426),
             _F( RESULTAT = PRESHARM,  NOM_CHAM = 'PRAC_ELNO', NUME_ORDRE = 1, MAILLE = 'MA1',
              NOEUD = 'NO780', NOM_CMP = 'PRES_R',  VALE = -6.2426),
             _F( RESULTAT = PRESHARM,  NOM_CHAM = 'PRAC_ELNO', NUME_ORDRE = 1, MAILLE = 'MA57',
              NOEUD = 'NO751', NOM_CMP = 'PRES_R',  VALE = 6.02368),
             _F( RESULTAT = PRESHARM,  NOM_CHAM = 'PRAC_ELNO', NUME_ORDRE = 1, MAILLE = 'MA57',
              NOEUD = 'NO763', NOM_CMP = 'PRES_R',  VALE = 6.02368))
             )

TEST_RESU(RESU=(
           _F( RESULTAT = PRESHARM,  NOM_CHAM = 'PRAC_ELNO', NUME_ORDRE = 1, MAILLE = 'MA1',
            NOEUD = 'NO1',  NOM_CMP = 'PRES_I',  VALE = 0., CRITERE = 'ABSOLU'),
           _F( RESULTAT = PRESHARM,  NOM_CHAM = 'PRAC_ELNO', NUME_ORDRE = 1, MAILLE = 'MA1',
            NOEUD = 'NO780', NOM_CMP = 'PRES_I',  VALE = 0., CRITERE = 'ABSOLU'),
          _F( RESULTAT = PRESHARM,  NOM_CHAM = 'PRAC_ELNO', NUME_ORDRE = 1, MAILLE = 'MA57',
           NOEUD = 'NO751', NOM_CMP = 'PRES_I',  VALE = 1.6387, PRECISION = 3.3E-3, CRITERE = 'RELATIF'),
          _F( RESULTAT = PRESHARM,  NOM_CHAM = 'PRAC_ELNO', NUME_ORDRE = 1, MAILLE = 'MA57',
           NOEUD = 'NO763',  NOM_CMP = 'PRES_I',  VALE = 1.6387, PRECISION = 3.3E-3))
             )

FIN()
#
#
