# MODIF  DATE 30/07/2012   AUTEUR LEFEBVRE J-P.LEFEBVRE 
# TITRE GUIDE D'ONDE INCIDENTE A SORTIE ANECHOIQUE EN U,P,PHI - CAS 2D
# ahlv101b.para = tps_job 60 mem_job 256Mo ncpus 1 liste_test R
#            CONFIGURATION MANAGEMENT OF EDF VERSION
# ======================================================================
# COPYRIGHT (C) 1991 - 2012  EDF R&D                  WWW.CODE-ASTER.ORG
# THIS PROGRAM IS FREE SOFTWARE; YOU CAN REDISTRIBUTE IT AND/OR MODIFY
# IT UNDER THE TERMS OF THE GNU GENERAL PUBLIC LICENSE AS PUBLISHED BY
# THE FREE SOFTWARE FOUNDATION; EITHER VERSION 2 OF THE LICENSE, OR
# (AT YOUR OPTION) ANY LATER VERSION.
#
# THIS PROGRAM IS DISTRIBUTED IN THE HOPE THAT IT WILL BE USEFUL, BUT
# WITHOUT ANY WARRANTY; WITHOUT EVEN THE IMPLIED WARRANTY OF
# MERCHANTABILITY OR FITNESS FOR A PARTICULAR PURPOSE. SEE THE GNU
# GENERAL PUBLIC LICENSE FOR MORE DETAILS.
#
# YOU SHOULD HAVE RECEIVED A COPY OF THE GNU GENERAL PUBLIC LICENSE
# ALONG WITH THIS PROGRAM; IF NOT, WRITE TO EDF R&D CODE_ASTER,
#    1 AVENUE DU GENERAL DE GAULLE, 92141 CLAMART CEDEX, FRANCE.
# ======================================================================

#

#  GUIDE D'ONDE INCIDENTE A SORTIE ANECHOIQUE

#           EN U,P,PHI - CAS 2D

#           CAS TEST AHLV101B

#

DEBUT(CODE=_F( NOM = 'AHLV101B',NIV_PUB_WEB='INTERNET'),DEBUG=_F(SDVERI='OUI'))

F=500.

PRE_IDEAS()

MAIL=LIRE_MAILLAGE( )

AIR=DEFI_MATERIAU( FLUIDE=_F( RHO = 1.3, CELE_R = 343.))

CHAMPMAT=AFFE_MATERIAU(  MAILLAGE=MAIL,
                                 AFFE=_F( TOUT = 'OUI',  MATER = AIR) )

GUIDE=AFFE_MODELE(  MAILLAGE=MAIL,     VERIF='MAILLE',
                            AFFE=_F( TOUT = 'OUI', MODELISATION = '2D_FLUIDE',
                                     PHENOMENE = 'MECANIQUE') )

#

CHARMECA=AFFE_CHAR_MECA(      MODELE=GUIDE,
                 ONDE_FLUI=_F( GROUP_MA = 'ENTREE', PRES = 1.))

#

IMPEMECA=AFFE_CHAR_MECA(      MODELE=GUIDE,
                  IMPE_FACE=_F( GROUP_MA = 'SORTIE', IMPE = 445.9))

#

MACRO_MATR_ASSE(
                      MODELE=GUIDE,         CHARGE=CHARMECA,
                      CHAM_MATER=CHAMPMAT,
                      NUME_DDL=CO("NUM"),MATR_ASSE=(
                      _F(  MATRICE = CO("MATASK"), OPTION = 'RIGI_MECA'),
                                _F(  MATRICE = CO("MATASM"), OPTION = 'MASS_MECA'),
                                _F(  MATRICE = CO("MATASI1"), OPTION = 'ONDE_FLUI'))
                   )

MACRO_MATR_ASSE(
                      MODELE=GUIDE,         CHARGE=IMPEMECA,
                      CHAM_MATER=CHAMPMAT,
                      NUME_DDL=NUM,
                      MATR_ASSE=_F(  MATRICE = CO("MATASI2"), OPTION = 'IMPE_MECA')
                   )

#

MATASI=COMB_MATR_ASSE( COMB_R=(_F( MATR_ASSE = MATASI1, COEF_R = 1.),
                                     _F( MATR_ASSE = MATASI2, COEF_R = 1.))
                             )

#

VECTELEM=CALC_VECT_ELEM(   OPTION='CHAR_MECA',  CHAM_MATER=CHAMPMAT,
                                CHARGE=CHARMECA )

VECTASS=ASSE_VECTEUR(  VECT_ELEM=VECTELEM,   NUME_DDL=NUM )

DYNAHARM=DYNA_VIBRA(TYPE_CALCUL='HARM',BASE_CALCUL='PHYS',
                             MATR_MASS=MATASM,  MATR_RIGI=MATASK,
                             MATR_IMPE_PHI=MATASI,  NOM_CHAM='DEPL',
                             FREQ=F,
                             EXCIT=_F( VECT_ASSE = VECTASS,  COEF_MULT = 1.,
                                    PUIS_PULS = 1,  PHAS_DEG = 90.))

TEST_RESU(RESU=(
             _F( RESULTAT = DYNAHARM,  NOM_CHAM = 'DEPL',  NUME_ORDRE = 01,
              NOEUD = 'N1',  NOM_CMP = 'PRES',  VALE_C = 0.50000+0.0j),
             _F( RESULTAT = DYNAHARM,  NOM_CHAM = 'DEPL',  NUME_ORDRE = 01,
              NOEUD = 'N3',  NOM_CMP = 'PRES',  VALE_C = 0.50000+0.0j),
             _F( RESULTAT = DYNAHARM,  NOM_CHAM = 'DEPL',  NUME_ORDRE = 01,
              NOEUD = 'N151', NOM_CMP = 'PRES',  VALE_C = -0.4825-0.1313j),
             _F( RESULTAT = DYNAHARM,  NOM_CHAM = 'DEPL',  NUME_ORDRE = 01,
              NOEUD = 'N153',  NOM_CMP = 'PRES',  VALE_C = -0.4825-0.1313j))
             )

FIN()
#
