# TITRE GUIDE D'ONDE A SORTIE ANECHOIQUE (ONDES PLANES) E.F. CLASSIQUES
#            CONFIGURATION MANAGEMENT OF EDF VERSION
# ======================================================================
# COPYRIGHT (C) 1991 - 2012  EDF R&D                  WWW.CODE-ASTER.ORG
# THIS PROGRAM IS FREE SOFTWARE; YOU CAN REDISTRIBUTE IT AND/OR MODIFY
# IT UNDER THE TERMS OF THE GNU GENERAL PUBLIC LICENSE AS PUBLISHED BY
# THE FREE SOFTWARE FOUNDATION; EITHER VERSION 2 OF THE LICENSE, OR
# (AT YOUR OPTION) ANY LATER VERSION.
#
# THIS PROGRAM IS DISTRIBUTED IN THE HOPE THAT IT WILL BE USEFUL, BUT
# WITHOUT ANY WARRANTY; WITHOUT EVEN THE IMPLIED WARRANTY OF
# MERCHANTABILITY OR FITNESS FOR A PARTICULAR PURPOSE. SEE THE GNU
# GENERAL PUBLIC LICENSE FOR MORE DETAILS.
#
# YOU SHOULD HAVE RECEIVED A COPY OF THE GNU GENERAL PUBLIC LICENSE
# ALONG WITH THIS PROGRAM; IF NOT, WRITE TO EDF R&D CODE_ASTER,
#    1 AVENUE DU GENERAL DE GAULLE, 92141 CLAMART CEDEX, FRANCE.
# ======================================================================
#  MODELISATION 'ACOUSTIQUE' AVEC ELEMENTS HEXA20 ET FACE8
#  GUIDE D'ONDE ACOUSTIQUE EN E.F. CLASSIQUES
#

DEBUT(CODE=_F( NOM = 'AHLV100A',NIV_PUB_WEB='INTERNET'),DEBUG=_F(SDVERI='OUI'),)

F=500.

MAIL=LIRE_MAILLAGE(FORMAT='MED', )

AIR=DEFI_MATERIAU( FLUIDE=_F( RHO = 1.3, CELE_C = ('RI',343.,0.,)))

CHAMPMAT=AFFE_MATERIAU(  MAILLAGE=MAIL,
                                 AFFE=_F( TOUT = 'OUI',  MATER = AIR) )

GUIDE=AFFE_MODELE(  MAILLAGE=MAIL,     VERIF='MAILLE',
                            AFFE=_F( TOUT = 'OUI', MODELISATION = '3D',
                                     PHENOMENE = 'ACOUSTIQUE') )

CHARACOU=AFFE_CHAR_ACOU(      MODELE=GUIDE,
                 VITE_FACE=_F( GROUP_MA = 'ENTREE', VNOR = ('RI',0.014,0.,)))

IMPEACOU=AFFE_CHAR_ACOU(      MODELE=GUIDE,
                 IMPE_FACE=_F( GROUP_MA = 'SORTIE', IMPE = ('RI',445.9,0.,)))

ASSEMBLAGE(
                      MODELE=GUIDE,         CHARGE=IMPEACOU,
                      CHAM_MATER=CHAMPMAT,
                      NUME_DDL=CO("NUM"),MATR_ASSE=(
                      _F(  MATRICE = CO("MATASK"), OPTION = 'RIGI_ACOU'),
                                _F(  MATRICE = CO("MATASM"), OPTION = 'MASS_ACOU'),
                                _F(  MATRICE = CO("MATASI"), OPTION = 'AMOR_ACOU')),
                      VECT_ASSE=(_F(VECTEUR=CO("VECTASS"),OPTION='CHAR_ACOU',CHARGE=CHARACOU)),
                   )

#
#  ____________________CALCUL DES MODES_________________________________
#

MATASKR=COMB_MATR_ASSE(    COMB_R=_F( MATR_ASSE = MATASK,  PARTIE = 'REEL', COEF_R = 1.))

MATASMR=COMB_MATR_ASSE(    COMB_R=_F( MATR_ASSE = MATASM,  PARTIE = 'REEL', COEF_R = 1.))

#

MODES=MODE_ITER_SIMULT(      MATR_RIGI=MATASKR,
                                     MATR_MASS=MATASMR,
                                  CALC_FREQ=_F( OPTION = 'BANDE',
                                             FREQ = ( 1., 1000.,))
                               )

TEST_RESU(RESU=(_F(NUME_ORDRE=1,
                   PARA='FREQ',
                   RESULTAT=MODES,
                   VALE_CALC=171.5,
                   TOLE_MACHINE=1.E-4,
                   CRITERE='RELATIF',
                   ),
                _F(NUME_ORDRE=2,
                   PARA='FREQ',
                   RESULTAT=MODES,
                   VALE_CALC=343.0,
                   TOLE_MACHINE=1.E-4,
                   CRITERE='RELATIF',
                   ),
                _F(NUME_ORDRE=3,
                   PARA='FREQ',
                   RESULTAT=MODES,
                   VALE_CALC=514.5,
                   TOLE_MACHINE=1.E-3,
                   CRITERE='RELATIF',
                   ),
                _F(NUME_ORDRE=4,
                   PARA='FREQ',
                   RESULTAT=MODES,
                   VALE_CALC=686.226403694,
                   VALE_REFE=686.0,
                   REFERENCE='NON_DEFINI',
                   CRITERE='RELATIF',
                   PRECISION=1.E-2,),
                _F(NUME_ORDRE=5,
                   PARA='FREQ',
                   RESULTAT=MODES,
                   VALE_CALC=857.5,
                   TOLE_MACHINE=1.E-3,
                   CRITERE='RELATIF',
                   ),
                _F(NUME_ORDRE=6,
                   PARA='FREQ',
                   RESULTAT=MODES,
                   VALE_CALC=860.719171766,
                   VALE_REFE=857.5,
                   REFERENCE='NON_DEFINI',
                   CRITERE='RELATIF',
                   PRECISION=5.0000000000000001E-3,),
                _F(NUME_ORDRE=7,
                   PARA='FREQ',
                   RESULTAT=MODES,
                   VALE_CALC=877.640062315,
                   VALE_REFE=874.48199999999997,
                   REFERENCE='NON_DEFINI',
                   CRITERE='RELATIF',
                   PRECISION=5.0000000000000001E-3,),
                _F(NUME_ORDRE=8,
                   PARA='FREQ',
                   RESULTAT=MODES,
                   VALE_CALC=926.567932761,
                   VALE_REFE=923.55600000000004,
                   REFERENCE='NON_DEFINI',
                   CRITERE='RELATIF',
                   PRECISION=5.0000000000000001E-3,),
                ),
          )

IMPR_RESU(RESU=_F(RESULTAT=MODES,NUME_ORDRE=2),)
IMPR_RESU(FORMAT='MED',RESU=_F(RESULTAT=MODES,NUME_ORDRE=2),)


#  ----------------------CALCUL DECOMPOSE-------------------------------
#

MATRES=COMB_MATR_ASSE( COMB_C=(   _F( MATR_ASSE = MATASK,
                                        COEF_R = 1.),
                                       _F( MATR_ASSE = MATASM,
                                        COEF_R = -9869604.4),
                                       _F( MATR_ASSE = MATASI,
                                        COEF_C = ('RI',0.,3141.5926,)))
                            )



VECRES=CREA_CHAMP(OPERATION='ASSE',TYPE_CHAM='NOEU_PRES_C',MODELE=GUIDE,NUME_DDL=NUM ,
              ASSE=_F(CHAM_GD=VECTASS,CUMUL='NON',TOUT='OUI',COEF_C=('RI',0.,-3141.5926,)))


MATRES=FACTORISER( reuse=MATRES,  MATR_ASSE=MATRES )

VECRES=RESOUDRE( INFO=2,reuse=VECRES,  MATR=MATRES,
                             CHAM_NO=VECRES
                        )

TEST_RESU(CHAM_NO=(_F(NOEUD='NO1',
                      VALE_CALC_C=('RI', -6.2426000000000004, 0.0),
                      TOLE_MACHINE=1.E-3,
                      NOM_CMP='PRES',
                      CHAM_GD=VECRES,),
                   _F(NOEUD='NO780',
                      VALE_CALC_C=('RI', -6.2426000000000004, 0.0),
                      TOLE_MACHINE=1.E-3,
                      NOM_CMP='PRES',
                      CHAM_GD=VECRES,),
                   _F(NOEUD='NO751',
                      VALE_CALC_C=('RI', 6.0236799999999997, 1.6387),
                      TOLE_MACHINE=1.E-3,
                      NOM_CMP='PRES',
                      CHAM_GD=VECRES,),
                   _F(NOEUD='NO763',
                      VALE_CALC_C=('RI', 6.0236799999999997, 1.6387),
                      TOLE_MACHINE=1.E-3,
                      NOM_CMP='PRES',
                      CHAM_GD=VECRES,),
                   ),
          )

CHPRAC=CALC_CHAM_ELEM(      MODELE=GUIDE,
                               PRES=VECRES,  OPTION='PRAC_ELNO' )

TEST_RESU(CHAM_ELEM=(_F(NOEUD='NO1',
                        NOM_CMP='DB',
                        MAILLE='MA1',
                        CHAM_GD=CHPRAC,
                        VALE_CALC=109.90000000000001,
                        TOLE_MACHINE=1.E-3,),
                     _F(NOEUD='NO780',
                        NOM_CMP='DB',
                        MAILLE='MA1',
                        CHAM_GD=CHPRAC,
                        VALE_CALC=109.90000000000001,
                        TOLE_MACHINE=1.E-3,),
                     _F(NOEUD='NO751',
                        NOM_CMP='DB',
                        MAILLE='MA57',
                        CHAM_GD=CHPRAC,
                        VALE_CALC=109.90000000000001,
                        TOLE_MACHINE=1.E-3,),
                     _F(NOEUD='NO763',
                        NOM_CMP='DB',
                        MAILLE='MA57',
                        CHAM_GD=CHPRAC,
                        VALE_CALC=109.90000000000001,
                        TOLE_MACHINE=1.E-3,),
                     ),
          )

TEST_RESU(CHAM_ELEM=(_F(NOEUD='NO1',
                        NOM_CMP='PRES_R',
                        MAILLE='MA1',
                        CHAM_GD=CHPRAC,
                        VALE_CALC=-6.2426000000000004,
                        TOLE_MACHINE=1.E-3,),
                     _F(NOEUD='NO780',
                        NOM_CMP='PRES_R',
                        MAILLE='MA1',
                        CHAM_GD=CHPRAC,
                        VALE_CALC=-6.2426000000000004,
                        TOLE_MACHINE=1.E-3,),
                     _F(NOEUD='NO751',
                        NOM_CMP='PRES_R',
                        MAILLE='MA57',
                        CHAM_GD=CHPRAC,
                        VALE_CALC=6.0236799999999997,
                        TOLE_MACHINE=1.E-3,),
                     _F(NOEUD='NO763',
                        NOM_CMP='PRES_R',
                        MAILLE='MA57',
                        CHAM_GD=CHPRAC,
                        VALE_CALC=6.0236799999999997,
                        TOLE_MACHINE=1.E-3,),
                     ),
          )

TEST_RESU(CHAM_ELEM=(_F(NOEUD='NO1',
                        CRITERE='ABSOLU',
                        NOM_CMP='PRES_I',
                        MAILLE='MA1',
                        CHAM_GD=CHPRAC,
                        VALE_CALC=0.0,
                        TOLE_MACHINE=1.E-3,),
                     _F(NOEUD='NO780',
                        CRITERE='ABSOLU',
                        NOM_CMP='PRES_I',
                        MAILLE='MA1',
                        CHAM_GD=CHPRAC,
                        VALE_CALC=0.0,
                        TOLE_MACHINE=1.E-3,),
                     _F(NOEUD='NO751',
                        NOM_CMP='PRES_I',
                        PRECISION=3.3E-3,
                        MAILLE='MA57',
                        CHAM_GD=CHPRAC,
                        VALE_CALC=1.644067462,
                        VALE_REFE=1.6387,
                        REFERENCE='NON_DEFINI',),
                     _F(NOEUD='NO763',
                        NOM_CMP='PRES_I',
                        PRECISION=3.3E-3,
                        MAILLE='MA57',
                        CHAM_GD=CHPRAC,
                        VALE_CALC=1.644067410,
                        VALE_REFE=1.6387,
                        REFERENCE='NON_DEFINI',),
                     ),
          )

#-----------------------CALCUL HARMONIQUE-------------------------------


PRESHARM=DYNA_VIBRA(TYPE_CALCUL='HARM',BASE_CALCUL='PHYS',
                             MATR_MASS=MATASM,  MATR_RIGI=MATASK,
                             MATR_AMOR=MATASI,
                             FREQ=F,
                             EXCIT=_F( VECT_ASSE = VECTASS,  COEF_MULT = -1.,
                                    PUIS_PULS = 1,  PHAS_DEG = 90.))

TEST_RESU(RESU=(_F(NUME_ORDRE=1,
                   VALE_CALC_C=('RI', -6.2426000000000004, 0.0),
                   TOLE_MACHINE=1.E-3,
                   RESULTAT=PRESHARM,
                   NOM_CHAM='PRES',
                   NOEUD='NO1',
                   NOM_CMP='PRES',),
                _F(NUME_ORDRE=1,
                   VALE_CALC_C=('RI', -6.2426000000000004, 0.0),
                   TOLE_MACHINE=1.E-3,
                   RESULTAT=PRESHARM,
                   NOM_CHAM='PRES',
                   NOEUD='NO780',
                   NOM_CMP='PRES',),
                _F(NUME_ORDRE=1,
                   VALE_CALC_C=('RI', 6.0236799999999997, 1.6387),
                   TOLE_MACHINE=1.E-3,
                   RESULTAT=PRESHARM,
                   NOM_CHAM='PRES',
                   NOEUD='NO751',
                   NOM_CMP='PRES',),
                _F(NUME_ORDRE=1,
                   VALE_CALC_C=('RI', 6.0236799999999997, 1.6387),
                   TOLE_MACHINE=1.E-3,
                   RESULTAT=PRESHARM,
                   NOM_CHAM='PRES',
                   NOEUD='NO763',
                   NOM_CMP='PRES',),
                ),
          )

IMPR_RESU(FORMAT='RESULTAT',
          RESU=_F(RESULTAT=PRESHARM,  NOM_CHAM = 'PRES',  NUME_ORDRE = 1,NOM_CMP = 'PRES',
                  ),)

IMPR_RESU(FORMAT='MED',
          RESU=(_F(RESULTAT=PRESHARM,  NOM_CHAM = 'PRES',  NUME_ORDRE = 1,
                  PARTIE='REEL',NOM_CMP='PRES',NOM_CHAM_MED='PRESHARM_DEPL_PRES_REEL'),
                _F(RESULTAT=PRESHARM,  NOM_CHAM = 'PRES',  NUME_ORDRE = 1,
                  PARTIE='IMAG',NOM_CMP='PRES',NOM_CHAM_MED='PRESHARM_DEPL_PRES_IMAG'),),);


PRESHARM=CALC_CHAMP( reuse=PRESHARM,
                            TOUT_ORDRE='OUI',
                             RESULTAT=PRESHARM,
                                ACOUSTIQUE=('INTE_ELNO')
           )

TEST_RESU(RESU=(_F(NUME_ORDRE=1,
                   RESULTAT=PRESHARM,
                   NOM_CHAM='INTE_ELNO',
                   NOEUD='NO1',
                   NOM_CMP='INTX_R',
                   VALE_CALC=0.044996948,
                   VALE_REFE=0.043700000000000003,
                   REFERENCE='NON_DEFINI',
                   PRECISION=0.029999999999999999,
                   MAILLE='MA1',),
                _F(NUME_ORDRE=1,
                   RESULTAT=PRESHARM,
                   NOM_CHAM='INTE_ELNO',
                   NOEUD='NO780',
                   NOM_CMP='INTX_R',
                   VALE_CALC=0.044996945,
                   VALE_REFE=0.043700000000000003,
                   REFERENCE='NON_DEFINI',
                   PRECISION=0.029999999999999999,
                   MAILLE='MA1',),
                _F(NUME_ORDRE=1,
                   RESULTAT=PRESHARM,
                   NOM_CHAM='INTE_ELNO',
                   NOEUD='NO751',
                   NOM_CMP='INTX_R',
                   VALE_CALC=0.044996975,
                   VALE_REFE=0.043700000000000003,
                   REFERENCE='NON_DEFINI',
                   PRECISION=0.029999999999999999,
                   MAILLE='MA57',),
                _F(NUME_ORDRE=1,
                   RESULTAT=PRESHARM,
                   NOM_CHAM='INTE_ELNO',
                   NOEUD='NO763',
                   NOM_CMP='INTX_R',
                   VALE_CALC=0.044996974,
                   VALE_REFE=0.043700000000000003,
                   REFERENCE='NON_DEFINI',
                   PRECISION=0.029999999999999999,
                   MAILLE='MA57',),
                _F(NUME_ORDRE=1,
                   RESULTAT=PRESHARM,
                   NOM_CHAM='INTE_ELNO',
                   NOEUD='NO1',
                   NOM_CMP='INTX_I',
                   VALE_CALC=0.0,
                   TOLE_MACHINE=3.5E-4,
                   CRITERE='ABSOLU',
                   MAILLE='MA1',),
                _F(NUME_ORDRE=1,
                   RESULTAT=PRESHARM,
                   NOM_CHAM='INTE_ELNO',
                   NOEUD='NO780',
                   NOM_CMP='INTX_I',
                   VALE_CALC=0.0,
                   TOLE_MACHINE=3.5E-4,
                   CRITERE='ABSOLU',
                   MAILLE='MA1',),
                _F(NUME_ORDRE=1,
                   RESULTAT=PRESHARM,
                   NOM_CHAM='INTE_ELNO',
                   NOEUD='NO751',
                   NOM_CMP='INTX_I',
                   VALE_CALC=0.0,
                   TOLE_MACHINE=3.5E-4,
                   CRITERE='ABSOLU',
                   MAILLE='MA57',),
                _F(NUME_ORDRE=1,
                   RESULTAT=PRESHARM,
                   NOM_CHAM='INTE_ELNO',
                   NOEUD='NO763',
                   NOM_CMP='INTX_I',
                   VALE_CALC=0.0,
                   TOLE_MACHINE=3.5E-4,
                   CRITERE='ABSOLU',
                   MAILLE='MA57',),
                ),
          )

PRESHARM=CALC_CHAMP( reuse=PRESHARM,
                            TOUT_ORDRE='OUI',
                             RESULTAT=PRESHARM,
                                ACOUSTIQUE=('PRAC_ELNO')
           )

TEST_RESU(RESU=(_F(NUME_ORDRE=1,
                   RESULTAT=PRESHARM,
                   NOM_CHAM='PRAC_ELNO',
                   NOEUD='NO1',
                   NOM_CMP='DB',
                   VALE_CALC=109.90000000000001,
                   TOLE_MACHINE=1.E-3,
                   MAILLE='MA1',),
                _F(NUME_ORDRE=1,
                   RESULTAT=PRESHARM,
                   NOM_CHAM='PRAC_ELNO',
                   NOEUD='NO780',
                   NOM_CMP='DB',
                   VALE_CALC=109.90000000000001,
                   TOLE_MACHINE=1.E-3,
                   MAILLE='MA1',),
                _F(NUME_ORDRE=1,
                   RESULTAT=PRESHARM,
                   NOM_CHAM='PRAC_ELNO',
                   NOEUD='NO751',
                   NOM_CMP='DB',
                   VALE_CALC=109.90000000000001,
                   TOLE_MACHINE=1.E-3,
                   MAILLE='MA57',),
                _F(NUME_ORDRE=1,
                   RESULTAT=PRESHARM,
                   NOM_CHAM='PRAC_ELNO',
                   NOEUD='NO763',
                   NOM_CMP='DB',
                   VALE_CALC=109.90000000000001,
                   TOLE_MACHINE=1.E-3,
                   MAILLE='MA57',),
                ),
          )

TEST_RESU(RESU=(_F(NUME_ORDRE=1,
                   RESULTAT=PRESHARM,
                   NOM_CHAM='PRAC_ELNO',
                   NOEUD='NO1',
                   NOM_CMP='PRES_R',
                   VALE_CALC=-6.2426000000000004,
                   TOLE_MACHINE=1.E-3,
                   MAILLE='MA1',),
                _F(NUME_ORDRE=1,
                   RESULTAT=PRESHARM,
                   NOM_CHAM='PRAC_ELNO',
                   NOEUD='NO780',
                   NOM_CMP='PRES_R',
                   VALE_CALC=-6.2426000000000004,
                   TOLE_MACHINE=1.E-3,
                   MAILLE='MA1',),
                _F(NUME_ORDRE=1,
                   RESULTAT=PRESHARM,
                   NOM_CHAM='PRAC_ELNO',
                   NOEUD='NO751',
                   NOM_CMP='PRES_R',
                   VALE_CALC=6.0236799999999997,
                   TOLE_MACHINE=1.E-3,
                   MAILLE='MA57',),
                _F(NUME_ORDRE=1,
                   RESULTAT=PRESHARM,
                   NOM_CHAM='PRAC_ELNO',
                   NOEUD='NO763',
                   NOM_CMP='PRES_R',
                   VALE_CALC=6.0236799999999997,
                   TOLE_MACHINE=1.E-3,
                   MAILLE='MA57',),
                ),
          )

TEST_RESU(RESU=(_F(NUME_ORDRE=1,
                   RESULTAT=PRESHARM,
                   NOM_CHAM='PRAC_ELNO',
                   NOEUD='NO1',
                   NOM_CMP='PRES_I',
                   VALE_CALC=0.0,
                   TOLE_MACHINE=1.E-3,
                   CRITERE='ABSOLU',
                   MAILLE='MA1',),
                _F(NUME_ORDRE=1,
                   RESULTAT=PRESHARM,
                   NOM_CHAM='PRAC_ELNO',
                   NOEUD='NO780',
                   NOM_CMP='PRES_I',
                   VALE_CALC=0.0,
                   TOLE_MACHINE=1.E-3,
                   CRITERE='ABSOLU',
                   MAILLE='MA1',),
                _F(NUME_ORDRE=1,
                   RESULTAT=PRESHARM,
                   NOM_CHAM='PRAC_ELNO',
                   NOEUD='NO751',
                   NOM_CMP='PRES_I',
                   VALE_CALC=1.644067435,
                   VALE_REFE=1.6387,
                   REFERENCE='NON_DEFINI',
                   CRITERE='RELATIF',
                   PRECISION=3.3E-3,
                   MAILLE='MA57',),
                _F(NUME_ORDRE=1,
                   RESULTAT=PRESHARM,
                   NOM_CHAM='PRAC_ELNO',
                   NOEUD='NO763',
                   NOM_CMP='PRES_I',
                   VALE_CALC=1.644067383,
                   VALE_REFE=1.6387,
                   REFERENCE='NON_DEFINI',
                   PRECISION=3.3E-3,
                   MAILLE='MA57',),
                ),
          )

FIN()
#
#
