# TITRE TEST DE NON REGRESSION DE L'OUTIL METIER CENTENAIRE
# ======================================================================
# COPYRIGHT (C) 1991 - 2015  EDF R&D                  WWW.CODE-ASTER.ORG
# THIS PROGRAM IS FREE SOFTWARE; YOU CAN REDISTRIBUTE IT AND/OR MODIFY
# IT UNDER THE TERMS OF THE GNU GENERAL PUBLIC LICENSE AS PUBLISHED BY
# THE FREE SOFTWARE FOUNDATION; EITHER VERSION 2 OF THE LICENSE, OR
# (AT YOUR OPTION) ANY LATER VERSION.
#
# THIS PROGRAM IS DISTRIBUTED IN THE HOPE THAT IT WILL BE USEFUL, BUT
# WITHOUT ANY WARRANTY; WITHOUT EVEN THE IMPLIED WARRANTY OF
# MERCHANTABILITY OR FITNESS FOR A PARTICULAR PURPOSE. SEE THE GNU
# GENERAL PUBLIC LICENSE FOR MORE DETAILS.
#
# YOU SHOULD HAVE RECEIVED A COPY OF THE GNU GENERAL PUBLIC LICENSE
# ALONG WITH THIS PROGRAM; IF NOT, WRITE TO EDF R&D CODE_ASTER,
#    1 AVENUE DU GENERAL DE GAULLE, 92141 CLAMART CEDEX, FRANCE.
# ======================================================================
# person_in_charge: aurore.parrot at edf.fr

DEBUT(CODE=_F(NIV_PUB_WEB='INTRANET'),DEBUG=_F(SDVERI='OUI'))

# PHILIPPE DECAUDIN LE 06/04/2000
# ***** PROJET CENTENAIRE: CALCUL DE LA TENACITE
#                              A PARTIR DE LA RESILIENCE *****
# PEX: 1251, PPRD: T4-99-03, ARD: T4268R
# -------- CALCUL DE RESILIENCE A -90 DEGRES C ------------
# FICHIER DE COMMANDE:
# /HOME/DECAUDIN/PEX1251/CHARPY/COMMANDES/RESILIENCE90.COMM
# FICHIERS RESULTATS:
# /HOME/DECAUDIN/PEX1251/CHARPY/CALCUL
# FICHIER DE MAILLAGE UTILISE:
# /HOME/DECAUDIN/PEX1251/CHARPY/MAILLAGE/KV00_GIBI99.MGIB
# MOTS CLES DU MAILLAGE:
#     EPROUV = EPROUVETTE
#     COUTEAU
#     APPUI
#     MAILTOT = MODELISATION ENTIERE (EPROUV ET COUTEAU ET APPUI)
#     CONT1_EP =  CONTACT EPROUVETTE MARTEAU
#     CONT1_CO =
#     CONT2_EP =  CONTACT EPROUVETTE APPUI
#     CONT2_AP =
#     DEP_COUT = IMPOSITION DU DEPLACEMENT ET RELAVE DE FORCE
#     SYM_CO = SYMETRIE COUTEAU
#     SYM_EP = SYMETRIE EPROUVETTE
#     ENC_APP = ENCRAGE DE L'APPUI
#     NO_COD = OUVERTURE DE L'EPROUVETTE

# CONDITIONS LIMITES:
#     ENC_APP : DX : 0. DY : 0.
#     SYM_EP : DX : 0.
#     SYM_COU : DX : 0.
# VERSION ASTER : NEW5 V5.04
# MODELE DE CALCUL : MODELE ELASTOPLASTIQUE DE LEMAITRE
# CHARGEMENT : 2 MM DE DEPLACEMENT EN 0.0004 S
# RESULTATS CALCULES : FORCE, PROBABILITE DE WEIBULL
#                      ET CONTRAINTE D'OUVERTURE SUR LE LIGAMENT
# CREATION D'UNE BASE CALCUL SUR CLASTER DANS RESILIENCE90
# UNITES :
# CONTRAINTES : EN MPA
# LONGUEUR : EN MM
# FORCE : EN NEWTON
#====================================================================

PRE_GIBI()

M=LIRE_MAILLAGE( )

M=DEFI_GROUP( reuse=M,   MAILLAGE=M,CREA_GROUP_NO=(
               _F(  GROUP_MA = 'ENC_APP'),
               _F(  GROUP_MA = 'DEP_COUT'),
               _F(  GROUP_MA = 'SYM_CO'),
               _F(  GROUP_MA = 'SYM_EP'),
               _F(  GROUP_MA = 'CONT1_CO'),
               _F(  GROUP_MA = 'CONT1_EP'),
               _F(  GROUP_MA = 'CONT2_AP'),
               _F(  GROUP_MA = 'CONT2_EP'),
               _F(  NOM = 'LIGAMENT',
                              GROUP_MA = 'SYM_EP'),
                _F(  NOM = 'SYM_COU',
                               DIFFE = ('SYM_CO', 'DEP_COUT',)))
                 )

# MODELISATION DU MAILLAGE
# ------------------------------------------------------------------
MO=AFFE_MODELE(    MAILLAGE=M,
              AFFE=_F(  GROUP_MA = 'MAILLAGE',
                     PHENOMENE = 'MECANIQUE',
                     MODELISATION = 'D_PLAN_SI')
# SI = SOUS INTEGRE: QUA8 --> QUA4
                 )

# DEFINITION & AFFECTATION DES PROPRIETES MECANIQUES
# ----------------------------------------------------------------
MA_RIGI=DEFI_MATERIAU(    ELAS=_F(  E = 1.E9,
                                   NU = 0.40)
                        )

# LOI LEMAITRE

MA_EPR=DEFI_MATERIAU(       ELAS=_F(   E = 215000.,
                                      NU = .3,
                                      ALPHA = 0.01),
                             LEMAITRE=_F(  N = 50.,
                                        UN_SUR_K = 0.0008,
                                        UN_SUR_M = 0.1428),
                             WEIBULL=_F( M = 24.,
                                 VOLU_REFE = 1.25E-4,
                                 SIGM_REFE = 2792.)
                          )

# LOI VON MISES ECROUISSAGE ISOTROPE LINEAIRE

MA_EPR2=DEFI_MATERIAU(       ELAS=_F( E = 215000.,
                                      NU = .3,
                                      ALPHA = 0.01),
                             ECRO_LINE=_F( D_SIGM_EPSI = 2000.,
                                           SY = 650.),
                             WEIBULL=_F( M = 24.,
                                 VOLU_REFE = 1.25E-4,
                                 SIGM_REFE = 2792.)
                          )

# LOI VON MISES ECROUISSAGE ISOTROPE NON LINEAIRE

TRAC=DEFI_FONCTION(    NOM_PARA='EPSI',
                             PROL_GAUCHE='LINEAIRE',
                              PROL_DROITE='LINEAIRE',
                             VALE=(
                                  0.003023,  650.00,
                                  1.0  ,     2668.
                                  ) )

MA_EPR3=DEFI_MATERIAU(       ELAS=_F( E = 215000.,
                                      NU = .3,
                                      ALPHA = 0.01),
                             TRACTION=_F( SIGM = TRAC ),
                             WEIBULL=_F( M = 24.,
                                 VOLU_REFE = 1.25E-4,
                                 SIGM_REFE = 2792.)
                          )

# LOI VON MISES ECROUISSAGE MIXTE : CINEMATIQUE LINEAIRE
#                                   / ISOTROPE NON LINEAIRE

MA_EPR4=DEFI_MATERIAU(       ELAS=_F( E = 215000.,
                                      NU = .3,
                                      ALPHA = 0.01),
                             TRACTION=_F( SIGM = TRAC ),
                             PRAGER=_F( C = 0),
                             WEIBULL=_F( M = 24.,
                                 VOLU_REFE = 1.25E-4,
                                 SIGM_REFE = 2792.)
                          )

# LOI VON MISES ECROUISSAGE MIXTE : CINEMATIQUE LINEAIRE
#                                   / ISOTROPE LINEAIRE

MA_EPR5=DEFI_MATERIAU(       ELAS=_F( E = 215000.,
                                      NU = .3,
                                      ALPHA = 0.01),
                             ECRO_LINE=_F( D_SIGM_EPSI = 2000.,
                                           SY = 650.  ),
                             PRAGER=_F( C = 0  ),
                             WEIBULL=_F( M = 24.,
                                 VOLU_REFE = 1.25E-4,
                                 SIGM_REFE = 2792.)
                          )

# LOI CHABOCHE AVEC UN TENSEUR ECROUISSAGE CINEMATIQUE LINEAIRE

MA_EPR6=DEFI_MATERIAU(       ELAS=_F( E = 215000.,
                                      NU = .3,
                                      ALPHA = 0.01),
                      CIN1_CHAB=_F(
                                 R_0 = 650.,
                                 R_I = 21089.,
                                 C_I = 0.,
                                 G_0 = 0.,
                                    ),
                      WEIBULL=_F( M = 24.,
                                 VOLU_REFE = 1.25E-4,
                                 SIGM_REFE = 2792.)
                          )

# LOI CHABOCHE AVEC DEUX TENSEURS ECROUISSAGE CINEMATIQUE LINEAIRE

MA_EPR7=DEFI_MATERIAU(       ELAS=_F( E = 215000.,
                                      NU = .3,
                                      ALPHA = 0.01),
                      CIN2_CHAB=_F(
                                 R_0 = 650.,
                                 R_I = 21089.,
                                 B = 0.1,
                                 C1_I = 0.,
                                 C2_I = 0.,
                                 G1_0 = 0.,
                                 G2_0 = 0.,
                                    ),
                      WEIBULL=_F( M = 24.,
                                 VOLU_REFE = 1.25E-4,
                                 SIGM_REFE = 2792.)
                          )

# LOI ROUSSELIER

MA_EPR9=DEFI_MATERIAU(ELAS=_F(NU=0.3,
                            E=2.E5,),
                    ROUSSELIER=_F(PORO_INIT=1.E-4,
                                  D_SIGM_EPSI_NORM=1.0,
                                  PORO_CRIT=1.0,
                                  D=2.0,
                                  SIGM_1=600.0,
                                  PORO_ACCE=1.0,),
                    TRACTION=_F(SIGM=TRAC,),
                    WEIBULL=_F( M = 24.,
                                 VOLU_REFE = 1.25E-4,
                                 SIGM_REFE = 2792.),)

# LOI ROUSS_VISC

MA_EPR10=DEFI_MATERIAU(ELAS=_F(NU=0.3,
                            E=2.E5,),
                    ROUSSELIER=_F(PORO_INIT=1.E-4,
                                  D_SIGM_EPSI_NORM=1.0,
                                  PORO_CRIT=1.0,
                                  D=2.0,
                                  SIGM_1=600.0,
                                  PORO_ACCE=1.0,),
                    VISC_SINH=_F(SIGM_0=27.0,
                                  EPSI_0=1.E-2,
                                  M=2.,),
                    TRACTION=_F(SIGM=TRAC,),
                    WEIBULL=_F( M = 24.,
                                 VOLU_REFE = 1.25E-4,
                                 SIGM_REFE = 2792.),)

# LOI VISC8ISOT_TRAC

MA_EPR12=DEFI_MATERIAU(ELAS=_F(NU=0.3,
                            E=2.E5,),
                    VISC_SINH=_F(SIGM_0=27.0,
                                  EPSI_0=1.E-2,
                                  M=2.,),
                    TRACTION=_F(SIGM=TRAC,),
                    WEIBULL=_F( M = 24.,
                                 VOLU_REFE = 1.25E-4,
                                 SIGM_REFE = 2792.),)


CM=AFFE_MATERIAU(    MAILLAGE=M,AFFE=(
                _F(  GROUP_MA = 'APPUI',
                       MATER = MA_RIGI),
                _F(  GROUP_MA = 'COUTEAU',
                       MATER = MA_RIGI),
                _F(  GROUP_MA = 'EPROUV',
                       MATER = MA_EPR))
                   )
CM2=AFFE_MATERIAU(    MAILLAGE=M,AFFE=(
                _F(  GROUP_MA = 'APPUI',
                       MATER = MA_RIGI),
                _F(  GROUP_MA = 'COUTEAU',
                       MATER = MA_RIGI),
                _F(  GROUP_MA = 'EPROUV',
                       MATER = MA_EPR2))
                   )
CM3=AFFE_MATERIAU(    MAILLAGE=M,AFFE=(
                _F(  GROUP_MA = 'APPUI',
                       MATER = MA_RIGI),
                _F(  GROUP_MA = 'COUTEAU',
                       MATER = MA_RIGI),
                _F(  GROUP_MA = 'EPROUV',
                       MATER = MA_EPR3))
                   )
CM4=AFFE_MATERIAU(    MAILLAGE=M,AFFE=(
                _F(  GROUP_MA = 'APPUI',
                       MATER = MA_RIGI),
                _F(  GROUP_MA = 'COUTEAU',
                       MATER = MA_RIGI),
                _F(  GROUP_MA = 'EPROUV',
                       MATER = MA_EPR4))
                   )
CM5=AFFE_MATERIAU(    MAILLAGE=M,AFFE=(
                _F(  GROUP_MA = 'APPUI',
                       MATER = MA_RIGI),
                _F(  GROUP_MA = 'COUTEAU',
                       MATER = MA_RIGI),
                _F(  GROUP_MA = 'EPROUV',
                       MATER = MA_EPR5))
                   )
CM6=AFFE_MATERIAU(    MAILLAGE=M,AFFE=(
                _F(  GROUP_MA = 'APPUI',
                       MATER = MA_RIGI),
                _F(  GROUP_MA = 'COUTEAU',
                       MATER = MA_RIGI),
                _F(  GROUP_MA = 'EPROUV',
                       MATER = MA_EPR6))
                   )
CM7=AFFE_MATERIAU(    MAILLAGE=M,AFFE=(
                _F(  GROUP_MA = 'APPUI',
                       MATER = MA_RIGI),
                _F(  GROUP_MA = 'COUTEAU',
                       MATER = MA_RIGI),
                _F(  GROUP_MA = 'EPROUV',
                       MATER = MA_EPR7))
                   )
CM9=AFFE_MATERIAU(    MAILLAGE=M,AFFE=(
                _F(  GROUP_MA = 'APPUI',
                       MATER = MA_RIGI),
                _F(  GROUP_MA = 'COUTEAU',
                       MATER = MA_RIGI),
                _F(  GROUP_MA = 'EPROUV',
                       MATER = MA_EPR9))
                   )
CM10=AFFE_MATERIAU(    MAILLAGE=M,AFFE=(
                _F(  GROUP_MA = 'APPUI',
                       MATER = MA_RIGI),
                _F(  GROUP_MA = 'COUTEAU',
                       MATER = MA_RIGI),
                _F(  GROUP_MA = 'EPROUV',
                       MATER = MA_EPR10))
                   )
CM12=AFFE_MATERIAU(    MAILLAGE=M,AFFE=(
                _F(  GROUP_MA = 'APPUI',
                       MATER = MA_RIGI),
                _F(  GROUP_MA = 'COUTEAU',
                       MATER = MA_RIGI),
                _F(  GROUP_MA = 'EPROUV',
                       MATER = MA_EPR12))
                   )

# CHARGEMENT ET CONDITIONS LIMITES
# ---------------------------------------------------------------
CH=AFFE_CHAR_MECA(    MODELE=MO,DDL_IMPO=(
                        _F(  GROUP_NO = 'ENC_APP',
                                   DX = 0.,
                                   DY = 0.),
                        _F(  GROUP_NO = 'SYM_EP',
                                   DX = 0.),
                        _F(  GROUP_NO = 'SYM_COU',
                                   DX = 0.)),
                        LIAISON_DDL=_F(  GROUP_NO = ('NO_DEP', 'NO_DCO',),
                                      DDL = ('DY', 'DY',),
                                      COEF_MULT = (1., -1.,),
                                      COEF_IMPO = 0.),
                     )

CHCONT = DEFI_CONTACT(MODELE=MO,
                      FORMULATION = 'DISCRETE',
                      ZONE = (
                              _F(
                                  GROUP_MA_MAIT = 'CONT1_CO',
                                  GROUP_MA_ESCL = 'CONT1_EP',
                                  SANS_GROUP_NO = ('NO_DEP', 'NO_DCO',),
                                ),
                              _F(
                                  GROUP_MA_MAIT = 'CONT2_AP',
                                  GROUP_MA_ESCL = 'CONT2_EP',
                                ),
                             ),
                      );

# DEFINITION D'UNE RAMPE ET D'UNE LISTE D'INSTANTS
# ------------------------------------------------------------
CHRGY=DEFI_FONCTION(    NOM_PARA='INST',
                          VALE=(0.,   0.,
                                0.00005,   0.25, ),
                          PROL_DROITE='EXCLU',
                          PROL_GAUCHE='EXCLU'
                      )

CHRGX=DEFI_FONCTION(    NOM_PARA='INST',
                          VALE=( 0.,  0.,
                                 0.00005,  0., ),
                          PROL_DROITE='EXCLU',
                          PROL_GAUCHE='EXCLU'
                      )

CHT=AFFE_CHAR_MECA_F(    MODELE=MO,
                           DDL_IMPO=_F(  GROUP_NO = 'DEP_COUT',
                                      DY = CHRGY)
                       )

L_INST1=DEFI_LIST_REEL(    DEBUT=0.0,
              INTERVALLE=_F(  JUSQU_A = 0.00005,  NOMBRE = 5)
                         )


# APPLICATION DE LA CHARGE
# CALCUL DES CONTRAINTES, DES DEFORMATIONS ET DES REACTIONS
# ---------------------------------------------------------------
UP=STAT_NON_LINE(
            MODELE=MO,
            CHAM_MATER=CM,
            EXCIT=(
               _F(  CHARGE = CH),
               _F(  CHARGE = CHT)),
            CONTACT = CHCONT,
            COMPORTEMENT=(
            _F( PARM_THETA = 0.5,
                 RELATION = 'LEMAITRE',
                 DEFORMATION = 'PETIT_REAC',
                 GROUP_MA = 'EPROUV',
                 RESI_INTE_RELA = 1.E-9,
                 ITER_INTE_MAXI = 250,
                 ITER_INTE_PAS = -65),
           _F(
                RELATION = 'ELAS',
                DEFORMATION = 'PETIT',
                GROUP_MA = 'APPUI',
            ),
           _F(
                RELATION = 'ELAS',
                DEFORMATION = 'PETIT',
                GROUP_MA = 'COUTEAU')),
           INCREMENT=_F( LIST_INST = L_INST1,
                         INST_FIN= 2.E-5,),

           NEWTON=_F(  MATRICE = 'TANGENTE',
                   REAC_INCR = 1,
                   MATR_RIGI_SYME='OUI',
                   REAC_ITER = 1),
           CONVERGENCE=_F(  RESI_GLOB_RELA = 5.E-5,
                        ITER_GLOB_MAXI = 150,
                        ARRET = 'OUI',),
            )

UP=CALC_CHAMP(reuse=UP,CONTRAINTE=('SIGM_ELNO'),DEFORMATION=('EPSI_ELNO'),RESULTAT=UP)

UP=CALC_CHAMP( reuse=UP,
                  RESULTAT=UP,
                      FORCE='REAC_NODA'
              )
# IMPRESSION DES RESULTATS AU FORMAT 'POST_RELEVE'
# ------------------------------------------------------------
TFORCE=POST_RELEVE_T(
              ACTION=_F(
                  GROUP_NO = 'DEP_COUT',
                  INTITULE = 'FORCE',
                  RESULTAT = UP,
                  NOM_CHAM = 'REAC_NODA',
                  RESULTANTE = ('DY',),
                  OPERATION = 'EXTRACTION')
                           )

#####################################################
# TEST DES RESULTATS AU PREMIER INSTANT
#################################################
TEST_RESU(RESU=_F(NUME_ORDRE=2,
                  GROUP_NO='NO_COD',
                  RESULTAT=UP,
                  NOM_CHAM='DEPL',
                  NOM_CMP='DX',
                  VALE_CALC=0.013150273001,
                  TOLE_MACHINE=1.E-3,
                  CRITERE='RELATIF',),
          )

TEST_TABLE(CRITERE='RELATIF',
           VALE_CALC=367.537161027,
           TOLE_MACHINE=1.E-3,
           NOM_PARA='DY',
           TABLE=TFORCE,
           FILTRE=_F(NOM_PARA='NUME_ORDRE',
                     VALE_I=2,),
           )

UP2=STAT_NON_LINE(
            MODELE=MO,
            CHAM_MATER=CM2,
            EXCIT=(
               _F(  CHARGE = CH),
               _F(  CHARGE = CHT)),
            CONTACT = CHCONT,
            COMPORTEMENT=(
            _F(
                 RELATION = 'VMIS_ISOT_LINE',
                 DEFORMATION = 'PETIT_REAC',
                 GROUP_MA = 'EPROUV',
                 ITER_INTE_PAS = -65),

           _F(
                RELATION = 'ELAS',
                DEFORMATION = 'PETIT',
                GROUP_MA = 'APPUI'),
           _F(
                RELATION = 'ELAS',
                DEFORMATION = 'PETIT',
                GROUP_MA = 'COUTEAU')),
           INCREMENT=_F( LIST_INST = L_INST1,
                         INST_FIN= 2.E-5,),
           NEWTON=_F(  MATRICE = 'TANGENTE',
                   REAC_INCR = 1,
                   MATR_RIGI_SYME='OUI',
                   REAC_ITER = 1),
           CONVERGENCE=_F(  RESI_GLOB_RELA = 5.E-5,
                        ITER_GLOB_MAXI = 150,
                        ARRET = 'OUI'),
                   )
UP3=STAT_NON_LINE(
            MODELE=MO,
            CHAM_MATER=CM3,
            EXCIT=(
               _F(  CHARGE = CH),
               _F(  CHARGE = CHT)),
            CONTACT = CHCONT,
            COMPORTEMENT=(
            _F(
                 RELATION = 'VMIS_ISOT_TRAC',
                 DEFORMATION = 'PETIT_REAC',
                 GROUP_MA = 'EPROUV',
                 ITER_INTE_PAS = -65),

           _F(
                RELATION = 'ELAS',
                DEFORMATION = 'PETIT',
                GROUP_MA = 'APPUI'),
           _F(
                RELATION = 'ELAS',
                DEFORMATION = 'PETIT',
                GROUP_MA = 'COUTEAU')),
           INCREMENT=_F( LIST_INST = L_INST1,
                         INST_FIN= 2.E-5,),
           NEWTON=_F(  MATRICE = 'TANGENTE',
                   REAC_INCR = 1,
                   MATR_RIGI_SYME='OUI',
                   REAC_ITER = 1),
           CONVERGENCE=_F(  RESI_GLOB_RELA = 5.E-5,
                        ITER_GLOB_MAXI = 150,
                        ARRET = 'OUI'),
                   )
UP4=STAT_NON_LINE(
            MODELE=MO,
            CHAM_MATER=CM4,
            EXCIT=(
               _F(  CHARGE = CH),
               _F(  CHARGE = CHT)),
            CONTACT = CHCONT,
            COMPORTEMENT=(
            _F(
                 RELATION = 'VMIS_ECMI_TRAC',
                 DEFORMATION = 'PETIT_REAC',
                 GROUP_MA = 'EPROUV',
                 ITER_INTE_PAS = -65),

           _F(
                RELATION = 'ELAS',
                DEFORMATION = 'PETIT',
                GROUP_MA = 'APPUI'),
           _F(
                RELATION = 'ELAS',
                DEFORMATION = 'PETIT',
                GROUP_MA = 'COUTEAU')),
           INCREMENT=_F( LIST_INST = L_INST1,
                         INST_FIN= 2.E-5,),
           NEWTON=_F(  MATRICE = 'TANGENTE',
                   REAC_INCR = 1,
                   MATR_RIGI_SYME='OUI',
                   REAC_ITER = 1),
           CONVERGENCE=_F(  RESI_GLOB_RELA = 5.E-5,
                        ITER_GLOB_MAXI = 150,
                        ARRET = 'OUI'),
                   )
UP5=STAT_NON_LINE(
            MODELE=MO,
            CHAM_MATER=CM5,
            EXCIT=(
               _F(  CHARGE = CH),
               _F(  CHARGE = CHT)),
            CONTACT = CHCONT,
            COMPORTEMENT=(
            _F(
                 RELATION = 'VMIS_ECMI_LINE',
                 DEFORMATION = 'PETIT_REAC',
                 GROUP_MA = 'EPROUV',
                 ITER_INTE_PAS = -65),

           _F(
                RELATION = 'ELAS',
                DEFORMATION = 'PETIT',
                GROUP_MA = 'APPUI'),
           _F(
                RELATION = 'ELAS',
                DEFORMATION = 'PETIT',
                GROUP_MA = 'COUTEAU')),
           INCREMENT=_F( LIST_INST = L_INST1,
                         INST_FIN= 2.E-5,),
           NEWTON=_F(  MATRICE = 'TANGENTE',
                   REAC_INCR = 1,
                   MATR_RIGI_SYME='OUI',
                   REAC_ITER = 1),
           CONVERGENCE=_F(  RESI_GLOB_RELA = 5.E-5,
                        ITER_GLOB_MAXI = 150,
                        ARRET = 'OUI'),
                   )
UP6=STAT_NON_LINE(
            MODELE=MO,
            CHAM_MATER=CM6,
            EXCIT=(
               _F(  CHARGE = CH),
               _F(  CHARGE = CHT)),
            CONTACT = CHCONT,
            COMPORTEMENT=(
            _F(
                 RELATION = 'VMIS_CIN1_CHAB',
                 DEFORMATION = 'PETIT_REAC',
                 GROUP_MA = 'EPROUV',
                 RESI_INTE_RELA = 1.E-9,
                 ITER_INTE_MAXI = 250,
                 ITER_INTE_PAS = -65),

           _F(
                RELATION = 'ELAS',
                DEFORMATION = 'PETIT',
                GROUP_MA = 'APPUI'),
           _F(
                RELATION = 'ELAS',
                DEFORMATION = 'PETIT',
                GROUP_MA = 'COUTEAU')),
           INCREMENT=_F( LIST_INST = L_INST1,
                         INST_FIN= 2.E-5,),
           NEWTON=_F(  MATRICE = 'TANGENTE',
                   REAC_INCR = 1,
                   MATR_RIGI_SYME='OUI',
                   REAC_ITER = 1),
           CONVERGENCE=_F(  RESI_GLOB_RELA = 5.E-5,
                        ITER_GLOB_MAXI = 150,
                        ARRET = 'OUI'),
                   )
UP7=STAT_NON_LINE(
            MODELE=MO,
            CHAM_MATER=CM7,
            EXCIT=(
               _F(  CHARGE = CH),
               _F(  CHARGE = CHT)),
            CONTACT = CHCONT,
            COMPORTEMENT=(
            _F(
                 RELATION = 'VMIS_CIN2_CHAB',
                 DEFORMATION = 'PETIT_REAC',
                 GROUP_MA = 'EPROUV',
                 RESI_INTE_RELA = 1.E-9,
                 ITER_INTE_MAXI = 250,
                 ITER_INTE_PAS = -65),

           _F(
                RELATION = 'ELAS',
                DEFORMATION = 'PETIT',
                GROUP_MA = 'APPUI'),
           _F(
                RELATION = 'ELAS',
                DEFORMATION = 'PETIT',
                GROUP_MA = 'COUTEAU')),
           INCREMENT=_F( LIST_INST = L_INST1,
                         INST_FIN= 2.E-5,),
           NEWTON=_F(  MATRICE = 'TANGENTE',
                   REAC_INCR = 1,
                   MATR_RIGI_SYME='OUI',
                   REAC_ITER = 1),
           CONVERGENCE=_F(  RESI_GLOB_RELA = 5.E-5,
                        ITER_GLOB_MAXI = 150,
                        ARRET = 'OUI'),
                   )

UP9=STAT_NON_LINE(
            MODELE=MO,
            CHAM_MATER=CM9,
            EXCIT=(
               _F(  CHARGE = CH),
               _F(  CHARGE = CHT)),
            CONTACT = CHCONT,
            COMPORTEMENT=(
            _F(
                 RELATION = 'ROUSS_PR',
                 DEFORMATION = 'PETIT_REAC',
                 GROUP_MA = 'EPROUV',
                 RESI_INTE_RELA = 1.E-9,
                 ITER_INTE_MAXI = 250,
                 ITER_INTE_PAS = -65),
            _F(
                RELATION = 'ELAS',
                DEFORMATION = 'PETIT',
                GROUP_MA = 'APPUI'),
           _F(
                RELATION = 'ELAS',
                DEFORMATION = 'PETIT',
                GROUP_MA = 'COUTEAU')),
           INCREMENT=_F( LIST_INST = L_INST1,
                         INST_FIN= 2.E-5,),
           NEWTON=_F(  MATRICE = 'TANGENTE',
                   REAC_INCR = 1,
                   MATR_RIGI_SYME='OUI',
                   REAC_ITER = 1),
           CONVERGENCE=_F(  RESI_GLOB_RELA = 5.E-5,
                        ITER_GLOB_MAXI = 150,
                        ARRET = 'OUI'),
                   )

UP10=STAT_NON_LINE(
            MODELE=MO,
            CHAM_MATER=CM10,
            EXCIT=(
               _F(  CHARGE = CH),
               _F(  CHARGE = CHT)),
            CONTACT = CHCONT,
            COMPORTEMENT=(
            _F(
                 RELATION = 'ROUSS_VISC',
                 DEFORMATION = 'PETIT_REAC',
                 GROUP_MA = 'EPROUV',
                 RESI_INTE_RELA = 1.E-9,
                 ITER_INTE_MAXI = 250,
                 ITER_INTE_PAS = -65),
            _F(
                RELATION = 'ELAS',
                DEFORMATION = 'PETIT',
                GROUP_MA = 'APPUI'),
           _F(
                RELATION = 'ELAS',
                DEFORMATION = 'PETIT',
                GROUP_MA = 'COUTEAU')),
           INCREMENT=_F( LIST_INST = L_INST1,
                         INST_FIN= 2.E-5,),
           NEWTON=_F(  MATRICE = 'TANGENTE',
                   REAC_INCR = 1,
                   MATR_RIGI_SYME='OUI',
                   REAC_ITER = 1),
           CONVERGENCE=_F(  RESI_GLOB_RELA = 5.E-5,
                        ITER_GLOB_MAXI = 150,
                        ARRET = 'OUI'),
                   )

UP11=STAT_NON_LINE(
            MODELE=MO,
            CHAM_MATER=CM9,
            EXCIT=(
               _F(  CHARGE = CH),
               _F(  CHARGE = CHT)),
            CONTACT = CHCONT,
            COMPORTEMENT=(
            _F(
                 RELATION = 'ROUSSELIER',
                 DEFORMATION = 'SIMO_MIEHE',
                 GROUP_MA = 'EPROUV',
                 RESI_INTE_RELA = 1.E-9,
                 ITER_INTE_MAXI = 250),
            _F(
                RELATION = 'ELAS',
                DEFORMATION = 'PETIT',
                GROUP_MA = 'APPUI'),
           _F(
                RELATION = 'ELAS',
                DEFORMATION = 'PETIT',
                GROUP_MA = 'COUTEAU')),
           INCREMENT=_F( LIST_INST = L_INST1,
                         INST_FIN= 2.E-5,),
           NEWTON=_F(  MATRICE = 'TANGENTE',
                   REAC_INCR = 1,
                   MATR_RIGI_SYME='OUI',
                   REAC_ITER = 1),
           CONVERGENCE=_F(  RESI_GLOB_RELA = 5.E-5,
                        ITER_GLOB_MAXI = 150,
                        ARRET = 'OUI'),
                   )

UP12=STAT_NON_LINE(
            MODELE=MO,
            CHAM_MATER=CM12,
            EXCIT=(
               _F(  CHARGE = CH),
               _F(  CHARGE = CHT)),
            CONTACT = CHCONT,
            COMPORTEMENT=(
            _F(
                 RELATION = 'VISC_ISOT_TRAC',
                 DEFORMATION = 'SIMO_MIEHE',
                 GROUP_MA = 'EPROUV',
                 RESI_INTE_RELA = 1.E-9,
                 ITER_INTE_MAXI = 250,),
            _F(
                RELATION = 'ELAS',
                DEFORMATION = 'PETIT',
                GROUP_MA = 'APPUI'),
           _F(
                RELATION = 'ELAS',
                DEFORMATION = 'PETIT',
                GROUP_MA = 'COUTEAU')),
           INCREMENT=_F( LIST_INST = L_INST1,
                         INST_FIN= 2.E-5,),
           NEWTON=_F(  MATRICE = 'TANGENTE',
                   REAC_INCR = 1,
                   MATR_RIGI_SYME='OUI',
                   REAC_ITER = 1),
           CONVERGENCE=_F(  RESI_GLOB_RELA = 5.E-5,
                        ITER_GLOB_MAXI = 150,
                        ARRET = 'OUI'),
                   )


# PROBABILITE DE WEIBULL


WEIB=POST_ELEM(    MODELE=MO,
                   CHAM_MATER=CM,
                   RESULTAT=UP,

                  WEIBULL=_F( GROUP_MA = 'EPROUV',
                 COEF_MULT = 20.,
                 OPTION = 'SIGM_ELMOY',
                 CORR_PLAST = 'NON')
                  )

TEST_TABLE(CRITERE='ABSOLU',
           VALE_CALC=1.23601958342E-05,

           NOM_PARA='PROBA_WEIBULL',
           TABLE=WEIB,
           FILTRE=_F(NOM_PARA='NUME_ORDRE',
                     VALE_I=2,),
           )

WEIB2=POST_ELEM(    MODELE=MO,
                   CHAM_MATER=CM2,
                   RESULTAT=UP2,

                  WEIBULL=_F( GROUP_MA = 'EPROUV',
                 COEF_MULT = 20.,
                 OPTION = 'SIGM_ELMOY',
                 CORR_PLAST = 'NON')
                  )

TEST_TABLE(CRITERE='ABSOLU',
           VALE_CALC=7.73911724194E-06,

           NOM_PARA='PROBA_WEIBULL',
           TABLE=WEIB2,
           FILTRE=_F(NOM_PARA='NUME_ORDRE',
                     VALE_I=2,),
           )

WEIB3=POST_ELEM(    MODELE=MO,
                   CHAM_MATER=CM3,
                   RESULTAT=UP3,

                  WEIBULL=_F( GROUP_MA = 'EPROUV',
                 COEF_MULT = 20.,
                 OPTION = 'SIGM_ELMOY',
                 CORR_PLAST = 'NON')
                  )

TEST_TABLE(CRITERE='ABSOLU',
           VALE_CALC=7.74902472755E-06,

           NOM_PARA='PROBA_WEIBULL',
           TABLE=WEIB3,
           FILTRE=_F(NOM_PARA='NUME_ORDRE',
                     VALE_I=2,),
           )

WEIB4=POST_ELEM(    MODELE=MO,
                   CHAM_MATER=CM4,
                   RESULTAT=UP4,

                  WEIBULL=_F( GROUP_MA = 'EPROUV',
                 COEF_MULT = 20.,
                 OPTION = 'SIGM_ELMOY',
                 CORR_PLAST = 'NON')
                  )

TEST_TABLE(CRITERE='ABSOLU',
           VALE_CALC=7.74902472755E-06,

           NOM_PARA='PROBA_WEIBULL',
           TABLE=WEIB4,
           FILTRE=_F(NOM_PARA='NUME_ORDRE',
                     VALE_I=2,),
           )

WEIB5=POST_ELEM(    MODELE=MO,
                   CHAM_MATER=CM5,
                   RESULTAT=UP5,

                  WEIBULL=_F( GROUP_MA = 'EPROUV',
                 COEF_MULT = 20.,
                 OPTION = 'SIGM_ELMOY',
                 CORR_PLAST = 'NON')
                  )

TEST_TABLE(CRITERE='ABSOLU',
           VALE_CALC=7.73911724194E-06,

           NOM_PARA='PROBA_WEIBULL',
           TABLE=WEIB5,
           FILTRE=_F(NOM_PARA='NUME_ORDRE',
                     VALE_I=2,),
           )

WEIB6=POST_ELEM(    MODELE=MO,
                   CHAM_MATER=CM6,
                   RESULTAT=UP6,

                  WEIBULL=_F( GROUP_MA = 'EPROUV',
                 COEF_MULT = 20.,
                 OPTION = 'SIGM_ELMOY',
                 CORR_PLAST = 'NON')
                  )

TEST_TABLE(CRITERE='ABSOLU',
           VALE_CALC=7.18397871746E-06,

           NOM_PARA='PROBA_WEIBULL',
           TABLE=WEIB6,
           FILTRE=_F(NOM_PARA='NUME_ORDRE',
                     VALE_I=2,),
           )

WEIB7=POST_ELEM(    MODELE=MO,
                   CHAM_MATER=CM7,
                   RESULTAT=UP7,

                  WEIBULL=_F( GROUP_MA = 'EPROUV',
                 COEF_MULT = 20.,
                 OPTION = 'SIGM_ELMOY',
                 CORR_PLAST = 'NON')
                  )

TEST_TABLE(CRITERE='ABSOLU',
           VALE_CALC=7.74489331556E-06,

           NOM_PARA='PROBA_WEIBULL',
           TABLE=WEIB7,
           FILTRE=_F(NOM_PARA='NUME_ORDRE',
                     VALE_I=2,),
           )

WEIB9=POST_ELEM(MODELE=MO,
                CHAM_MATER=CM9,
                RESULTAT=UP9,

                WEIBULL=_F( GROUP_MA = 'EPROUV',
                COEF_MULT = 20.,
                OPTION = 'SIGM_ELMOY',
                CORR_PLAST = 'NON'))

TEST_TABLE(CRITERE='ABSOLU',
           VALE_CALC=7.67481672947E-06,

           NOM_PARA='PROBA_WEIBULL',
           TABLE=WEIB9,
           FILTRE=_F(NOM_PARA='NUME_ORDRE',
                     VALE_I=2,),
           )

WEIB10=POST_ELEM(MODELE=MO,
                 CHAM_MATER=CM10,
                 RESULTAT=UP10,

                 WEIBULL=_F( GROUP_MA = 'EPROUV',
                 COEF_MULT = 20.,
                 OPTION = 'SIGM_ELMOY',
                 CORR_PLAST = 'NON'))

TEST_TABLE(CRITERE='ABSOLU',
           VALE_CALC=0.000141747573299,

           NOM_PARA='PROBA_WEIBULL',
           TABLE=WEIB10,
           FILTRE=_F(NOM_PARA='NUME_ORDRE',
                     VALE_I=2,),
           )

WEIB11=POST_ELEM(MODELE=MO,
                CHAM_MATER=CM9,
                RESULTAT=UP11,

                WEIBULL=_F( GROUP_MA = 'EPROUV',
                COEF_MULT = 20.,
                OPTION = 'SIGM_ELMOY',
                CORR_PLAST = 'NON'))

TEST_TABLE(CRITERE='ABSOLU',
           VALE_CALC=6.35214357558E-06,

           NOM_PARA='PROBA_WEIBULL',
           TABLE=WEIB11,
           FILTRE=_F(NOM_PARA='NUME_ORDRE',
                     VALE_I=2,),
           )

WEIB12=POST_ELEM(MODELE=MO,
                 CHAM_MATER=CM12,
                 RESULTAT=UP12,

                 WEIBULL=_F( GROUP_MA = 'EPROUV',
                 COEF_MULT = 20.,
                 OPTION = 'SIGM_ELMOY',
                 CORR_PLAST = 'NON'))

TEST_TABLE(CRITERE='ABSOLU',
           VALE_CALC=0.0001377129226,

           NOM_PARA='PROBA_WEIBULL',
           TABLE=WEIB12,
           FILTRE=_F(NOM_PARA='NUME_ORDRE',
                     VALE_I=2,),
           )

FIN()
#
