# TITRE : VALIDATION DE LA TEMPERATURE DANS ENDO_ISOT_BETON
#            CONFIGURATION MANAGEMENT OF EDF VERSION
# ======================================================================
# COPYRIGHT (C) 1991 - 2012  EDF R&D                  WWW.CODE-ASTER.ORG
# THIS PROGRAM IS FREE SOFTWARE; YOU CAN REDISTRIBUTE IT AND/OR MODIFY
# IT UNDER THE TERMS OF THE GNU GENERAL PUBLIC LICENSE AS PUBLISHED BY
# THE FREE SOFTWARE FOUNDATION; EITHER VERSION 2 OF THE LICENSE, OR
# (AT YOUR OPTION) ANY LATER VERSION.
#
# THIS PROGRAM IS DISTRIBUTED IN THE HOPE THAT IT WILL BE USEFUL, BUT
# WITHOUT ANY WARRANTY; WITHOUT EVEN THE IMPLIED WARRANTY OF
# MERCHANTABILITY OR FITNESS FOR A PARTICULAR PURPOSE. SEE THE GNU
# GENERAL PUBLIC LICENSE FOR MORE DETAILS.
#
# YOU SHOULD HAVE RECEIVED A COPY OF THE GNU GENERAL PUBLIC LICENSE
# ALONG WITH THIS PROGRAM; IF NOT, WRITE TO EDF R&D CODE_ASTER,
#    1 AVENUE DU GENERAL DE GAULLE, 92141 CLAMART CEDEX, FRANCE.
# ======================================================================

DEBUT(CODE=_F(NOM='COMP011E',NIV_PUB_WEB='INTERNET'),DEBUG=_F(SDVERI='NON'))
# SDVERI='NON' car la verification est trop couteuse en CPU

import numpy as N


#-----------------------------------------------------#
# DEFINITION MATERIAUX
#-----------------------------------------------------#

TREF = 20.
T0   = TREF
Tmax = 500.

tmax = 1.
NCAL = 20

ZERO = DEFI_CONSTANTE(VALE = 0.0)
UN   = DEFI_CONSTANTE(VALE = 1.0)

nu = 0.02
POISSON = DEFI_CONSTANTE(VALE = nu);

YOUN = DEFI_FONCTION(NOM_PARA = 'TEMP',VALE = (  0., 30000.0E6,
                                               500., 20000.0E6, ),)

ALPH = DEFI_FONCTION(NOM_PARA = 'TEMP',VALE = (  0., 1.E-5,
                                               500., 2.E-5, ),)

syt = 3.0E6
syc = 2.0E8
dsigdeps = -6000.0E6

MATER = DEFI_MATERIAU(ELAS_FO = _F(E  = YOUN,
                                   NU = POISSON,
                                   TEMP_DEF_ALPHA = TREF,
                                   ALPHA = ALPH,),
              BETON_ECRO_LINE = _F( SYT         =  syt,
                                    D_SIGM_EPSI =  dsigdeps,
                                    SYC         =  syc),)

LMAT2 = [None]*(NCAL)
time  = 0.
tfin  = 1.

for i in range(NCAL) :
    timem = time
    time  = timem + tfin/NCAL
    Ti = TREF + time/tfin  * (Tmax - TREF)
    Tm = TREF + timem/tfin * (Tmax - TREF)

    LMAT2[i] = DEFI_MATERIAU(ELAS = _F(E     = YOUN(Ti),
                                       NU    = nu,
                                       ALPHA = 0.,),
                  BETON_ECRO_LINE = _F(SYT         = syt,
                                       D_SIGM_EPSI = dsigdeps,
                                       SYC         = syc), )


#-----------------------------------------------------#
# TEST DU COMPORTEMENT A LA TEMPERATURE
#-----------------------------------------------------#

compor = 'ENDO_ISOT_BETON'
Nbvari = 2

tabresu = TEST_COMPOR( MATER      = MATER,
                       COMP_INCR  = _F(RELATION=compor),
                       LIST_MATER = LMAT2,
                       ALPHA      = ALPH,
                       YOUNG      = YOUN,
                       TEMP_INIT  = TREF,
                       TEMP_FIN   = Tmax,
                       NEWTON     = _F(REAC_ITER=1),
                       NB_VARI    = Nbvari, )

#IMPR_TABLE(TABLE = tabresu)

FIN()
