# MODIF  DATE 01/02/2011   AUTEUR PROIX J-M.PROIX 
# RESPONSABLE PROIX J-M.PROIX
# TITRE : VARIATION TEMPERATURE DANS LE COMPORTEMENT 'VMIS_CINE_LINE' 
# comp008d.para = tps_job 120 mem_job 64Mo ncpus 1 liste_test S
#            CONFIGURATION MANAGEMENT OF EDF VERSION
# ======================================================================
# COPYRIGHT (C) 1991 - 2011  EDF R&D                  WWW.CODE-ASTER.ORG
# THIS PROGRAM IS FREE SOFTWARE; YOU CAN REDISTRIBUTE IT AND/OR MODIFY  
# IT UNDER THE TERMS OF THE GNU GENERAL PUBLIC LICENSE AS PUBLISHED BY  
# THE FREE SOFTWARE FOUNDATION; EITHER VERSION 2 OF THE LICENSE, OR     
# (AT YOUR OPTION) ANY LATER VERSION.                                                    
#                                                                       
# THIS PROGRAM IS DISTRIBUTED IN THE HOPE THAT IT WILL BE USEFUL, BUT   
# WITHOUT ANY WARRANTY; WITHOUT EVEN THE IMPLIED WARRANTY OF            
# MERCHANTABILITY OR FITNESS FOR A PARTICULAR PURPOSE. SEE THE GNU      
# GENERAL PUBLIC LICENSE FOR MORE DETAILS.                              
#                                                                       
# YOU SHOULD HAVE RECEIVED A COPY OF THE GNU GENERAL PUBLIC LICENSE     
# ALONG WITH THIS PROGRAM; IF NOT, WRITE TO EDF R&D CODE_ASTER,         
#    1 AVENUE DU GENERAL DE GAULLE, 92141 CLAMART CEDEX, FRANCE.        
# ======================================================================
# CAS-TEST DE REFERENCE : 
#===================================================================== 

DEBUT(CODE=_F(NOM='COMP008D',NIV_PUB_WEB='INTERNET'),)
#=====================================================================
#               INITIALISATIONS
#=====================================================================
#
TREF = 20.

T0 = TREF
Tmax = 500.

tfin = 1.

NCAL = 10


ZERO =DEFI_CONSTANTE(VALE=0.0);

UN =DEFI_CONSTANTE(VALE=1.0);

compor='VMIS_CINE_LINE'

NB_VARI=7

NVmodif1=0
NVmodif2=5

#=====================================================================
#               MATERIAU  FONCTION  DE  LA  TEMPERATURE
#=====================================================================

YOUN=DEFI_FONCTION(NOM_PARA='TEMP',VALE=(T0, 200000.,
                                         Tmax, 100000.,                                   
                                           ),);
ALPH=DEFI_FONCTION(NOM_PARA='TEMP',VALE=(T0, 1.E-5,
                                        Tmax, 2.E-5,
                                           ),);
SIGY=DEFI_FONCTION(NOM_PARA='TEMP',VALE=(T0, 100.,
                                         Tmax, 50.,
                                           ),);

DSDE=DEFI_FONCTION(NOM_PARA='TEMP',VALE=(T0, 10000.,
                                         Tmax, 5000.,
                                           ),);

C_PRAG=DEFI_FONCTION(NOM_PARA='TEMP',VALE=(T0, 2000.,
                                         Tmax, 500.,
                                           ),);

MATERI=DEFI_MATERIAU(ELAS_FO=_F(E=YOUN,
                               NU=ZERO,
                               TEMP_DEF_ALPHA=TREF,
                               ALPHA=ALPH,),
                     ECRO_LINE_FO=_F(D_SIGM_EPSI=DSDE,
                                              SY=SIGY,),
                     PRAGER_FO=_F(C=C_PRAG),                         
                  );

LMAT2  = [None]*(NCAL)
time=0.
for i in range(NCAL):        
    timem = time     
    time = timem + tfin/NCAL
    Ti = T0 + time/tfin * (Tmax - T0)
    Tm = T0 + timem/tfin * (Tmax - T0)
    LMAT2[i]=DEFI_MATERIAU(ELAS =_F(E=YOUN(Ti),
                                        NU=0.,
                                        ALPHA=0.,),
                           ECRO_LINE=_F(D_SIGM_EPSI=DSDE(Ti),
                                                 SY=SIGY(Ti),),
                           PRAGER=_F(C=C_PRAG(Ti)),                      
                                );



############################################################################
# MACRO pour test thermoplastique


tabresu=TEST_COMPOR(
              MATER=MATERI,COMP_INCR=_F(RELATION=compor),D_SIGM_EPSI=DSDE,
              LIST_MATER=LMAT2,ALPHA=ALPH,YOUNG=YOUN,TEMP_INIT=T0,TEMP_FIN=Tmax,NEWTON=_F(REAC_ITER=1),
              NB_VARI=NB_VARI, 
              VARI_TEST=('V1','V2'),
              INST_FIN=tfin,
              )

IMPR_TABLE(TABLE=tabresu)

FIN();
