# MODIF  DATE 18/01/2011   AUTEUR PROIX J-M.PROIX 
# RESPONSABLE PROIX J-M.PROIX
# TITRE : VARIATION TEMPERATURE DANS LE COMPORTEMENT 'VENDOCHAB' 
# comp008e.para = tps_job 300 mem_job 512Mo ncpus 1 liste_test S
#            CONFIGURATION MANAGEMENT OF EDF VERSION
# ======================================================================
# COPYRIGHT (C) 1991 - 2011  EDF R&D                  WWW.CODE-ASTER.ORG
# THIS PROGRAM IS FREE SOFTWARE; YOU CAN REDISTRIBUTE IT AND/OR MODIFY  
# IT UNDER THE TERMS OF THE GNU GENERAL PUBLIC LICENSE AS PUBLISHED BY  
# THE FREE SOFTWARE FOUNDATION; EITHER VERSION 2 OF THE LICENSE, OR     
# (AT YOUR OPTION) ANY LATER VERSION.                                                    
#                                                                       
# THIS PROGRAM IS DISTRIBUTED IN THE HOPE THAT IT WILL BE USEFUL, BUT   
# WITHOUT ANY WARRANTY; WITHOUT EVEN THE IMPLIED WARRANTY OF            
# MERCHANTABILITY OR FITNESS FOR A PARTICULAR PURPOSE. SEE THE GNU      
# GENERAL PUBLIC LICENSE FOR MORE DETAILS.                              
#                                                                       
# YOU SHOULD HAVE RECEIVED A COPY OF THE GNU GENERAL PUBLIC LICENSE     
# ALONG WITH THIS PROGRAM; IF NOT, WRITE TO EDF R&D CODE_ASTER,         
#    1 AVENUE DU GENERAL DE GAULLE, 92141 CLAMART CEDEX, FRANCE.        
# ======================================================================
# CAS-TEST DE REFERENCE : SSNV183A
#===================================================================== 

DEBUT(CODE=_F(NOM='COMP008E',NIV_PUB_WEB='INTERNET'),PAR_LOT='NON')
#=====================================================================
#               INITIALISATIONS
#=====================================================================
# 

import numpy as N


MATER  = [None]*40
RESU   = [None]*40

TREF = 20.
T0   = TREF
Tmax = 500.

epsi = 1.E-10

ZERO = DEFI_CONSTANTE(VALE=0.0);

UN   = DEFI_CONSTANTE(VALE=1.0);

tmax = 1.

NCAL = 30

compor='VENDOCHAB'

# Nombre de variable interne
Nbvari = 10

#=====================================================================
#               MATERIAU  FONCTION  DE  LA  TEMPERATURE
#=====================================================================
 
YOUN=DEFI_FONCTION(  NOM_PARA='TEMP',
                     VALE=(T0,   150000,
                           Tmax, 100000,)  )

ALPH=DEFI_FONCTION(NOM_PARA='TEMP',VALE=(T0,   1.0E-5,
                                         Tmax, 2.0E-5,),);

# Parametre de la loi de Lemaitre
N_F=DEFI_FONCTION(NOM_PARA='TEMP',VALE=(T0,   12.,
                                        Tmax, 15.,),);

UNSK_F=DEFI_FONCTION(NOM_PARA='TEMP',VALE=(T0,   5.E-3,
                                           Tmax, 1.E-3,),);

UNSM_F=DEFI_FONCTION(NOM_PARA='TEMP',VALE=(T0,   .0,
                                           Tmax, 0.1111));

# Parametre de la loi de Chaboche
SY_F=DEFI_FONCTION(NOM_PARA='TEMP',VALE=(T0,   0.,
                                         Tmax, 9E2,),);

ALPHAD_F=DEFI_FONCTION(NOM_PARA='TEMP',VALE=(T0,   0.,
                                             Tmax, 1.,),);

BETAD_F=DEFI_FONCTION(NOM_PARA='TEMP',VALE=(T0,   0.,
                                            Tmax, 1.,),);

RD_F=DEFI_FONCTION(NOM_PARA='TEMP',VALE=(T0,   6.,
                                         Tmax, 7,),);

AD_F=DEFI_FONCTION(NOM_PARA='TEMP',VALE=(T0,   3.0E3,
                                         Tmax, 3.5E3,),);

KD_F=DEFI_FONCTION(NOM_PARA='TEMP',VALE=(T0,   15.,
                                         Tmax, 10.,),);

MATERI=DEFI_MATERIAU(ELAS_FO=_F(E=YOUN,
                                NU=ZERO,
                                TEMP_DEF_ALPHA=TREF,
                                ALPHA=ALPH,),
                     LEMAITRE_FO=_F(N=N_F,
                                    UN_SUR_K=UNSK_F,
                                    UN_SUR_M=UNSM_F,
                                    ),
                     VENDOCHAB_FO=_F(SY=SY_F,
                                     ALPHA_D=ALPHAD_F,
                                     BETA_D=BETAD_F,
                                     R_D=RD_F,
                                     A_D=AD_F,
                                     K_D=KD_F,
                                     ),
                      );

L_INST=DEFI_LIST_REEL(DEBUT=0.,
                      INTERVALLE=(_F(JUSQU_A=1.,
                                     NOMBRE=NCAL,),
                                     ),
                      );

TIMP=DEFI_FONCTION(NOM_PARA='INST',  NOM_RESU='TEMP',
                   VALE=(  0. , T0, 1. , Tmax)
                   )

U=SIMU_POINT_MAT(COMP_INCR=_F(RELATION=compor,),
                 MATER=MATERI,
                 SUPPORT='ELEMENT',
                   AFFE_VARC=(
                   _F(  NOM_VARC='TEMP',
                        VALE_FONC=TIMP,
                        VALE_REF=TREF),
                        ),
                 INCREMENT=_F(LIST_INST=L_INST,),
                 NEWTON=_F(PREDICTION='ELASTIQUE',
                           MATRICE='TANGENTE',
                           REAC_ITER=1,),
                 EPSI_IMPOSE=_F(EPXX=ZERO,),
                 INFO=1,);

IMPR_TABLE(TABLE=U,);


SXM = 0.
EXM = 0.

Vim = N.zeros(Nbvari)

time = 0.


for i in range(NCAL):
          
          timem = time 
          
          time = timem + tmax/NCAL
            
          Ti = T0 + time/tmax * (Tmax - T0)
          
          Tm = T0 + timem/tmax * (Tmax - T0)
          
          # deformation mecanique imposee correspondant a la deformation thermique du premier calcul
          
          epsimp =DEFI_CONSTANTE(VALE=-ALPH(Ti)*(Ti - TREF));

          print 'i=',i, ' instant=', time, ' Temperature=',Ti
          
          # variation des coef du comportement avec la temperature
          # correction eventuelle des valeurs initiales du temps ti 
          
          if i > 0 :
             SXM = SXM *(YOUN(Ti)/YOUN(Tm))
             
          MATER[i]=DEFI_MATERIAU(ELAS =_F(E=YOUN(Ti),
                                          NU=0.,
                                          ALPHA=0.,),
                                 LEMAITRE=_F(N=N_F(Ti),
                                             UN_SUR_K=UNSK_F(Ti),
                                             UN_SUR_M=UNSM_F(Ti),
                                             ),
                                 VENDOCHAB=_F(SY=SY_F(Ti),
                                              ALPHA_D=ALPHAD_F(Ti),
                                              BETA_D=BETAD_F(Ti),
                                              R_D=RD_F(Ti),
                                              A_D=AD_F(Ti),
                                              K_D=KD_F(Ti),
                                              ),
                                  );

          list = DEFI_LIST_REEL(DEBUT=timem,
                      INTERVALLE=(_F(JUSQU_A=time,NOMBRE=1,),),);
                                     
          RESU[i]=SIMU_POINT_MAT(COMP_INCR=_F(RELATION=compor,),
                                 MATER=MATER[i],
                                 SUPPORT='ELEMENT',
                                 INCREMENT=_F(LIST_INST = list, ),
                                 NEWTON=_F( PREDICTION='ELASTIQUE',
                                             MATRICE='TANGENTE',
                                             REAC_ITER=1,),
                                 EPSI_IMPOSE=_F(EPXX=epsimp),
                                 VARI_INIT=_F(VALE=[Vim[j] for j in range(Nbvari)]),
                                 SIGM_INIT=_F(SIXX=SXM),
                                 EPSI_INIT=_F(EPXX=EXM, EPYY=0.,EPZZ=0.,EPXY=0.,EPXZ=0.,EPYZ=0.),
                                 INFO=1,);
                                 
          # recuperation des valeurs initiales du futur pas de temps dans la table resultat
          
          EXM = RESU[i]['EPXX',1]
             
          SXM = RESU[i]['SIXX',1]

          for j in range(Nbvari):
             Vim[j] = RESU[i]['V'+str(j+1),1]
          
          IMPR_TABLE(TABLE=RESU[i]);
          
          DETRUIRE ( CONCEPT =  _F (NOM =epsimp),);
          DETRUIRE ( CONCEPT =  _F (NOM =list),);
          
          TEST_TABLE(TABLE=RESU[i],
                     NOM_PARA='VMIS',VALE=U['VMIS',i+1],
                     FILTRE=_F(NOM_PARA='INST',VALE=time),
                     REFERENCE='AUTRE_ASTER',);

          TEST_TABLE(TABLE=RESU[i],
                     NOM_PARA='TRACE',VALE=U['TRACE',i+1],
                     FILTRE=_F(NOM_PARA='INST',VALE=time),
                     REFERENCE='AUTRE_ASTER',);

          for j in range(Nbvari):
             nomvari='V'+str(j+1)
             if U[nomvari,i+1] > epsi :
                TEST_TABLE(TABLE=RESU[i],
                     NOM_PARA=nomvari,VALE=U[nomvari,i+1],
                     FILTRE=_F(NOM_PARA='INST',VALE=time),
                     REFERENCE='AUTRE_ASTER',);

FIN();
