# MODIF  DATE 08/02/2011   AUTEUR PROIX J-M.PROIX 
# RESPONSABLE PROIX J-M.PROIX
# TITRE  TEST LOI DE COMPORTEMENT 3D  VISC_CIN1_CHAB
# comp002c.para = tps_job 560 mem_job 512Mo mem_aster 20 ncpus 1 liste_test S
#            CONFIGURATION MANAGEMENT OF EDF VERSION
# ======================================================================
# COPYRIGHT (C) 1991 - 2011  EDF R&D                  WWW.CODE-ASTER.ORG
# THIS PROGRAM IS FREE SOFTWARE; YOU CAN REDISTRIBUTE IT AND/OR MODIFY  
# IT UNDER THE TERMS OF THE GNU GENERAL PUBLIC LICENSE AS PUBLISHED BY  
# THE FREE SOFTWARE FOUNDATION; EITHER VERSION 2 OF THE LICENSE, OR     
# (AT YOUR OPTION) ANY LATER VERSION.                                                    
#                                                                       
# THIS PROGRAM IS DISTRIBUTED IN THE HOPE THAT IT WILL BE USEFUL, BUT   
# WITHOUT ANY WARRANTY; WITHOUT EVEN THE IMPLIED WARRANTY OF            
# MERCHANTABILITY OR FITNESS FOR A PARTICULAR PURPOSE. SEE THE GNU      
# GENERAL PUBLIC LICENSE FOR MORE DETAILS.                              
#                                                                       
# YOU SHOULD HAVE RECEIVED A COPY OF THE GNU GENERAL PUBLIC LICENSE     
# ALONG WITH THIS PROGRAM; IF NOT, WRITE TO EDF R&D CODE_ASTER,         
#    1 AVENUE DU GENERAL DE GAULLE, 92141 CLAMART CEDEX, FRANCE.        
# ======================================================================
# VISCOPLASTIQUE modele Chaboche
#......................................................................


DEBUT(CODE=_F(NOM='COMP002C',NIV_PUB_WEB='INTERNET',VISU_EFICAS='NON'),);



YOUNG = 200000.0;
POISSON = 0.3;
#parametres viscosite
Minv = 0.0
Kinv= 3.2841e-4
N = 11
# parametres loi de chaboche
SY = 437.0;
Rinf = 758.0;
b = 2.3;
C1inf = 63767.0/2.0
C2inf = 63767.0/2.0
Gam1 = 341.0
Gam2 = 341.0
# def des materiaux
ACIER = [None]*2
#unite en Pa
C_Pa = 1.e+6
YOUNG_Pa = YOUNG * C_Pa
SY_Pa = SY * C_Pa;
Rinf_Pa = Rinf * C_Pa;
C1inf_Pa = C1inf * C_Pa;
C2inf_Pa = C2inf * C_Pa;
Kinv_Pa = Kinv / C_Pa;
ACIER[0]=DEFI_MATERIAU(ELAS=_F(E=YOUNG_Pa,
                               NU=POISSON,
                               ALPHA=11.8e-6),
                    LEMAITRE=_F( N = N,UN_SUR_K = Kinv_Pa ,UN_SUR_M = Minv),
                    CIN2_CHAB=_F(R_I = Rinf_Pa,
                                 R_0 = SY_Pa,
                                 B  = b,
                                 C1_I  = C1inf_Pa,
                                 C2_I  = C2inf_Pa,
                                 G1_0  = Gam1,
                                 G2_0  = Gam2,
                                 ),
                                 );
#unite en MPa
ACIER[1]=DEFI_MATERIAU(ELAS=_F(E=YOUNG,
                               NU=POISSON,
                               ALPHA=11.8e-6),
                       LEMAITRE=_F( N = N,UN_SUR_K = Kinv ,UN_SUR_M = Minv),
                       CIN2_CHAB=_F(R_I = Rinf,
                                    R_0 = SY,
                                    B  = b,
                                    C1_I  = C1inf,
                                    C2_I  = C2inf,
                                    G1_0  = Gam1,
                                    G2_0  = Gam2,
                                 ),
                                 );

compor='VISC_CIN2_CHAB'

tabresu=TEST_COMPOR(OPTION='MECA',

                   COMP_INCR=_F(RELATION=compor,ITER_INTE_MAXI=100),
              NEWTON=_F(REAC_ITER=1),
              LIST_MATER=ACIER,
              LIST_NPAS=4*[10] + [10, 25, 50],              
              VARI_TEST=('V1','VMIS','TRACE'),
              LIST_TOLE=4*[1.E-10] + [5.E-1] + 2*[11.E-2] + [1.E-3] , 
              YOUNG=YOUNG,POISSON=POISSON,
              )

IMPR_TABLE(TABLE=tabresu)


FIN()

