# MODIF  DATE 26/04/2011   AUTEUR SFAYOLLE S.FAYOLLE 
# RESPONSABLE PROIX J-M.PROIX
# TITRE  TEST LOI DE COMPORTEMENT 3D  VISC_ENDO_LEMA
# comp002d.para = tps_job 300 mem_job 512Mo mem_aster 20 ncpus 1 liste_test S
#            CONFIGURATION MANAGEMENT OF EDF VERSION
# ======================================================================
# COPYRIGHT (C) 1991 - 2011  EDF R&D                  WWW.CODE-ASTER.ORG
# THIS PROGRAM IS FREE SOFTWARE; YOU CAN REDISTRIBUTE IT AND/OR MODIFY  
# IT UNDER THE TERMS OF THE GNU GENERAL PUBLIC LICENSE AS PUBLISHED BY  
# THE FREE SOFTWARE FOUNDATION; EITHER VERSION 2 OF THE LICENSE, OR     
# (AT YOUR OPTION) ANY LATER VERSION.                                                    
#                                                                       
# THIS PROGRAM IS DISTRIBUTED IN THE HOPE THAT IT WILL BE USEFUL, BUT   
# WITHOUT ANY WARRANTY; WITHOUT EVEN THE IMPLIED WARRANTY OF            
# MERCHANTABILITY OR FITNESS FOR A PARTICULAR PURPOSE. SEE THE GNU      
# GENERAL PUBLIC LICENSE FOR MORE DETAILS.                              
#                                                                       
# YOU SHOULD HAVE RECEIVED A COPY OF THE GNU GENERAL PUBLIC LICENSE     
# ALONG WITH THIS PROGRAM; IF NOT, WRITE TO EDF R&D CODE_ASTER,         
#    1 AVENUE DU GENERAL DE GAULLE, 92141 CLAMART CEDEX, FRANCE.        
# ======================================================================
#......................................................................


DEBUT(CODE=_F(NOM='COMP002D',NIV_PUB_WEB='INTERNET',VISU_EFICAS='NON'),IMPR_MACRO='OUI');



#parmetres elastiques
YOUNG = 200000.0
POISSON = 0.3

#parametres viscosite

S=0.0  
N=12.0 
UN_SUR_M=(1.0/9.0)  
UN_SUR_K= (1.0/2110.0)
 
#parametres endommagement

R_D=6.3  
A_D=3191.0


# def des materiaux
ACIER = [None]*2
#unite en Pa
C_Pa = 1.e+6
YOUNG_Pa = YOUNG * C_Pa
UN_SUR_K_Pa = UN_SUR_K * (1.0/C_Pa);
A_D_Pa  = A_D*C_Pa

ACIER[0]=DEFI_MATERIAU(ELAS=_F(E=YOUNG_Pa,
                               NU=POISSON,
                                              ALPHA=11.8e-6),
                    LEMAITRE=_F( N  = N,
                                 UN_SUR_M  = UN_SUR_M,
                                 UN_SUR_K  = UN_SUR_K_Pa, 
                    ),
                    VISC_ENDO=_F(SY  = S,
                                 R_D   = R_D,   
                                 A_D   = A_D_Pa,   
                                 ),);

#unite en MPa
ACIER[1]=DEFI_MATERIAU(ELAS=_F(E=YOUNG,
                               NU=POISSON,
                                              ALPHA=11.8e-6),
                    LEMAITRE=_F( N  = N,
                                 UN_SUR_M  = UN_SUR_M,
                                 UN_SUR_K  = UN_SUR_K, 
                    ),
                    VISC_ENDO=_F(SY  = S,
                                 R_D   = R_D,   
                                 A_D   = A_D,   
                                 ),);
                                 

compor='VISC_ENDO_LEMA'

tabresu=TEST_COMPOR(OPTION='MECA',
              COMP_INCR=_F(RELATION=compor,ITER_INTE_MAXI=100,ALGO_INTE='SECANTE'),
              NEWTON=_F(REAC_ITER=3),
              LIST_MATER=ACIER,
              LIST_NPAS=4*[1] + [1, 5, 25],              
              VARI_TEST=('V7','VMIS','TRACE'),
              LIST_TOLE=4*[1.E-6] + [1.E-1] + 2*[3.E-2] + [8.E-2],  
              PREC_ZERO=[1.E-10, 0.01, 0.01],
              YOUNG=YOUNG,POISSON=POISSON,
              )

IMPR_TABLE(TABLE=tabresu)


FIN()

