# MODIF  DATE 09/01/2007   AUTEUR PROIX J-M.PROIX 
# RESPONSABLE PROIX J-M.PROIX
# TITRE  LOI DE COMPORTEMENT 3D VMIS_ECMI_TRAC
#            CONFIGURATION MANAGEMENT OF EDF VERSION
# ======================================================================
# COPYRIGHT (C) 1991 - 2007  EDF R&D                  WWW.CODE-ASTER.ORG
# THIS PROGRAM IS FREE SOFTWARE; YOU CAN REDISTRIBUTE IT AND/OR MODIFY  
# IT UNDER THE TERMS OF THE GNU GENERAL PUBLIC LICENSE AS PUBLISHED BY  
# THE FREE SOFTWARE FOUNDATION; EITHER VERSION 2 OF THE LICENSE, OR     
# (AT YOUR OPTION) ANY LATER VERSION.                                                    
#                                                                       
# THIS PROGRAM IS DISTRIBUTED IN THE HOPE THAT IT WILL BE USEFUL, BUT   
# WITHOUT ANY WARRANTY; WITHOUT EVEN THE IMPLIED WARRANTY OF            
# MERCHANTABILITY OR FITNESS FOR A PARTICULAR PURPOSE. SEE THE GNU      
# GENERAL PUBLIC LICENSE FOR MORE DETAILS.                              
#                                                                       
# YOU SHOULD HAVE RECEIVED A COPY OF THE GNU GENERAL PUBLIC LICENSE     
# ALONG WITH THIS PROGRAM; IF NOT, WRITE TO EDF R&D CODE_ASTER,         
#    1 AVENUE DU GENERAL DE GAULLE, 92141 CLAMART CEDEX, FRANCE.        
# ======================================================================
# ECROUISSAGE CINEMATIQUE LINERAIRE et ISOTROPE NON-LINEAIRE (FCT EXPONENTIEL)
#

from Outils.veri_matr_tang import VERI_MATR_TANG

DEBUT(CODE=_F(NOM='COMP001E',NIV_PUB_WEB='INTERNET',VISU_EFICAS='NON'),);


#parametres elastiques
YOUNG = 200000.0;
POISSON = 0.3;

#paramtres loi ECMI_TRAC
C_PRAG = 1486.9;

# def des materiaux
ACIER = [None]*3
#unite en Pa
C_Pa = 1.e+6
YOUNG_Pa = YOUNG * C_Pa
C_PRAG_Pa = C_PRAG * C_Pa;

A_ECM=DEFI_FONCTION(    NOM_PARA='EPSI',
                              VALE=(
                                2.18500E-03,    4.37000E+02,
                                2.39020E-03,    4.38040E+02,
                                2.59534E-03,    4.39068E+02,
                                2.80043E-03,    4.40085E+02,
                                3.00545E-03,    4.41091E+02,
                                3.21043E-03,    4.42085E+02,
                                3.41534E-03,    4.43069E+02,
                                3.62021E-03,    4.44042E+02,
                                3.82502E-03,    4.45004E+02,
                                4.02978E-03,    4.45957E+02,
                                4.23449E-03,    4.46899E+02,
                                4.43916E-03,    4.47831E+02,
                                4.64377E-03,    4.48754E+02,
                                4.84834E-03,    4.49667E+02,
                                5.05286E-03,    4.50571E+02,
                                5.25733E-03,    4.51467E+02,
                                5.46176E-03,    4.52353E+02,
                                5.66615E-03,    4.53230E+02,
                                5.87049E-03,    4.54099E+02,
                                6.07480E-03,    4.54959E+02,
                                6.27906E-03,    4.55812E+02,
                                6.48328E-03,    4.56656E+02,
                                6.68746E-03,    4.57492E+02,
                                6.89161E-03,    4.58321E+02,
                                7.09571E-03,    4.59142E+02,
                                7.29978E-03,    4.59956E+02,
                                7.50381E-03,    4.60762E+02,
                                7.70781E-03,    4.61561E+02,
                                7.91177E-03,    4.62354E+02,
                                8.11570E-03,    4.63139E+02,
                                8.31959E-03,    4.63918E+02,
                                8.52345E-03,    4.64690E+02,
                                8.72728E-03,    4.65455E+02,
                                8.93107E-03,    4.66215E+02,
                                9.13484E-03,    4.66968E+02,
                                9.33857E-03,    4.67715E+02,
                                9.54228E-03,    4.68456E+02,
                                9.74596E-03,    4.69191E+02,
                                9.94960E-03,    4.69921E+02,
                                1.01532E-02,    4.70645E+02,
                                1.03568E-02,    4.71363E+02,
                                1.05604E-02,    4.72076E+02,
                                1.07639E-02,    4.72784E+02,
                                1.09674E-02,    4.73486E+02,
                                1.11709E-02,    4.74184E+02,
                                1.13744E-02,    4.74876E+02,
                                1.15778E-02,    4.75564E+02,
                                1.17812E-02,    4.76246E+02,
                                1.19846E-02,    4.76925E+02,
                                1.21880E-02,    4.77598E+02,
                                1.23913E-02,    4.78267E+02,
                                1.25947E-02,    4.78932E+02,
                                1.27980E-02,    4.79592E+02,
                                1.30012E-02,    4.80248E+02,
                                1.32045E-02,    4.80900E+02,
                                1.34077E-02,    4.81548E+02,
                                1.36110E-02,    4.82192E+02,
                                1.38142E-02,    4.82831E+02,
                                1.40173E-02,    4.83467E+02,
                                1.42205E-02,    4.84100E+02,
                                1.44236E-02,    4.84728E+02,
                                1.46268E-02,    4.85353E+02,
                                1.48299E-02,    4.85975E+02,
                                1.50330E-02,    4.86593E+02,
                                1.52360E-02,    4.87207E+02,
                                1.54391E-02,    4.87819E+02,
                                1.56421E-02,    4.88427E+02,
                                1.58452E-02,    4.89031E+02,
                                1.60482E-02,    4.89633E+02,
                                1.62512E-02,    4.90231E+02,
                                1.64541E-02,    4.90827E+02,
                                1.66571E-02,    4.91420E+02,
                                1.68600E-02,    4.92009E+02,
                                1.70630E-02,    4.92596E+02,
                                1.72659E-02,    4.93180E+02,
                                1.74688E-02,    4.93761E+02,
                                1.76717E-02,    4.94340E+02,
                                1.78746E-02,    4.94916E+02,
                                1.80774E-02,    4.95489E+02,
                                1.82803E-02,    4.96060E+02,
                                1.84831E-02,    4.96629E+02,
                                1.86860E-02,    4.97195E+02,
                                1.88888E-02,    4.97758E+02,
                                1.90916E-02,    4.98320E+02,
                                1.92944E-02,    4.98879E+02,
                                1.94972E-02,    4.99435E+02,
                                1.97000E-02,    4.99990E+02,
                                1.99027E-02,    5.00542E+02,
                                2.01055E-02,    5.01093E+02,
                                2.03082E-02,    5.01641E+02,
                                2.05109E-02,    5.02187E+02,
                                2.07137E-02,    5.02732E+02,
                                2.09164E-02,    5.03274E+02,
                                2.11191E-02,    5.03814E+02,
                                2.13218E-02,    5.04353E+02,
                                2.15244E-02,    5.04890E+02,
                                2.17271E-02,    5.05425E+02,
                                2.19298E-02,    5.05958E+02,
                                2.21324E-02,    5.06489E+02,
                                2.23351E-02,    5.07019E+02,
                                2.25377E-02,    5.07547E+02,
                                2.40573E-02,    5.11458E+02,
                                2.55765E-02,    5.15290E+02,
                                2.70953E-02,    5.19055E+02,
                                2.86138E-02,    5.22761E+02,
                                3.01321E-02,    5.26417E+02,
                                3.16501E-02,    5.30029E+02,
                                3.31680E-02,    5.33605E+02,
                                3.46857E-02,    5.37148E+02,
                                3.62033E-02,    5.40664E+02,
                                3.77208E-02,    5.44156E+02,
                                3.92381E-02,    5.47628E+02,
                                4.07554E-02,    5.51082E+02,
                                4.22726E-02,    5.54521E+02,
                                4.37897E-02,    5.57947E+02,
                                4.53068E-02,    5.61362E+02,
                                4.68238E-02,    5.64767E+02,
                                4.83408E-02,    5.68164E+02,
                                4.98578E-02,    5.71554E+02,
                                5.13747E-02,    5.74937E+02,
                                5.28916E-02,    5.78315E+02,
                                5.79477E-02,    5.89547E+02,
                                6.30037E-02,    6.00747E+02,
                                6.80596E-02,    6.11928E+02,
                                7.31155E-02,    6.23097E+02,
                                7.81713E-02,    6.34260E+02,
                                8.32271E-02,    6.45418E+02,
                                8.82829E-02,    6.56574E+02,
                                9.33386E-02,    6.67728E+02,
                                9.83944E-02,    6.78881E+02,
                                1.03450E-01,    6.90034E+02,
                                    ),
                           PROL_DROITE='LINEAIRE',
                          PROL_GAUCHE='LINEAIRE')

A_ECM_Pa=CALC_FONCTION(COMB=_F(FONCTION=A_ECM,
                             COEF=C_Pa,),);
                             
ACIER[0]=DEFI_MATERIAU(ELAS=_F(E=YOUNG_Pa,
                               NU=POISSON,
                               ALPHA=11.8e-6),
                    TRACTION=_F(SIGM=A_ECM_Pa,),
                    PRAGER=_F(C=C_PRAG_Pa),     
                                 );
#unite en MPa
ACIER[1]=DEFI_MATERIAU(ELAS=_F(E=YOUNG,
                               NU=POISSON,
                               ALPHA=11.8e-6),
                    TRACTION=_F(SIGM=A_ECM,),
                    PRAGER=_F(C=C_PRAG),        
                                 );



ch_param=['V1','VMIS','TRACE','SIXX','SIYY','SIZZ','SIXY','SIXZ','SIYZ','V3','V4','V5','V6']

compor='VMIS_ECMI_TRAC'

# les quantites (invariants...) sur lequels portent les calculs d'erreur et les test_resu
ch_param2=['V1','VMIS']

#Discretisation du calcul
#Ncal = 10
Ncal = 7
N_pas = 4*[1] + [1, 5, 25, 125, 625, 3125]
N_cas = len(N_pas)

# les differents calculs effectues et les precisions sur chaque TEST_RESU
label_cal=['_Pa_','_Th_','_sym_','_rot_'] + 6* ['_N']
prec_ecart=4*[1.E-10] + [3.E-2] + (N_cas-5)*[1.E-2]   
prec_tgt=1.e-6





# utilitaires divers
INCLUDE(UNITE=91)


##################################################################################
#  TEST 2D C_PLAN
##################################################################################

# les quantites (invariants...) sur lequels portent les calculs d'erreur et les test_resu
ch_param2D=['V1','VMIS','TRACE','SIXX','SIYY','SIXY']
                                 
# definition du chargement 2D
INCLUDE(UNITE=92)

#Discretisation du calcul

RES2=[None]*Ncal
R_SI2=[None]*len(ch_param2D)
TMP_S=[None]

#pointeur materiau
P_imat = [0] + [1] + (N_cas-2)*[1]
#pointeur deformation
nomdef, symdef, rotdef = [0, 1, 2], [1, 0, 2], [3, 4, 5] 
P_idef = [nomdef, nomdef,symdef, rotdef]
for i in range(6): P_idef.append(nomdef)
#pointeur Option thermique
P_opt_ther = ["NON", "NON"] + (N_cas-2)*["NON"]
# conditions du calcul thermique
(inst_th, temp_th) = (3.0*t_0, 100.)

#Boucle sur l'ensemble des calculs
for i in range(Ncal):
        N = N_pas[i]
        imat = P_imat[i]
        idef = P_idef[i]
        opt_ther = P_opt_ther[i]
        temps=DEFI_LIST_REEL(DEBUT=0.0,
                     INTERVALLE=(_F(JUSQU_A=t_0,NOMBRE=N,),
                                 _F(JUSQU_A=2.0*t_0,NOMBRE=N,),
                                 _F(JUSQU_A=3.0*t_0,NOMBRE=N,),
                                 _F(JUSQU_A=4.0*t_0,NOMBRE=N,),
                                 _F(JUSQU_A=5.0*t_0,NOMBRE=N,),
                                 _F(JUSQU_A=6.0*t_0,NOMBRE=N,),
                                 _F(JUSQU_A=7.0*t_0,NOMBRE=N,),
                                 _F(JUSQU_A=8.0*t_0,NOMBRE=N,),),);

#       Resout le pb a deformation imposee
        RES2[i]=SIMU_POINT_MAT(
                   COMP_INCR=_F(RELATION=compor,RESI_INTE_RELA=1.E-8,),
                   MODELISATION='C_PLAN',
                   NEWTON=_F(MATRICE='TANGENTE',
                             REAC_ITER=1,),
                   CONVERGENCE=_F(ITER_GLOB_MAXI=10,),
                   MATER      = ACIER[imat],  
                   ARCHIVAGE = _F(ARCH_ETAT_INIT = 'OUI',LIST_INST = temps2d),
                   INCREMENT=_F(LIST_INST=temps,),
                 #  THER=_F(INST_IMP= inst_th, TEMP_IMP= temp_th, OPTION = opt_ther,),
                   EPSI_IMPOSE=_F(EPXX=eps_def[idef[0]], EPYY=eps_def[idef[1]], 
                                  EPXY=eps_def[idef[2]],),
                        );
                        
        # IMPR_TABLE(TABLE=RESU[i]);
        
        N = N_pas[i]
        chN=label_cal[i]+str(N)
        for ch in ch_param2D:
                j=ch_param2D.index(ch)
                chnew=ch+chN
                ##Extraction par type de variable 
                if i==0:
                        R_SI2[j]=CALC_TABLE( TABLE=RES2[i],
                                     TITRE = ' ',
                                     ACTION=( _F(OPERATION='EXTR',
                                            NOM_PARA=('INST',ch,),),
                                              _F(OPERATION='RENOMME',
                                                NOM_PARA=(ch,chnew,),),
                                                                ),);
                else:
                        TMP_S=CALC_TABLE( TABLE=RES2[i],
                                     TITRE = ' ',
                                     ACTION=( _F(OPERATION='EXTR',
                                            NOM_PARA=('INST',ch,),),
                                                _F(OPERATION='RENOMME',
                                                NOM_PARA=(ch,chnew,),),
                                                                ),);
                        R_SI2[j]=CALC_TABLE( reuse=R_SI2[j], TABLE=R_SI2[j],
                                     TITRE = ' ',
                                        ACTION=( _F(OPERATION='COMB',
                                        TABLE=TMP_S,NOM_PARA='INST',),
                                                ),);
                        DETRUIRE ( CONCEPT = _F (NOM = TMP_S,),)

        DETRUIRE ( CONCEPT = _F (NOM = temps,),)
        
# TEST_RESU sur les erreurs relatives 
# label_cal=['_Pa_','_Th_','_sym_','_rot_'] + 6* ['_N']
prec_ecart=4*[1.E-10] + [1.E-1] + (N_cas-5)*[2.E-2]   
#ch_param2=['V1','VMIS','TRACE']
prec_zero=[1.E-10, 0.01, 0.01]

# les quantites (invariants...) sur lequels portent les calculs d'erreur et les test_resu
ch_param2=['V1','VMIS']

TEST_ECAR2(ch_param2,label_cal,N_pas,Ncal,ch_param2D,R_SI2,prec_ecart,prec_zero)
                

##################################################################################
#  TEST 3D
##################################################################################
                                 
# definition du chargement 3D
INCLUDE(UNITE=93)

ch_param=['V1','VMIS','TRACE','SIXX','SIYY','SIZZ','SIXY','SIXZ','SIYZ']

#Discretisation du calcul

RESU=[None]*Ncal
R_SI=[None]*len(ch_param)
TMP_S=[None]

#pointeur materiau
P_imat = [0] + [1] + (N_cas-2)*[1]
#pointeur deformation
P_idef = 2*[0] + [1] + [2] + (N_cas-4)*[0]
#pointeur Option thermique
P_opt_ther = ["NON", "NON"] + (N_cas-2)*["NON"]
# conditions du calcul thermique
(inst_th, temp_th) = (3.0*t_0, 100.)

#Boucle sur l'ensemble des calculs
for i in range(Ncal):
        N = N_pas[i]
        imat = P_imat[i]
        idef = P_idef[i]
        eps_imp = V_EPS[idef]
        opt_ther = P_opt_ther[i]
        temps=DEFI_LIST_REEL(DEBUT=0.0,
                     INTERVALLE=(_F(JUSQU_A=t_0,NOMBRE=N,),
                                 _F(JUSQU_A=2.0*t_0,NOMBRE=N,),
                                 _F(JUSQU_A=3.0*t_0,NOMBRE=N,),
                                 _F(JUSQU_A=4.0*t_0,NOMBRE=N,),
                                 _F(JUSQU_A=5.0*t_0,NOMBRE=N,),
                                 _F(JUSQU_A=6.0*t_0,NOMBRE=N,),
                                 _F(JUSQU_A=7.0*t_0,NOMBRE=N,),
                                 _F(JUSQU_A=8.0*t_0,NOMBRE=N,),),);

#       Resout le pb a deformation imposee
        RESU[i]=SIMU_POINT_MAT(
                   COMP_INCR=_F(RELATION=compor),
                   NEWTON=_F(MATRICE='TANGENTE',
                             REAC_ITER=1,),
                   CONVERGENCE=_F(ITER_GLOB_MAXI=10,),
                   MATER      = ACIER[imat],  
                   ARCHIVAGE = _F(ARCH_ETAT_INIT = 'OUI',LIST_INST = temps_ar),
                   INCREMENT=_F(LIST_INST=temps,),
                 #  THER=_F(INST_IMP= inst_th, TEMP_IMP= temp_th, OPTION = opt_ther,),
                   EPSI_IMPOSE=_F(EPXX=eps_imp[0], EPYY=eps_imp[1], EPZZ=eps_imp[2],
                                  EPXY=eps_imp[3], EPXZ=eps_imp[4], EPYZ=eps_imp[5]),
                        );
                        
        # IMPR_TABLE(TABLE=RESU[i]);
        
# On renomme les composantes en fonction de  l'ordre de discretisation
        N = N_pas[i]
        chN=label_cal[i]+str(N)
        for ch in ch_param:
                j=ch_param.index(ch)
                chnew=ch+chN
                ##Extraction par type de variable 
                if i==0 :
                        R_SI[j]=CALC_TABLE( TABLE=RESU[i],
                                     TITRE = ' ',
                                     ACTION=( _F(OPERATION='EXTR',
                                            NOM_PARA=('INST',ch,),),
                                              _F(OPERATION='RENOMME',
                                                NOM_PARA=(ch,chnew,),),
                                                                ),);
                else:
                        TMP_S=CALC_TABLE( TABLE=RESU[i],
                                     TITRE = ' ',
                                     ACTION=( _F(OPERATION='EXTR',
                                            NOM_PARA=('INST',ch,),),
                                                _F(OPERATION='RENOMME',
                                                NOM_PARA=(ch,chnew,),),
                                                                ),);
                        R_SI[j]=CALC_TABLE( reuse=R_SI[j], TABLE=R_SI[j],
                                     TITRE = ' ',
                                        ACTION=( _F(OPERATION='COMB',
                                        TABLE=TMP_S,NOM_PARA='INST',),
                                                ),);
                        DETRUIRE ( CONCEPT = _F (NOM = TMP_S,),)
        DETRUIRE ( CONCEPT = _F (NOM = temps,),)
        
# TEST_RESU sur les erreurs relatives 
# label_cal=['_Pa_','_Th_','_sym_','_rot_'] + 6* ['_N']
prec_ecart=4*[1.E-10] + [1.E-1] + (N_cas-5)*[1.E-2]   
#ch_param2=['V1','VMIS','TRACE']
prec_zero=[1.E-10, 0.01, 0.01]

# les quantites (invariants...) sur lequels portent les calculs d'erreur et les test_resu
ch_param2=['V1','VMIS','TRACE']
TEST_ECART(ch_param2,label_cal,N_pas,Ncal,ch_param,R_SI,prec_ecart,prec_zero)

# Test de la matrice tangente sur le calcul le plus fin

N = N_pas[Ncal-1]
Linst=DEFI_LIST_REEL(DEBUT=0.0,
                     INTERVALLE=(_F(JUSQU_A=t_0,NOMBRE=N,),
                                 _F(JUSQU_A=2.0*t_0,NOMBRE=N,),
                                 _F(JUSQU_A=3.0*t_0,NOMBRE=N,),
                                 _F(JUSQU_A=4.0*t_0,NOMBRE=N,),
                                 _F(JUSQU_A=5.0*t_0,NOMBRE=N,),
                                 _F(JUSQU_A=6.0*t_0,NOMBRE=N,),
                                 _F(JUSQU_A=7.0*t_0,NOMBRE=N,),
                                 _F(JUSQU_A=8.0*t_0,NOMBRE=N,),),);

RESU_TGT=SIMU_POINT_MAT(
                   COMP_INCR=_F(RELATION=compor,                
                                TYPE_MATR_TANG='VERIFICATION',
                                VALE_PERT_RELA=1.E-5,
                               ),
                   NEWTON=_F(MATRICE='TANGENTE',REAC_ITER=1,),
                   CONVERGENCE=_F(ITER_GLOB_MAXI=10,),
                   MATER      = ACIER[1],  
                   INCREMENT=_F(LIST_INST=Linst,),
                   EPSI_IMPOSE=_F(EPXX=eps_imp[0], EPYY=eps_imp[1], EPZZ=eps_imp[2],
                                  EPXY=eps_imp[3], EPXZ=eps_imp[4], EPYZ=eps_imp[5]),
                        );


DIFF_MAT=VERI_MATR_TANG()

TEST_TABLE(TABLE=DIFF_MAT,
           NOM_PARA='MAT_DIFF',
           TYPE_TEST='MAX',
           VALE=0.,
           CRITERE='ABSOLU',
           PRECISION=prec_tgt,
           REFERENCE='ANALYTIQUE',);     




                                 
###############################################################################                                 


# impressions
                
for i in range(len(ch_param)):
        IMPR_TABLE(TABLE=R_SI[i])
        
for i in range(len(ch_param2D)):
        IMPR_TABLE(TABLE=R_SI2[i])
        

IMPR_TABLE(TABLE=DIFF_MAT)

FIN();
#
