# person_in_charge: jean-michel.proix at edf.fr
# TITRE  TEST LOI DE COMPORTEMENT 3D  VISC_ISOT_LINE
# ======================================================================
# COPYRIGHT (C) 1991 - 2012  EDF R&D                  WWW.CODE-ASTER.ORG
# THIS PROGRAM IS FREE SOFTWARE; YOU CAN REDISTRIBUTE IT AND/OR MODIFY
# IT UNDER THE TERMS OF THE GNU GENERAL PUBLIC LICENSE AS PUBLISHED BY
# THE FREE SOFTWARE FOUNDATION; EITHER VERSION 2 OF THE LICENSE, OR
# (AT YOUR OPTION) ANY LATER VERSION.
#
# THIS PROGRAM IS DISTRIBUTED IN THE HOPE THAT IT WILL BE USEFUL, BUT
# WITHOUT ANY WARRANTY; WITHOUT EVEN THE IMPLIED WARRANTY OF
# MERCHANTABILITY OR FITNESS FOR A PARTICULAR PURPOSE. SEE THE GNU
# GENERAL PUBLIC LICENSE FOR MORE DETAILS.
#
# YOU SHOULD HAVE RECEIVED A COPY OF THE GNU GENERAL PUBLIC LICENSE
# ALONG WITH THIS PROGRAM; IF NOT, WRITE TO EDF R&D CODE_ASTER,
#    1 AVENUE DU GENERAL DE GAULLE, 92141 CLAMART CEDEX, FRANCE.
# ======================================================================
#......................................................................

DEBUT(CODE=_F(NIV_PUB_WEB='INTERNET',VISU_EFICAS='NON'),);

#parametres vitesse de sollicitation
vitesse = 1.e-5

t_0 = 5.e-2/(8.0*vitesse)

# liste d'archivage
temps_ar=DEFI_LIST_REEL( VALE =[t_0*i for i in range(9)],)



#parmetres elastiques
YOUNG = 200000.0;
POISSON = 0.3;


#parametres loi ISOT_LINE
SY = 437.0;
pente = 2024.74690664;

#parametres viscosite
SIGM_0=6176.
EPSI_0=3.31131121483e13
M=6.76


# def des materiaux
ACIER = [None]*2
#unite en Pa
C_Pa = 1.e+6
YOUNG_Pa = YOUNG * C_Pa
pente_Pa = pente * C_Pa
SY_Pa = SY * C_Pa;
SIGM_0_Pa=SIGM_0 * C_Pa


ACIER[0]=DEFI_MATERIAU(ELAS=_F(E=YOUNG_Pa,
                               NU=POISSON,
                               ALPHA=11.8e-6),
                    ECRO_LINE=_F(D_SIGM_EPSI=pente_Pa,
                                 SY=SY_Pa,),
                     VISC_SINH=_F(
                                   SIGM_0 = SIGM_0_Pa,
                                   EPSI_0 = EPSI_0,
                                   M      = M),
                                 );
#unite en MPa
ACIER[1]=DEFI_MATERIAU(ELAS=_F(E=YOUNG,
                               NU=POISSON,
                               ALPHA=11.8e-6),
                     VISC_SINH=_F(
                                   SIGM_0 = SIGM_0,
                                   EPSI_0 = EPSI_0,
                                   M      = M),
                    ECRO_LINE=_F(D_SIGM_EPSI=pente,
                                 SY=SY,),)


compor='VISC_ISOT_LINE'

tabresu=TEST_COMPOR(OPTION='MECA',

                   COMPORTEMENT=_F(RELATION=compor,DEFORMATION='SIMO_MIEHE'),
                   SUPPORT='ELEMENT',
                  # RECH_LINEAIRE=_F(ITER_LINE_MAXI=3),
              NEWTON=_F(REAC_ITER=1),
              LIST_MATER=ACIER,
              LIST_NPAS=4*[1] + [1, 5, 25],
              VARI_TEST=('V1','VMIS','TRACE'),
              LIST_TOLE=4*[1.E-10] + [1.E-1] + 2*[1.E-2] + [1.E-5]  ,
              YOUNG=YOUNG,POISSON=POISSON,
              )

IMPR_TABLE(TABLE=tabresu)


FIN()
