#======================================================================
#
# TITRE : VALIDATION DE LA TEMPERATURE  RELATION = 'MAZARS'
# ======================================================================
# COPYRIGHT (C) 1991 - 2012  EDF R&D                  WWW.CODE-ASTER.ORG
# THIS PROGRAM IS FREE SOFTWARE; YOU CAN REDISTRIBUTE IT AND/OR MODIFY
# IT UNDER THE TERMS OF THE GNU GENERAL PUBLIC LICENSE AS PUBLISHED BY
# THE FREE SOFTWARE FOUNDATION; EITHER VERSION 2 OF THE LICENSE, OR
# (AT YOUR OPTION) ANY LATER VERSION.
#
# THIS PROGRAM IS DISTRIBUTED IN THE HOPE THAT IT WILL BE USEFUL, BUT
# WITHOUT ANY WARRANTY; WITHOUT EVEN THE IMPLIED WARRANTY OF
# MERCHANTABILITY OR FITNESS FOR A PARTICULAR PURPOSE. SEE THE GNU
# GENERAL PUBLIC LICENSE FOR MORE DETAILS.
#
# YOU SHOULD HAVE RECEIVED A COPY OF THE GNU GENERAL PUBLIC LICENSE
# ALONG WITH THIS PROGRAM; IF NOT, WRITE TO EDF R&D CODE_ASTER,
#    1 AVENUE DU GENERAL DE GAULLE, 92141 CLAMART CEDEX, FRANCE.
# ======================================================================
#
# CAS-TEST DE REFERENCE : HSNV129A
#
#=====================================================================

DEBUT(CODE=_F(NIV_PUB_WEB='INTERNET'),DEBUG=_F(SDVERI='NON'))
# SDVERI='NON' car la verification est trop couteuse en CPU

TREF = 20.

Tmax = 500.

NCAL = 20

ZERO =DEFI_CONSTANTE(VALE=0.0);

YOUN=DEFI_FONCTION(NOM_PARA='TEMP',VALE=(  0., 3.2E10,
                                         500., 1.6e10,
                                           ),);

NU0=DEFI_FONCTION(NOM_PARA='TEMP',VALE=(   0., 0.2,
                                         500., 0.18,
                                           ),);

ALPH=DEFI_FONCTION(NOM_PARA='TEMP',VALE=(  0., 1.2e-05,
                                         500., 2.0e-05,
                                           ),);

EPSD0=DEFI_FONCTION(NOM_PARA='TEMP',VALE=(  0., 0.0001,
                                          500., 0.00005,
                                           ),);

AC=DEFI_FONCTION(NOM_PARA='TEMP',VALE=(     0., 1.4,
                                          500., 1.0,
                                           ),);

AT=DEFI_FONCTION(NOM_PARA='TEMP',VALE=(     0., 1,
                                          500., 0.8,
                                           ),);

BC=DEFI_FONCTION(NOM_PARA='TEMP',VALE=(  0., 2000.,
                                       500., 1000.
                                       ),)

BT=DEFI_FONCTION(NOM_PARA='TEMP',VALE=(     0., 10000,
                                          500., 20000,
                                           ),);

K=DEFI_FONCTION(NOM_PARA='TEMP',VALE=(     0., 0.7,
                                          500., 0.7,
                                           ),);

MATERI=DEFI_MATERIAU(ELAS_FO=_F(E=YOUN,
                               NU=NU0 ,
                               TEMP_DEF_ALPHA=TREF,
                               ALPHA=ALPH,),
                  MAZARS_FO  =_F(K=K,
                                 EPSD0= EPSD0,
                                 AC   = AC,
                                 AT   = AT,
                                 BC   = BC,
                                 BT   = BT),
                 );


LMAT2  = [None]*(NCAL)
time=0.
tfin=1.
for i in range(NCAL):
    timem = time
    time = timem + tfin/NCAL
    Ti = TREF + time/tfin * (Tmax - TREF)
    Tm = TREF + timem/tfin * (Tmax - TREF)
    LMAT2[i]=DEFI_MATERIAU(ELAS =_F(E=YOUN(Ti),
                                        NU=NU0(Ti),
                                        ALPHA=0.,),
                          MAZARS   =_F(K  = K(Ti),
                                       EPSD0 = EPSD0(Ti),
                                       AC    = AC(Ti),
                                       AT    = AT(Ti),
                                       BC    = BC(Ti),
                                       BT    = BT(Ti)),
                                );


############################################################################
# MACRO pour test thermoplastique

compor='MAZARS'


tabresu=TEST_COMPOR(
              MATER=MATERI,COMPORTEMENT=_F(RELATION=compor),
              LIST_MATER=LMAT2,ALPHA=ALPH,YOUNG=YOUN,TEMP_INIT=TREF,TEMP_FIN=Tmax,
              NEWTON=_F(REAC_ITER=1),
              NB_VARI=4,
              VARI_TEST=('V1','V2','V4'),
              )

IMPR_TABLE(TABLE=tabresu)


FIN()
