# TITRE TEST DE LA LOI DE HUJEUX SUR UN POINT MATERIEL
# ======================================================================
# COPYRIGHT (C) 1991 - 2013  EDF R&D                  WWW.CODE-ASTER.ORG
# THIS PROGRAM IS FREE SOFTWARE; YOU CAN REDISTRIBUTE IT AND/OR MODIFY  
# IT UNDER THE TERMS OF THE GNU GENERAL PUBLIC LICENSE AS PUBLISHED BY  
# THE FREE SOFTWARE FOUNDATION; EITHER VERSION 2 OF THE LICENSE, OR     
# (AT YOUR OPTION) ANY LATER VERSION.                                                    
#                                                                       
# THIS PROGRAM IS DISTRIBUTED IN THE HOPE THAT IT WILL BE USEFUL, BUT   
# WITHOUT ANY WARRANTY; WITHOUT EVEN THE IMPLIED WARRANTY OF            
# MERCHANTABILITY OR FITNESS FOR A PARTICULAR PURPOSE. SEE THE GNU      
# GENERAL PUBLIC LICENSE FOR MORE DETAILS.                              
#                                                                       
# YOU SHOULD HAVE RECEIVED A COPY OF THE GNU GENERAL PUBLIC LICENSE     
# ALONG WITH THIS PROGRAM; IF NOT, WRITE TO EDF R&D CODE_ASTER,         
#    1 AVENUE DU GENERAL DE GAULLE, 92141 CLAMART CEDEX, FRANCE.        
# ======================================================================

DEBUT(CODE=_F(NOM='COMP012A',NIV_PUB_WEB='INTERNET'),DEBUG=_F(SDVERI='OUI'))

K = 516.2E6
G = 238.2E6
YOUNG   = 9.*K*G /(3.*K+G)
POISSON = (3.*K-2.*G) /(6.*K+2.*G)

MATE1=DEFI_MATERIAU(ELAS=_F(E=YOUNG, NU=POISSON, RHO=2500., ALPHA=0.),
                    HUJEUX=_F(N        = 0.4,
                              BETA     = 24.,
                              D        = 2.5,
                              B        = 0.2,
                              PHI      = 33.,
                              ANGDIL   = 33.,
                              PCO      = -1.E6,
                              PREF     = -1.E6,
                              AMON     = 0.008,
                              ACYC     = 0.0001,
                              CMON     = 0.2,
                              CCYC     = 0.1,
                              RD_ELA   = 0.005,
                              RI_ELA   = 0.001,
                              RHYS     = 0.05,
                              RMOB     = 0.9,
                              XM       = 1.,
                              RD_CYC   = 0.005,
                              RI_CYC   = 0.001,
                              DILA     = 1.0,),)


# declaration des tables (TABLE_RESU) qui sortiront de la macro
TABTD    = CO('TTD')
TABTND   = CO('TTND')
TABCISA1 = CO('TCISA1')
TABCISA2 = CO('TCISA2')
TABTNDC1 = CO('TTNDC1')
TABTNDC2 = CO('TTNDC2')

# creation de courbes de reference (TABLE_REF) bidon pour couverture de code
tabbid1 = CREA_TABLE(LISTE=(_F(PARA='TYPE'    , LISTE_K=['P-Q',]),
                            _F(PARA='LEGENDE' , LISTE_K=['ma_legende',]),
                            _F(PARA='ABSCISSE', LISTE_R=[0.,1.]),
                            _F(PARA='ORDONNEE', LISTE_R=[0.,1.]),),);
tabbid2 = CREA_TABLE(LISTE=(_F(PARA='TYPE'    , LISTE_K=['EPSXY-G',]),
                            _F(PARA='LEGENDE' , LISTE_K=['ma_legende',]),
                            _F(PARA='ABSCISSE', LISTE_R=[0.,1.]),
                            _F(PARA='ORDONNEE', LISTE_R=[0.,1.]),),);

CALC_ESSAI_GEOMECA(INFO=1,
                   MATER=MATE1,
                   COMP_INCR=_F(RELATION='HUJEUX',
                                ITER_INTE_MAXI=20,
                                RESI_INTE_RELA=1.E-8,
                                ALGO_INTE = 'SPECIFIQUE',
                                ITER_INTE_PAS = -5,),
                   CONVERGENCE=_F(RESI_GLOB_RELA = 1.E-6,
                                  ITER_GLOB_MAXI = 20,
                                  ARRET = 'OUI',),

                   ESSAI_TD = _F(PRES_CONF   = -5.E+4,
                                 EPSI_IMPOSE = -0.2, 
                                 TABLE_REF   = tabbid1,
                                 TABLE_RESU  = TABTD),

                   ESSAI_TND = _F(PRES_CONF   = -5.E+4,
                                  EPSI_IMPOSE = -0.02, 
                                  TABLE_REF   = tabbid1,
                                  TABLE_RESU  = TABTND),

                   ESSAI_TND_C = _F(PRES_CONF   = -3.E4,
                                    SIGM_IMPOSE = 1.5E+4,
                                    NB_CYCLE    =  3,
                                    UN_SUR_K    =  1.E-12,
                                    TABLE_REF   = tabbid1,
                                    TABLE_RESU  = (TABTNDC1,TABTNDC2),),

                   ESSAI_CISA_C = _F(PRES_CONF   = -5.E+4,
                                     EPSI_IMPOSE =  1.95E-4 , 
                                     NB_CYCLE    = 1, 
                                     TABLE_REF   = tabbid2,
                                     TABLE_RESU  = (TABCISA1,TABCISA2),),

                   )

#IMPR_TABLE(TABLE=TABTD)
#IMPR_TABLE(TABLE=TABTND)
#IMPR_TABLE(TABLE=TABTNDC1)
#IMPR_TABLE(TABLE=TABTNDC2)
#IMPR_TABLE(TABLE=TABCISA1)
#IMPR_TABLE(TABLE=TABCISA2)

# trace de sigma : p = trace(sig)/3.
FORMU1   = FORMULE(NOM_PARA='P',  VALE='3.*P'  )
FORMU2   = FORMULE(NOM_PARA='P_1',VALE='3.*P_1')
TABTND2  = CALC_TABLE(TABLE=TABTND,
                      ACTION= _F(OPERATION='OPER',NOM_PARA='TRSIG',FORMULE=FORMU1),)
TABTNDC3 = CALC_TABLE(TABLE=TABTNDC1,
                      ACTION= _F(OPERATION='OPER',NOM_PARA='TRSIG',FORMULE=FORMU2),)

# pour l'essai 'TD' -> valeurs de reference de ssnv197a ('TRACE' pour sigma et epsilon)

TEST_TABLE(CRITERE='RELATIF',
           REFERENCE='SOURCE_EXTERNE',
           PRECISION=0.02,
           VALE_CALC= 1.1550085752409E+05,
           VALE_REFE=117640,
           NOM_PARA='Q',
           TABLE=TTD,
           FILTRE=_F(CRITERE='ABSOLU',
                     PRECISION=9.0E-05,
                     NOM_PARA='EPS_AXI',
                     VALE=-1.E-2,),
           )

TEST_TABLE(CRITERE='RELATIF',
           REFERENCE='SOURCE_EXTERNE',
           PRECISION=0.02,
           VALE_CALC= 1.5545233724422E+05,
           VALE_REFE=157072,
           NOM_PARA='Q',
           TABLE=TTD,
           FILTRE=_F(CRITERE='ABSOLU',
                     PRECISION=9.0E-05,
                     NOM_PARA='EPS_AXI',
                     VALE=-0.02,),
           )

TEST_TABLE(CRITERE='RELATIF',
           REFERENCE='SOURCE_EXTERNE',
           PRECISION=1.E-2,
           VALE_CALC= 1.9997784190354E+05,
           VALE_REFE=200850,
           NOM_PARA='Q',
           TABLE=TTD,
           FILTRE=_F(CRITERE='ABSOLU',
                     PRECISION=9.0E-05,
                     NOM_PARA='EPS_AXI',
                     VALE=-0.05,),
           )

TEST_TABLE(CRITERE='RELATIF',
           REFERENCE='SOURCE_EXTERNE',
           PRECISION=1.E-2,
           VALE_CALC= 2.0682149005482E+05,
           VALE_REFE=207649,
           NOM_PARA='Q',
           TABLE=TTD,
           FILTRE=_F(CRITERE='ABSOLU',
                     PRECISION=9.0E-05,
                     NOM_PARA='EPS_AXI',
                     VALE=-0.1,),
           )

TEST_TABLE(CRITERE='RELATIF',
           REFERENCE='SOURCE_EXTERNE',
           PRECISION=1.E-2,
           VALE_CALC= 1.8485372547751E+05,
           VALE_REFE=185854,
           NOM_PARA='Q',
           TABLE=TTD,
           FILTRE=_F(CRITERE='ABSOLU',
                     PRECISION=9.0E-05,
                     NOM_PARA='EPS_AXI',
                     VALE=-0.2,),
           )

TEST_TABLE(CRITERE='RELATIF',
           REFERENCE='SOURCE_EXTERNE',
           PRECISION=0.02,
           VALE_CALC=-3.7768433765549E-03,
           VALE_REFE=-3.82E-3,
           NOM_PARA='EPS_VOL',
           TABLE=TTD,
           FILTRE=_F(CRITERE='ABSOLU',
                     PRECISION=9.0E-05,
                     NOM_PARA='EPS_AXI',
                     VALE=-1.E-2,),
           )

TEST_TABLE(CRITERE='RELATIF',
           REFERENCE='SOURCE_EXTERNE',
           PRECISION=0.02,
           VALE_CALC=-4.3381789721228E-03,
           VALE_REFE=-4.341E-3,
           NOM_PARA='EPS_VOL',
           TABLE=TTD,
           FILTRE=_F(CRITERE='ABSOLU',
                     PRECISION=9.0E-05,
                     NOM_PARA='EPS_AXI',
                     VALE=-0.02,),
           )

TEST_TABLE(CRITERE='RELATIF',
           REFERENCE='SOURCE_EXTERNE',
           PRECISION=0.03,
           VALE_CALC=0.010903603354369,
           VALE_REFE=0.0107,
           NOM_PARA='EPS_VOL',
           TABLE=TTD,
           FILTRE=_F(CRITERE='ABSOLU',
                     PRECISION=9.0E-05,
                     NOM_PARA='EPS_AXI',
                     VALE=-0.1,),
           )

TEST_TABLE(CRITERE='RELATIF',
           REFERENCE='SOURCE_EXTERNE',
           PRECISION=0.05,
           VALE_CALC=0.032365545888343,
           VALE_REFE=0.03191,
           NOM_PARA='EPS_VOL',
           TABLE=TTD,
           FILTRE=_F(CRITERE='ABSOLU',
                     PRECISION=9.0E-05,
                     NOM_PARA='EPS_AXI',
                     VALE=-0.2,),
           )

# pour l'essai 'TND' -> valeurs de reference de wtnv133a ('VMIS','TRACE')

TEST_TABLE(CRITERE='RELATIF',
           REFERENCE='SOURCE_EXTERNE',
           PRECISION=0.03,
           VALE_CALC= 31411.243778049,
           VALE_REFE=31547,
           NOM_PARA='Q',
           TABLE=TTND,
           FILTRE=_F(CRITERE='ABSOLU',
                     PRECISION=9.0E-05,
                     NOM_PARA='EPS_AXI',
                     VALE=-1.E-3,),
           )

TEST_TABLE(CRITERE='RELATIF',
           REFERENCE='SOURCE_EXTERNE',
           PRECISION=0.02,
           VALE_CALC= 40024.894670361,
           VALE_REFE=40129,
           NOM_PARA='Q',
           TABLE=TTND,
           FILTRE=_F(CRITERE='ABSOLU',
                     PRECISION=9.0E-05,
                     NOM_PARA='EPS_AXI',
                     VALE=-2.E-3,),
           )

TEST_TABLE(CRITERE='RELATIF',
           REFERENCE='SOURCE_EXTERNE',
           PRECISION=1.E-2,
           VALE_CALC= 51860.129621658,
           VALE_REFE=51937,
           NOM_PARA='Q',
           TABLE=TTND,
           FILTRE=_F(CRITERE='ABSOLU',
                     PRECISION=9.0E-05,
                     NOM_PARA='EPS_AXI',
                     VALE=-5.0E-3,),
           )

TEST_TABLE(CRITERE='RELATIF',
           REFERENCE='SOURCE_EXTERNE',
           PRECISION=1.E-2,
           VALE_CALC= 68198.882927012,
           VALE_REFE=68286,
           NOM_PARA='Q',
           TABLE=TTND,
           FILTRE=_F(CRITERE='ABSOLU',
                     PRECISION=9.0E-05,
                     NOM_PARA='EPS_AXI',
                     VALE=-1.E-2,),
           )

TEST_TABLE(CRITERE='RELATIF',
           REFERENCE='SOURCE_EXTERNE',
           PRECISION=1.E-2,
           VALE_CALC= 1.0306911556257E+05,
           VALE_REFE=103161,
           NOM_PARA='Q',
           TABLE=TTND,
           FILTRE=_F(CRITERE='ABSOLU',
                     PRECISION=9.0E-05,
                     NOM_PARA='EPS_AXI',
                     VALE=-0.02,),
           )

TEST_TABLE(CRITERE='RELATIF',
           REFERENCE='SOURCE_EXTERNE',
           PRECISION=1.E-2,
           VALE_CALC=-1.3890131117129E+05,
           VALE_REFE=-138887,
           NOM_PARA='TRSIG',
           TABLE=TABTND2,
           FILTRE=_F(CRITERE='ABSOLU',
                     PRECISION=9.0E-05,
                     NOM_PARA='EPS_AXI',
                     VALE=-1.E-3,),
           )

TEST_TABLE(CRITERE='RELATIF',
           REFERENCE='SOURCE_EXTERNE',
           PRECISION=1.E-2,
           VALE_CALC=-1.3379834150962E+05,
           VALE_REFE=-133789,
           NOM_PARA='TRSIG',
           TABLE=TABTND2,
           FILTRE=_F(CRITERE='ABSOLU',
                     PRECISION=9.0E-05,
                     NOM_PARA='EPS_AXI',
                     VALE=-2.E-3,),
           )

TEST_TABLE(CRITERE='RELATIF',
           REFERENCE='SOURCE_EXTERNE',
           PRECISION=1.E-2,
           VALE_CALC=-1.2492427512831E+05,
           VALE_REFE=-124952,
           NOM_PARA='TRSIG',
           TABLE=TABTND2,
           FILTRE=_F(CRITERE='ABSOLU',
                     PRECISION=9.0E-05,
                     NOM_PARA='EPS_AXI',
                     VALE=-5.0E-3,),
           )

TEST_TABLE(CRITERE='RELATIF',
           REFERENCE='SOURCE_EXTERNE',
           PRECISION=1.E-2,
           VALE_CALC=-1.3668159447046E+05,
           VALE_REFE=-136801,
           NOM_PARA='TRSIG',
           TABLE=TABTND2,
           FILTRE=_F(CRITERE='ABSOLU',
                     PRECISION=9.0E-05,
                     NOM_PARA='EPS_AXI',
                     VALE=-1.E-2,),
           )

TEST_TABLE(CRITERE='RELATIF',
           REFERENCE='SOURCE_EXTERNE',
           PRECISION=1.E-2,
           VALE_CALC=-1.8582118665747E+05,
           VALE_REFE=-185971,
           NOM_PARA='TRSIG',
           TABLE=TABTND2,
           FILTRE=_F(CRITERE='ABSOLU',
                     PRECISION=9.0E-05,
                     NOM_PARA='EPS_AXI',
                     VALE=-0.02,),
           )

# pour l'essai 'TND_C' -> valeurs de reference de wtnv134b ('TRACE')


TEST_TABLE(CRITERE='RELATIF',
           REFERENCE='SOURCE_EXTERNE',
           PRECISION=1.E-2,
           VALE_CALC=-80248.859673704,
           VALE_REFE=-8.0193699999999997E4,
           NOM_PARA='TRSIG',
           TABLE=TABTNDC3,
           FILTRE=_F(CRITERE='ABSOLU',
                     PRECISION=9.0E-05,
                     NOM_PARA='INST_1',
                     VALE=10.0,),
           )

TEST_TABLE(CRITERE='RELATIF',
           REFERENCE='SOURCE_EXTERNE',
           PRECISION=1.E-2,
           VALE_CALC=-74082.33286479,
           VALE_REFE=-7.4078100000000006E4,
           NOM_PARA='TRSIG',
           TABLE=TABTNDC3,
           FILTRE=_F(CRITERE='ABSOLU',
                     PRECISION=9.0E-05,
                     NOM_PARA='INST_1',
                     VALE=30.0,),
           )

TEST_TABLE(CRITERE='RELATIF',
           REFERENCE='SOURCE_EXTERNE',
           PRECISION=1.E-2,
           VALE_CALC=-66135.330985987,
           VALE_REFE=-6.6250100000000006E4,
           NOM_PARA='TRSIG',
           TABLE=TABTNDC3,
           FILTRE=_F(CRITERE='ABSOLU',
                     PRECISION=9.0E-05,
                     NOM_PARA='INST_1',
                     VALE=50.0,),
           )

TEST_TABLE(CRITERE='RELATIF',
           REFERENCE='SOURCE_EXTERNE',
           PRECISION=0.02,
           VALE_CALC=-52899.815825867,
           VALE_REFE=-52999,
           NOM_PARA='TRSIG',
           TABLE=TABTNDC3,
           FILTRE=_F(CRITERE='ABSOLU',
                     PRECISION=9.0E-05,
                     NOM_PARA='INST_1',
                     VALE=70.0,),
           )

TEST_TABLE(CRITERE='RELATIF',
           REFERENCE='SOURCE_EXTERNE',
           PRECISION=0.02,
           VALE_CALC=-45561.45238617,
           VALE_REFE=-4.5671900000000001E4,
           NOM_PARA='TRSIG',
           TABLE=TABTNDC3,
           FILTRE=_F(CRITERE='ABSOLU',
                     PRECISION=9.0E-05,
                     NOM_PARA='INST_1',
                     VALE=90.0,),
           )

# pour l'essai 'CISA_C' -> non regression

TEST_TABLE(CRITERE='RELATIF',
           VALE_CALC=-10024.272811318,
           NOM_PARA='SIG_XY_1',
           TABLE=TCISA1,
           FILTRE=_F(CRITERE='ABSOLU',
                     PRECISION=9.0E-05,
                     NOM_PARA='INST_1',
                     VALE=10.0,),
           )

TEST_TABLE(CRITERE='RELATIF',
           VALE_CALC=10051.635385695,
           NOM_PARA='SIG_XY_1',
           TABLE=TCISA1,
           FILTRE=_F(CRITERE='ABSOLU',
                     PRECISION=9.0E-05,
                     NOM_PARA='INST_1',
                     VALE=30.0,),
           )

TEST_TABLE(CRITERE='RELATIF',
           REFERENCE='NON_DEFINI',
           PRECISION=1.E-2,
           VALE_CALC=-10001.55209523,
           VALE_REFE=-9954.1399999999994,
           NOM_PARA='SIG_XY_1',
           TABLE=TCISA1,
           FILTRE=_F(CRITERE='ABSOLU',
                     PRECISION=9.0E-05,
                     NOM_PARA='INST_1',
                     VALE=50.0,),
           )

FIN()
