#======================================================================
#
# TITRE : VALIDATION DE LA TEMPERATURE  RELATION = 'META_LEMA_ANI'
# ======================================================================
# COPYRIGHT (C) 1991 - 2015  EDF R&D                  WWW.CODE-ASTER.ORG
# THIS PROGRAM IS FREE SOFTWARE; YOU CAN REDISTRIBUTE IT AND/OR MODIFY
# IT UNDER THE TERMS OF THE GNU GENERAL PUBLIC LICENSE AS PUBLISHED BY
# THE FREE SOFTWARE FOUNDATION; EITHER VERSION 2 OF THE LICENSE, OR
# (AT YOUR OPTION) ANY LATER VERSION.
#
# THIS PROGRAM IS DISTRIBUTED IN THE HOPE THAT IT WILL BE USEFUL, BUT
# WITHOUT ANY WARRANTY; WITHOUT EVEN THE IMPLIED WARRANTY OF
# MERCHANTABILITY OR FITNESS FOR A PARTICULAR PURPOSE. SEE THE GNU
# GENERAL PUBLIC LICENSE FOR MORE DETAILS.
#
# YOU SHOULD HAVE RECEIVED A COPY OF THE GNU GENERAL PUBLIC LICENSE
# ALONG WITH THIS PROGRAM; IF NOT, WRITE TO EDF R&D CODE_ASTER,
#    1 AVENUE DU GENERAL DE GAULLE, 92141 CLAMART CEDEX, FRANCE.
# ======================================================================
#
# CAS-TEST DE REFERENCE : SSNL124A
#
#=====================================================================


DEBUT(CODE=_F(NIV_PUB_WEB='INTERNET'),PAR_LOT='NON',DEBUG=_F(SDVERI='NON'))
# SDVERI='NON' car la verification est trop couteuse en CPU

#=====================================================================
#               INITIALISATIONS
#=====================================================================
#

import numpy as N

NCAL = 20

RESU   = [None]*NCAL
ACIER  = [None]*NCAL
V1_META= [None]*NCAL
V2_META= [None]*NCAL
V3_META= [None]*NCAL
V4_META= [None]*NCAL

TREF = 700.
T0   = TREF
Tmax = 1000.

ZERO = DEFI_CONSTANTE(VALE=0.0);

UN   = DEFI_CONSTANTE(VALE=1.0);

tmax = 1.


compor='META_LEMA_ANI'


#=====================================================================
#               MATERIAU  FONCTION  DE  LA  TEMPERATURE
#=====================================================================

MA=LIRE_MAILLAGE()

ZIRCALOY=DEFI_MATERIAU(THER=_F(RHO_CP = 2000000.0, LAMBDA = 9999.9),
                        META_ZIRC=_F(
                                  TDEQ = 809.,   K = 1.135E-2,   N = 2.187,
                                  T1C = 831. , T2C=0.,
                                  QSR_K = 14614.,AC = 1.58E-4,  M = 4.7,
                                  T1R=949.1, T2R=0.,AR = -5.725,  BR = 0.05))

CHMAT=AFFE_MATERIAU(MAILLAGE=MA,
                    AFFE=_F(TOUT = 'OUI',MATER = ZIRCALOY))

MOTH=AFFE_MODELE(MAILLAGE=MA,
                 AFFE=_F(TOUT = 'OUI',
                         MODELISATION = '3D',
                         PHENOMENE = 'THERMIQUE'))

L_INST=DEFI_LIST_REEL(         DEBUT=0.0,INTERVALLE=(
                                  _F(  JUSQU_A = 1.0,  NOMBRE = 20))
                          )

TFONC=DEFI_FONCTION(NOM_PARA='INST',
                    NOM_RESU='TEMP',
                    VALE=( 0. ,    700.0,
                           1.,    1000.,),
                    PROL_GAUCHE='CONSTANT',
                    PROL_DROITE='CONSTANT',)

TIMPO=CREA_CHAMP(OPERATION='AFFE',
                 TYPE_CHAM='NOEU_TEMP_F',
                 MAILLAGE=MA,
                 AFFE=_F(TOUT = 'OUI',
                         NOM_CMP = 'TEMP',
                         VALE_F = TFONC))

PHASINIT=CREA_CHAMP(OPERATION='AFFE',
                    TYPE_CHAM='CART_VAR2_R',
                    MAILLAGE=MA,
                    AFFE=_F(TOUT = 'OUI',
                            NOM_CMP = ('V1', 'V2', 'V3','V4'),
                            VALE = ( 1.0, 0.0, 20.,0.)))

TEMPE=CREA_RESU(OPERATION='AFFE',
                TYPE_RESU='EVOL_THER',
                NOM_CHAM='TEMP',
                AFFE=_F(CHAM_GD = TIMPO,
                        LIST_INST = L_INST))

TEMPE=CALC_META(reuse=TEMPE,
                MODELE=MOTH,
                CHAM_MATER=CHMAT,
                RESULTAT=TEMPE,
                ETAT_INIT=_F( META_INIT_ELNO = PHASINIT),
                COMPORTEMENT=_F(RELATION = 'ZIRC',
                             TOUT = 'OUI'),
                OPTION='META_ELNO',);

for i in range(NCAL):
  inst_i = (i+1)*(tmax/NCAL)
  EVMETA= CREA_CHAMP(
             TYPE_CHAM = 'ELNO_VARI_R',
             OPERATION = 'EXTR',
             RESULTAT  = TEMPE,
             NOM_CHAM  = 'META_ELNO',
             INST      = inst_i,
             )
  V1_META[i]=EVMETA.EXTR_COMP("V1",[],1).valeurs[1]
  V2_META[i]=EVMETA.EXTR_COMP("V2",[],1).valeurs[1]
  V3_META[i]=EVMETA.EXTR_COMP("V3",[],1).valeurs[1]
  V4_META[i]=EVMETA.EXTR_COMP("V4",[],1).valeurs[1]
  DETRUIRE ( CONCEPT =  _F (NOM =EVMETA),);

# Parametres elastiques
YOUN=DEFI_FONCTION(  NOM_PARA='TEMP',
                     VALE=(T0,   8.E4,
                           Tmax, 4.E4,)  )

NUCST=DEFI_CONSTANTE(VALE=0.35);

ALPH=DEFI_FONCTION(NOM_PARA='TEMP',VALE=(T0,   1.0E-5,
                                         Tmax, 2.0E-5,),);


# PARTIE MECANIQUE

ACMAT=DEFI_MATERIAU(ELAS_META_FO=_F(E = YOUN ,
                                    NU = NUCST ,
                                    F_ALPHA = ALPH ,
                                    C_ALPHA = ALPH ,
                                    TEMP_DEF_ALPHA = 700.,
                                    PHASE_REFE = 'FROID',
                                    EPSF_EPSC_TREF = 0.,),
                   META_LEMA_ANI=_F(
                            F1_A=2.39,    F2_A=0.22,     C_A=9.36,
                            F1_M=0.0,    F2_M=0.77E-04, C_M=0.99E-04,
                            F1_N=4.39,    F2_N=2.96,     C_N=6.11,
                            F1_Q=19922.8, F2_Q=21023.7,  C_Q=6219.,
                            F_MRR_RR=1.,                 C_MRR_RR=1.,
                            F_MTT_TT=1.,                 C_MTT_TT=1.,
                            F_MZZ_ZZ=1.,                 C_MZZ_ZZ=1.,
                            F_MRT_RT=0.75,               C_MRT_RT=0.75,
                            F_MRZ_RZ=0.75,               C_MRZ_RZ=0.75,
                            F_MTZ_TZ=0.75,               C_MTZ_TZ=0.75,),),

CM1=AFFE_MATERIAU(MAILLAGE=MA,
                  AFFE=_F( TOUT = 'OUI', MATER = ACMAT ),
                  AFFE_VARC=(_F(TOUT='OUI',
                                EVOL=TEMPE,
                                NOM_VARC='M_ZIRC',
                                NOM_CHAM='META_ELNO'),
                             _F(TOUT='OUI',
                                EVOL=TEMPE,
                                VALE_REF=700.,
                                NOM_VARC='TEMP',
                                NOM_CHAM='TEMP'),))

MO=AFFE_MODELE(MAILLAGE=MA,
               AFFE=_F(TOUT='OUI',
                       PHENOMENE ='MECANIQUE',
                       MODELISATION ='3D'))


LINST2=DEFI_LIST_REEL(DEBUT=0.,
                      INTERVALLE=(_F(JUSQU_A=tmax,
                                     NOMBRE=NCAL,),
                                     ),
                      );

TIMP=DEFI_FONCTION(NOM_PARA='INST',  NOM_RESU='TEMP',
                   VALE=(  0. , T0, 1. , Tmax)
                   )

CHMECA=AFFE_CHAR_MECA(  MODELE=MO,
                        FACE_IMPO=(
                              _F( MAILLE = 'DEVANT',  DZ = 0.),
                              _F( MAILLE = 'BAS',     DY = 0.),
                              _F( MAILLE = 'HAUT',    DY = 1.),
                              _F( MAILLE = 'GAUCHE',  DX = 0 )
                                   )
                               )

FDEPL=DEFI_FONCTION(    NOM_PARA='INST',
                        PROL_DROITE='EXCLU',
                        PROL_GAUCHE='EXCLU',
                        VALE=(
                                0.,      0,
                                1.,    0.0,
                             )
                          )

U=STAT_NON_LINE(        MODELE=MO,
                        CHAM_MATER=CM1,
                        EXCIT=(
                                _F(     CHARGE = CHMECA,
                                        FONC_MULT = FDEPL
                                        ),
                               ),
                        COMPORTEMENT=_F(RELATION = 'META_LEMA_ANI',
                                     RELATION_KIT = 'ZIRC',
                                     ITER_INTE_MAXI = 100),
                        NEWTON=_F(MATRICE = 'TANGENTE', REAC_ITER = 1),
                        INCREMENT=_F(LIST_INST = LINST2),
                        CONVERGENCE=_F(
                                        RESI_GLOB_RELA = 1.E-6,
                                        ITER_GLOB_MAXI = 25,
                                       ),
                         )

TBU1 = CREA_TABLE (RESU=_F(RESULTAT=U,
                           TOUT='OUI',
                           TOUT_ORDRE='OUI',
                           NOM_CMP='SIYY',
                           NOM_CHAM='SIEF_ELGA',),)

TBU2 = CREA_TABLE (RESU=_F(RESULTAT=U,
                           TOUT='OUI',
                           TOUT_ORDRE='OUI',
                           NOM_CMP='V1',
                           NOM_CHAM='VARI_ELGA',),)





time = 0.


for i in range(NCAL):

          timem = time

          time = timem + tmax/NCAL

          Ti = T0 + time/tmax * (Tmax - T0)

          Tm = T0 + timem/tmax * (Tmax - T0)

          # deformation mecanique imposee correspondant a la deformation thermique du premier calcul

          epsimp =DEFI_CONSTANTE(VALE=-ALPH(Ti)*(Ti - TREF));

          tempi=DEFI_FONCTION(NOM_PARA='INST',  NOM_RESU='TEMP',
                   VALE=(  timem , Ti, time , Ti)
                   )

          print 'i=',i, ' instant=', time, ' Temperature=',Ti, 'epsimp=',epsimp

          if i > 0 :
             CMULT = YOUN(Ti)/YOUN(Tm)

          ACIER[i]=DEFI_MATERIAU(ELAS_META=_F(E = YOUN(Ti) ,
                                    NU = NUCST(Ti) ,
                                    F_ALPHA = 0. ,
                                    C_ALPHA = 0. ,
                                    PHASE_REFE = 'FROID',
                                    EPSF_EPSC_TREF = 0.,),
                   META_LEMA_ANI=_F(
                            F1_A=2.39,    F2_A=0.22,     C_A=9.36,
                            F1_M=0.0,    F2_M=0.77E-04, C_M=0.99E-04,
                            F1_N=4.39,    F2_N=2.96,     C_N=6.11,
                            F1_Q=19922.8, F2_Q=21023.7,  C_Q=6219.,
                            F_MRR_RR=1.,                 C_MRR_RR=1.,
                            F_MTT_TT=1.,                 C_MTT_TT=1.,
                            F_MZZ_ZZ=1.,                 C_MZZ_ZZ=1.,
                            F_MRT_RT=0.75,               C_MRT_RT=0.75,
                            F_MRZ_RZ=0.75,               C_MRZ_RZ=0.75,
                            F_MTZ_TZ=0.75,               C_MTZ_TZ=0.75,),),

          list = DEFI_LIST_REEL(DEBUT=timem,
                      INTERVALLE=(_F(JUSQU_A=time,NOMBRE=1,),),);

          TIMP2=CREA_CHAMP(OPERATION='AFFE',
                 TYPE_CHAM='NOEU_TEMP_F',
                 MAILLAGE=MA,
                 AFFE=_F(TOUT = 'OUI',
                         NOM_CMP = 'TEMP',
                         VALE_F = tempi))

          PHASINI2=CREA_CHAMP(OPERATION='AFFE',
                    TYPE_CHAM='CART_VAR2_R',
                    MAILLAGE=MA,
                    AFFE=_F(TOUT = 'OUI',
                            NOM_CMP = ('V1', 'V2', 'V3','V4'),
                     VALE=(V1_META[i],V2_META[i],V3_META[i],V4_META[i])))

          TEMP2=CREA_RESU(OPERATION='AFFE',
                TYPE_RESU='EVOL_THER',
                NOM_CHAM='TEMP',
                AFFE=_F(CHAM_GD = TIMP2,
                        LIST_INST = list))

          TEMP2=CALC_META(reuse=TEMP2,
                MODELE=MOTH,
                CHAM_MATER=CHMAT,
                RESULTAT=TEMP2,
                ETAT_INIT=_F( META_INIT_ELNO = PHASINI2),
                COMPORTEMENT=_F(RELATION = 'ZIRC',
                             TOUT = 'OUI'),
                OPTION='META_ELNO',);

          CM2=AFFE_MATERIAU(MAILLAGE=MA,
                  AFFE=_F( TOUT = 'OUI', MATER = ACIER[i] ),
                  AFFE_VARC=(_F(TOUT='OUI',
                                EVOL=TEMP2,
                                NOM_VARC='M_ZIRC',
                                NOM_CHAM='META_ELNO'),
                             _F(TOUT='OUI',
                                EVOL=TEMP2,
                                VALE_REF=700.,
                                NOM_VARC='TEMP',
                                NOM_CHAM='TEMP'),))

          if i == 0 :
            RESU[i]=STAT_NON_LINE(        MODELE=MO,
                        CHAM_MATER=CM2,
                        EXCIT=(
                                _F(     CHARGE = CHMECA,
                                        FONC_MULT = epsimp
                                        ),
                               ),
                        COMPORTEMENT=_F(RELATION = 'META_LEMA_ANI',
                                     RELATION_KIT = 'ZIRC',
                                     ITER_INTE_MAXI = 100),
                        NEWTON=_F(MATRICE = 'TANGENTE', REAC_ITER = 1),
                        INCREMENT=_F(LIST_INST = list),
                        CONVERGENCE=_F(
                                        RESI_GLOB_RELA = 1.E-6,
                                        ITER_GLOB_MAXI = 25,
                                       ),
                         )

          if i > 0 :
            DEPINI = CREA_CHAMP ( RESULTAT = RESU[i-1],
                                  OPERATION = 'EXTR',
                                  NOM_CHAM = 'DEPL',
                                  TYPE_CHAM = 'NOEU_DEPL_R',
                                  INST = timem
                               )
            SIGEXT = CREA_CHAMP ( RESULTAT = RESU[i-1],
                                  OPERATION = 'EXTR',
                                  NOM_CHAM = 'SIEF_ELGA',
                                  TYPE_CHAM = 'ELGA_SIEF_R',
                                  INST = timem
                               )
            VARINI = CREA_CHAMP ( RESULTAT = RESU[i-1],
                                  OPERATION = 'EXTR',
                                  NOM_CHAM = 'VARI_ELGA',
                                  TYPE_CHAM = 'ELGA_VARI_R',
                                  INST = timem
                               )
            SIGINI = CREA_CHAMP ( OPERATION = 'ASSE',
                                  MODELE = MO,
                                  TYPE_CHAM = 'ELGA_SIEF_R',
                                  ASSE = (_F(CHAM_GD = SIGEXT,TOUT='OUI',
                                             CUMUL='OUI',COEF_R = CMULT ))
                               )
            RESU[i]=STAT_NON_LINE(        MODELE=MO,
                        CHAM_MATER=CM2,
                        EXCIT=(
                                _F(     CHARGE = CHMECA,
                                        FONC_MULT = epsimp
                                        ),
                               ),
                        COMPORTEMENT=_F(RELATION = 'META_LEMA_ANI',
                                     RELATION_KIT = 'ZIRC',
                                     ITER_INTE_MAXI = 100),
                        NEWTON=_F(MATRICE = 'TANGENTE', REAC_ITER = 1),
                        INCREMENT=_F(LIST_INST = list),
                        ETAT_INIT=_F(
                                     DEPL = DEPINI,
                                     SIGM = SIGINI,
                                     VARI = VARINI
                                     ),
                        CONVERGENCE=_F(
                                        RESI_GLOB_RELA = 1.E-6,
                                        ITER_GLOB_MAXI = 25,
                                       ),
                         )
            DETRUIRE ( CONCEPT =  _F (NOM =DEPINI),);
            DETRUIRE ( CONCEPT =  _F (NOM =SIGEXT),);
            DETRUIRE ( CONCEPT =  _F (NOM =VARINI),);
            DETRUIRE ( CONCEPT =  _F (NOM =SIGINI),);


          DETRUIRE ( CONCEPT =  _F (NOM =epsimp),);
          DETRUIRE ( CONCEPT =  _F (NOM =list),);
          DETRUIRE ( CONCEPT =  _F (NOM =(tempi)),);
          DETRUIRE ( CONCEPT =  _F (NOM =TIMP2),);
          DETRUIRE ( CONCEPT =  _F (NOM =PHASINI2),);
          DETRUIRE ( CONCEPT =  _F (NOM =TEMP2),);
          DETRUIRE ( CONCEPT =  _F (NOM =CM2),);

          if i==19 :

            TRE1 = CREA_TABLE (RESU=_F(RESULTAT=RESU[i],
                           TOUT='OUI',
                           TOUT_ORDRE='OUI',
                           NOM_CMP='SIYY',
                           NOM_CHAM='SIEF_ELGA',),)

            TRE2 = CREA_TABLE (RESU=_F(RESULTAT=RESU[i],
                           TOUT='OUI',
                           TOUT_ORDRE='OUI',
                           NOM_CMP='V1',
                           NOM_CHAM='VARI_ELGA',),)

            indice = 8*i+9

            TEST_TABLE(TABLE=TRE1,
                       NOM_PARA='SIYY',VALE_REFE=TBU1['SIYY',indice],
                       VALE_CALC=TBU1['SIYY',indice],
                       FILTRE=(_F(NOM_PARA='INST',VALE=time),
                               _F(NOM_PARA='POINT',VALE_I=1)),
                       REFERENCE='AUTRE_ASTER',);

            TEST_TABLE(TABLE=TRE2,
                       NOM_PARA='V1',VALE_REFE=TBU2['V1',indice],
                       VALE_CALC=TBU2['V1',indice],
                       FILTRE=(_F(NOM_PARA='INST',VALE=time),
                               _F(NOM_PARA='POINT',VALE_I=1)),
                       REFERENCE='AUTRE_ASTER',);

            DETRUIRE ( CONCEPT =  _F (NOM =TRE1),);
            DETRUIRE ( CONCEPT =  _F (NOM =TRE2),);


FIN();
