# person_in_charge: david.haboussa at edf.fr
# ======================================================================
# COPYRIGHT (C) 1991 - 2016  EDF R&D                  WWW.CODE-ASTER.ORG
# THIS PROGRAM IS FREE SOFTWARE; YOU CAN REDISTRIBUTE IT AND/OR MODIFY
# IT UNDER THE TERMS OF THE GNU GENERAL PUBLIC LICENSE AS PUBLISHED BY
# THE FREE SOFTWARE FOUNDATION; EITHER VERSION 2 OF THE LICENSE, OR
# (AT YOUR OPTION) ANY LATER VERSION.
#
# THIS PROGRAM IS DISTRIBUTED IN THE HOPE THAT IT WILL BE USEFUL, BUT
# WITHOUT ANY WARRANTY; WITHOUT EVEN THE IMPLIED WARRANTY OF
# MERCHANTABILITY OR FITNESS FOR A PARTICULAR PURPOSE. SEE THE GNU
# GENERAL PUBLIC LICENSE FOR MORE DETAILS.
#
# YOU SHOULD HAVE RECEIVED A COPY OF THE GNU GENERAL PUBLIC LICENSE
# ALONG WITH THIS PROGRAM; IF NOT, WRITE TO EDF R&D CODE_ASTER,
#    1 AVENUE DU GENERAL DE GAULLE, 92141 CLAMART CEDEX, FRANCE.
# ======================================================================
# ECROUISSAGE CINEMATIQUE LINERAIRE et ISOTROPE NON-LINEAIRE (FCT EXPONENTIEL)
#

DEBUT(CODE=_F(NIV_PUB_WEB='INTERNET',VISU_EFICAS='NON'),);


#parametres elastiques
YOUNG = 200000.0;
POISSON = 0.3;

#paramtres loi ECMI_TRAC
C_PRAG = 1486.9;

# def des materiaux
ACIER = [None]*2
#unite en Pa
C_Pa = 1.e+6
YOUNG_Pa = YOUNG * C_Pa
C_PRAG_Pa = C_PRAG * C_Pa;

A_ECM=DEFI_FONCTION(    NOM_PARA='EPSI',
                              VALE=(
                                2.18500E-03,    4.37000E+02,
                                2.39020E-03,    4.38040E+02,
                                2.59534E-03,    4.39068E+02,
                                2.80043E-03,    4.40085E+02,
                                3.00545E-03,    4.41091E+02,
                                3.21043E-03,    4.42085E+02,
                                3.41534E-03,    4.43069E+02,
                                3.62021E-03,    4.44042E+02,
                                3.82502E-03,    4.45004E+02,
                                4.02978E-03,    4.45957E+02,
                                4.23449E-03,    4.46899E+02,
                                4.43916E-03,    4.47831E+02,
                                4.64377E-03,    4.48754E+02,
                                4.84834E-03,    4.49667E+02,
                                5.05286E-03,    4.50571E+02,
                                5.25733E-03,    4.51467E+02,
                                5.46176E-03,    4.52353E+02,
                                5.66615E-03,    4.53230E+02,
                                5.87049E-03,    4.54099E+02,
                                6.07480E-03,    4.54959E+02,
# ... 111 like lines cut
                                    ),
                           PROL_DROITE='LINEAIRE',
                          PROL_GAUCHE='LINEAIRE')

A_ECM_Pa=CALC_FONCTION(COMB=_F(FONCTION=A_ECM,
                             COEF=C_Pa,),);

ACIER[0]=DEFI_MATERIAU(ELAS=_F(E=YOUNG_Pa,
                               NU=POISSON,
                               ALPHA=11.8e-6),
                    TRACTION=_F(SIGM=A_ECM_Pa,),
                    PRAGER=_F(C=C_PRAG_Pa),
                                 );
#unite en MPa
ACIER[1]=DEFI_MATERIAU(ELAS=_F(E=YOUNG,
                               NU=POISSON,
                               ALPHA=11.8e-6),
                    TRACTION=_F(SIGM=A_ECM,),
                    PRAGER=_F(C=C_PRAG),
                                 );



ch_param=['V1','VMIS','TRACE','SIXX','SIYY','SIZZ','SIXY','SIXZ','SIYZ','V3','V4','V5','V6']

compor='VMIS_ECMI_TRAC'

tabresu=TEST_COMPOR(OPTION='MECA',

              COMPORTEMENT=_F(RELATION=compor,),
              NEWTON=_F(REAC_ITER=1),
              LIST_MATER=ACIER,
              LIST_NPAS=4*[1] + [1, 5, 25],
              VARI_TEST=('V1','VMIS','TRACE'),
              #LIST_TOLE=4*[1.E-10] + [1.E-1] + 2*[1.E-2] + [1.E-8]
              YOUNG=YOUNG,POISSON=POISSON,
              )

IMPR_TABLE(TABLE=tabresu)


FIN()
