# MODIF  DATE 07/02/2012   AUTEUR PELLET J.PELLET 
# TITRE Exemple d'etude parametrique
# distr01a.para = tps_job 60 mem_job 128Mo ncpus 1 liste_test S
#            CONFIGURATION MANAGEMENT OF EDF VERSION
# ======================================================================
# COPYRIGHT (C) 1991 - 2012  EDF R&D                  WWW.CODE-ASTER.ORG
# THIS PROGRAM IS FREE SOFTWARE; YOU CAN REDISTRIBUTE IT AND/OR MODIFY
# IT UNDER THE TERMS OF THE GNU GENERAL PUBLIC LICENSE AS PUBLISHED BY
# THE FREE SOFTWARE FOUNDATION; EITHER VERSION 2 OF THE LICENSE, OR
# (AT YOUR OPTION) ANY LATER VERSION.
#
# THIS PROGRAM IS DISTRIBUTED IN THE HOPE THAT IT WILL BE USEFUL, BUT
# WITHOUT ANY WARRANTY; WITHOUT EVEN THE IMPLIED WARRANTY OF
# MERCHANTABILITY OR FITNESS FOR A PARTICULAR PURPOSE. SEE THE GNU
# GENERAL PUBLIC LICENSE FOR MORE DETAILS.
#
# YOU SHOULD HAVE RECEIVED A COPY OF THE GNU GENERAL PUBLIC LICENSE
# ALONG WITH THIS PROGRAM; IF NOT, WRITE TO EDF R&D CODE_ASTER,
#    1 AVENUE DU GENERAL DE GAULLE, 92141 CLAMART CEDEX, FRANCE.
# ======================================================================
# RESPONSABLE COURTOIS M.COURTOIS
DEBUT(CODE=_F(NOM='DISTR01A',
NIV_PUB_WEB='INTERNET'),DEBUG=_F(SDVERI='OUI'))

# Lance tel quel ce test effectue un cas de calcul (dont les valeurs
# de F_Norm et F_Tang correspondent au cas theta=0).
# Pour lancer l'etude parametrique, il faut dans le profil astk :
#  - distr01a.comm en donnee, unite 1, type comm
#  - distr01a.med en donnee, unite 20, type mmed
#  - distr01a.51 ou distr01a.50, en donnee, unite quelconque, type distr
#  - en resultat, type repe, un nom de repertoire ou seront ecrits les resultats
# Dans le menu Options, indiquer 'distrib = oui'.
#
# On note ce repertoire "repe_resu" pour la suite.

# Initialisation
# Les valeurs de F_Norm et F_Tang seront remplacees par leurs valeurs
# pour chaque cas de calcul ci-dessous.
# On retrouvera le fichier de commandes utilise pour chaque cas de calcul
# dans "repe_resu"/calc_NUMERO/command_0.comm
# NUMERO etant l'occurence du jeu de parametres dans le fichier distr.
F_Norm = 1.e6
F_Tang = 0.

# Dans la suite du jeu de commandes, on utilise les variables F_Norm et
# F_Tang la ou on a besoin de ces parametres.

MA=DEFI_MATERIAU(ELAS=_F(E=2.10e11, NU=0.3,),)

MAIL=LIRE_MAILLAGE(FORMAT='MED',)

MAIL=MODI_MAILLAGE(reuse=MAIL,
                   MAILLAGE=MAIL,
                   ORIE_PEAU_2D=_F(GROUP_MA=('Press',),),)

MAIL=DEFI_GROUP(reuse=MAIL,
                MAILLAGE=MAIL,
                CREA_GROUP_NO=_F(OPTION='NOEUD_ORDO',
                                 GROUP_MA='Lsup',
                                 NOM='Lsup'),)

MODE=AFFE_MODELE(MAILLAGE=MAIL,
                 AFFE=_F(TOUT='OUI',
                         PHENOMENE='MECANIQUE',
                         MODELISATION='C_PLAN',),)

MATE=AFFE_MATERIAU(MAILLAGE=MAIL,
                   AFFE=_F(TOUT='OUI',
                           MATER=MA,),)

ENCAS=AFFE_CHAR_CINE(MODELE=MODE,
                     MECA_IMPO=(_F(GROUP_MA='Encast',
                                   DX=0.0,
                                   DY=0.0,),),)

CHAR=AFFE_CHAR_MECA(MODELE=MODE,
                    FORCE_CONTOUR=_F(GROUP_MA='Press',
                                     # Utilisation des variables
                                     FX=F_Norm,
                                     FY=F_Tang),)

RESU=MECA_STATIQUE(MODELE=MODE,
                   CHAM_MATER=MATE,
                   EXCIT=(_F(CHARGE=CHAR,),
                  _F(CHARGE=ENCAS),),)

RESU=CALC_ELEM(reuse=RESU,
               RESULTAT=RESU,
               OPTION=('SIGM_ELNO','SIEQ_ELNO',),)

RESU=CALC_NO(reuse=RESU,
             RESULTAT=RESU,
             OPTION=('SIGM_NOEU', 'SIEQ_NOEU', ),)

# Pour recuperer un fichier pour chaque cas de calcul, il est necessaire
# de l'ecrire dans REPE_OUT. On retrouvera le fichier dans
# "repe_resu"/calc_NUMERO/REPE_OUT/poutre.resu.med
DEFI_FICHIER(UNITE=80,
             FICHIER='./REPE_OUT/poutre.resu.med')

IMPR_RESU(FORMAT='MED',
          UNITE=80,
          RESU=_F(MAILLAGE=MAIL,
                  RESULTAT=RESU,
                  NOM_CHAM=('SIEF_ELGA','SIEQ_NOEU','DEPL',),),)

VMIS=POST_RELEVE_T(ACTION=_F(OPERATION='EXTRACTION',
                             INTITULE='Contraintes',
                             RESULTAT=RESU,
                             NOM_CHAM='SIEQ_NOEU',
                             GROUP_NO='Lsup',
                             NOM_CMP='VMIS',),)

# On retrouvera ce fichier dans "repe_resu"/calc_NUMERO/REPE_OUT/poutre.vmis
DEFI_FICHIER(UNITE=38,FICHIER='./REPE_OUT/poutre.vmis')

IMPR_TABLE(TABLE=VMIS,
           UNITE=38,
           FORMAT='ASTER',
           NOM_PARA=('ABSC_CURV','VMIS'),)

FIN()
