########################################################################
#
#                         OUTIL METIER SECURE
#
########################################################################
#
# TYPE D'ANALYSE : TRANS1D-RUPT1D
#
# IDENTIFIANT    : FCA1.1.4
#
# FONCTION       : FICHIER DE COMMANDES POUR EXECUTION CODE_ASTER
#                  RESOLUTION THERMIQUE NON LINEAIRE AVEC CONDITIONS
#                  AUX LIMITES ECHANGE
#                  RESOLUTION MECANIQUE LINEAIRE (ELASTICITE)
#
# SYNTAXE        : CODE_ASTER VERSIONS NEW6 ET STA6 POSTERIEURE A STA6.0
#
# PARAMETRAGE    : OUI
#
########################################################################
# ======================================================================
# COPYRIGHT (C) 1991 - 2012  EDF R&D                  WWW.CODE-ASTER.ORG
# THIS PROGRAM IS FREE SOFTWARE; YOU CAN REDISTRIBUTE IT AND/OR MODIFY
# IT UNDER THE TERMS OF THE GNU GENERAL PUBLIC LICENSE AS PUBLISHED BY
# THE FREE SOFTWARE FOUNDATION; EITHER VERSION 2 OF THE LICENSE, OR
# (AT YOUR OPTION) ANY LATER VERSION.
#
# THIS PROGRAM IS DISTRIBUTED IN THE HOPE THAT IT WILL BE USEFUL, BUT
# WITHOUT ANY WARRANTY; WITHOUT EVEN THE IMPLIED WARRANTY OF
# MERCHANTABILITY OR FITNESS FOR A PARTICULAR PURPOSE. SEE THE GNU
# GENERAL PUBLIC LICENSE FOR MORE DETAILS.
#
# YOU SHOULD HAVE RECEIVED A COPY OF THE GNU GENERAL PUBLIC LICENSE
# ALONG WITH THIS PROGRAM; IF NOT, WRITE TO EDF R&D CODE_ASTER,
#    1 AVENUE DU GENERAL DE GAULLE, 92141 CLAMART CEDEX, FRANCE.
#
#
# ======================================================================

DEBUT(CODE=_F(NIV_PUB_WEB='INTERNET'), DEBUG=_F(SDVERI='OUI'))

#=====  1 - LECTURE DU MAILLAGE  =======================================

PRE_GIBI ()

MAIL = LIRE_MAILLAGE ()

# AJOUT DES GROUPES DE NOEUDS SUR LES BORDS INFERIEUR ET SUPERIEUR

MAIL = DEFI_GROUP ( reuse = MAIL,
                    MAILLAGE      = MAIL,
                    CREA_GROUP_NO =(
                                  _F ( NOM      = 'NOEINF',
                                       GROUP_MA = 'SEGINF' ),
                                  _F ( NOM      = 'NOESUP',
                                       GROUP_MA = 'SEGSUP' ))
                  )

#===== 2 - MODELISATION ET RESOLUTION THERMIQUE NON LINEAIRE  ==========

# 2.1 DEFINITION DU MODELE THERMIQUE

MO_THER = AFFE_MODELE (
        MAILLAGE = MAIL,
        AFFE     =_F ( GROUP_MA     = ( 'R', 'M', 'SEGINF', 'SEGEXT',
                                        'SEGSUP', 'SEGINT' ),
                       PHENOMENE    = 'THERMIQUE',
                       MODELISATION = 'AXIS' )
                      )

MAIL = MODI_MAILLAGE ( reuse        = MAIL ,
                       MAILLAGE     = MAIL ,
                       ORIE_PEAU_2D = (
                                        _F ( GROUP_MA = 'SEGINF'  ) ,
                                        _F ( GROUP_MA = 'SEGEXT'  ) ,
                                        _F ( GROUP_MA = 'SEGSUP'  ) ,
                                        _F ( GROUP_MA = 'SEGINT'  ) 
                                      )
                     )

# 2.2 DEFINITION DES PROPRIETES THERMIQUES DES MATERIAUX

# 2.2.1 MATERIAU DU DEFAUT

LAMB_MET = DEFI_FONCTION ( NOM_PARA    = 'TEMP',
# DEB PARAM
                           VALE        = ( 
                     0.0, 0.0377, 
                     20.0, 0.0377, 
                     50.0, 0.0386, 
                     100.0, 0.0399, 
                     150.0, 0.0405, 
                     200.0, 0.0405, 
                     250.0, 0.0402, 
                     300.0, 0.0395, 
                     350.0, 0.0387, ),
# FIN PARAM
                           PROL_DROITE = 'LINEAIRE',
                           PROL_GAUCHE = 'LINEAIRE' )

BETA_MET = DEFI_FONCTION ( NOM_PARA    = 'TEMP',
# DEB PARAM
                           VALE        = ( 
                     0.0, 0.0, 
                     50.0, 0.10619, 
                     100.0, 0.29033, 
                     150.0, 0.48291, 
                     200.0, 0.68328, 
                     250.0, 0.89216, 
                     300.0, 1.10944, 
                     350.0, 1.33506, ),
## FIN PARAM
                           PROL_DROITE = 'LINEAIRE',
                           PROL_GAUCHE = 'LINEAIRE' )

# CONVERSIONS D'UNITES
#
#                   -1  -1       -1  -1
# LAMBDA      : W.mm  .K   -> W.m  .K
#
#                   -3           -3
# H VOLUMIQUE : J.mm       -> J.m

LMBD_MET = CALC_FONCTION (
             COMB        =_F ( FONCTION = LAMB_MET,
                               COEF     = 1.0E+3 ),
             PROL_DROITE = 'LINEAIRE',
             PROL_GAUCHE = 'LINEAIRE' )

ENTH_MET = CALC_FONCTION (
             COMB        =_F ( FONCTION = BETA_MET,
                               COEF     = 1.0E+9 ),
             PROL_DROITE = 'LINEAIRE',
             PROL_GAUCHE = 'LINEAIRE' )

MATH_MET = DEFI_MATERIAU ( THER_NL = _F ( LAMBDA = LMBD_MET,
                                          BETA   = ENTH_MET ) )

# 2.2.2 REVETEMENT

LAMB_REV = DEFI_FONCTION ( NOM_PARA    = 'TEMP',
# DEB PARAM
                           VALE        = ( 
                     0.0, 0.0147, 
                     20.0, 0.0147, 
                     50.0, 0.0152, 
                     100.0, 0.0158, 
                     150.0, 0.0167, 
                     200.0, 0.0172, 
                     250.0, 0.018, 
                     300.0, 0.0186, 
                     350.0, 0.0193, ),
## FIN PARAM
                           PROL_DROITE = 'LINEAIRE',
                           PROL_GAUCHE = 'LINEAIRE' )

BETA_REV = DEFI_FONCTION ( NOM_PARA    = 'TEMP',
# DEB PARAM
                           VALE        = ( 
                     0.0, 0.0, 
                     50.0, 0.11021, 
                     100.0, 0.30133, 
                     150.0, 0.50143, 
                     200.0, 0.70813, 
                     250.0, 0.91888, 
                     300.0, 1.13291, 
                     350.0, 1.34898, ),
# FIN PARAM
                           PROL_DROITE = 'LINEAIRE',
                           PROL_GAUCHE = 'LINEAIRE' )

# CONVERSIONS D'UNITES
#
#                   -1  -1       -1  -1
# LAMBDA      : W.mm  .K   -> W.m  .K
#
#                   -3           -3
# H VOLUMIQUE : J.mm       -> J.m

LMBD_REV = CALC_FONCTION (
             COMB        =_F ( FONCTION = LAMB_REV,
                               COEF     = 1.0E+3 ),
             PROL_DROITE = 'LINEAIRE',
             PROL_GAUCHE = 'LINEAIRE' )

ENTH_REV = CALC_FONCTION (
             COMB        =_F ( FONCTION = BETA_REV,
                               COEF     = 1.0E+9 ),
             PROL_DROITE = 'LINEAIRE',
             PROL_GAUCHE = 'LINEAIRE' )

MATH_REV = DEFI_MATERIAU ( THER_NL = _F ( LAMBDA = LMBD_REV,
                                          BETA   = ENTH_REV ) )

# 2.3 AFFECTATION DES MATERIAUX

CHMAT_TH = AFFE_MATERIAU ( MAILLAGE = MAIL,
                           AFFE     =(
                                    _F ( GROUP_MA = 'M',
                                         MATER    = MATH_MET ),
                                    _F ( GROUP_MA = 'R',
                                         MATER    = MATH_REV ))
                         )

# 2.4 DEFINITION DU CHARGEMENT THERMIQUE : ECHANGE EN PEAU INTERNE

# 2.4.1-a COEFFICIENTS DU POLYNOME POUR LA VARIATION AZIMUTALE

a0 = 2.01373000
a1 = -1.45143000E-2
a2 = 1.3210000E-3
a3 = -8.0777300E-5
a4 = 1.60275000E-6 
a5 = -1.2661800E-8
a6 = 3.5171600E-11


# 2.4.1-b VALEURS UTILISEES POUR LES PARAMETRES DU TRANSITOIRE ANALYTIQUE

thetais = 10.
theta1 = 270.
tinit = thetais + theta1
theta2 = 20.
trg = 200.
trgcuve = 700.
tsecond = 1000.
fsecond = 0.05
hcuve = 5.


# 2.4.2 DEFINITION DE LA FONCTION DONNANT LA TEMPERATURE EN PAROI INTERNE EN FONCTION DE L'INSTANT AU POINT CONSIDERE

# DEFINITION DU POINT D'ETUDE
angle = 0.0%120.
altitude = -8.100


polynom = a0+a1*(angle)+a2*(angle)**2.+a3*(angle)**3.+a4*(angle)**4.+a5*(angle)**5.+a6*(angle)**6

# TEMPERATURE EN PAROI INTERNE DE LA CUVE EN FONCTION DE L'INSTANT

T_INT = FORMULE(NOM_PARA=('INST'),VALE='thetais+theta1*exp(-INST/((polynom)*(trg*(1-(altitude+8.100)/hcuve)+trgcuve*(altitude+8.100)/hcuve)))+theta2*sin(fsecond*INST)*exp(-INST/tsecond)')


# 2.5 AFFECTATION DU CHARGEMENT THERMIQUE

T_EXT = DEFI_CONSTANTE ( VALE = 20.0 )
H_EXT = DEFI_CONSTANTE ( VALE = 0.0 )  

CHAR_TH = AFFE_CHAR_THER_F ( MODELE  = MO_THER,
#
# Temperature en paroi interne
                             TEMP_IMPO = _F( GROUP_MA = 'SEGINT',
                                             TEMP     = T_INT    ) ,
# Echange nul avec l'exterieur : isolation thermique
#                             ECHANGE = (
#                                       _F( GROUP_MA = 'SEGEXT',
#                                           COEF_H   = H_EXT,
#                                           TEMP_EXT = T_EXT    )
#                                        )
                           )

# 2.6 RESOLUTION THERMIQUE NON LINEAIRE

# 2.6.1 DEFINITION DES INSTANTS DE RESOLUTION

LINST_TH = DEFI_LIST_REEL (DEBUT = 0.,
                           INTERVALLE=_F(JUSQU_A=3400.0, PAS=10.0),
                          )

# 2.6.2 RESOLUTION

TEMP = THER_NON_LINE (
         MODELE      = MO_THER,
         CHAM_MATER  = CHMAT_TH,
         EXCIT       = _F ( CHARGE         = CHAR_TH ),
# DEB PARAM
         ETAT_INIT   = _F ( VALE           = tinit ),
# FIN PARAM
         INCREMENT   = _F ( LIST_INST      = LINST_TH ),
         CONVERGENCE = _F ( ITER_GLOB_MAXI = 100,
                            RESI_GLOB_RELA = 1.0E-5 )
                     )

#===== 3 - MODELISATION ET RESOLUTION MECANIQUE  =======================
#=====     MODELE ELASTIQUE LINEAIRE             =======================

# 3.1 DEFINITION DU MODELE MECANIQUE

MO_MECA = AFFE_MODELE (
        MAILLAGE = MAIL,
        AFFE     =_F ( GROUP_MA     = ( 'R', 'M', 'SEGINF', 'SEGEXT',
                                        'SEGSUP', 'SEGINT' ),
                       PHENOMENE    = 'MECANIQUE',
                       MODELISATION = 'AXIS' )
                      )

MAIL = MODI_MAILLAGE ( reuse        = MAIL ,
                       MAILLAGE     = MAIL ,
                       ORIE_PEAU_2D = (
                                        _F ( GROUP_MA = 'SEGINF'  ) ,
                                        _F ( GROUP_MA = 'SEGEXT'  ) ,
                                        _F ( GROUP_MA = 'SEGSUP'  ) ,
                                        _F ( GROUP_MA = 'SEGINT'  ) 
                                      )
                     )

# 3.2 DEFINITION DES PROPRIETES MECANIQUES DES MATERIAUX

# 3.2.1 MATERIAU DU DEFAUT

E_MET = DEFI_FONCTION ( NOM_PARA    = 'TEMP',
# DEB PARAM
                        VALE        = ( 
                     0.0, 205000.0, 
                     20.0, 204000.0, 
                     50.0, 203000.0, 
                     100.0, 200000.0, 
                     150.0, 197000.0, 
                     200.0, 193000.0, 
                     250.0, 189000.0, 
                     300.0, 185000.0, 
                     350.0, 180000.0, ),
# FIN PARAM
                        PROL_DROITE = 'LINEAIRE',
                        PROL_GAUCHE = 'LINEAIRE' )

# CONVERSION D'UNITE POUR LE MODULE D'YOUNG : MPa -> Pa
YOUNGMET = CALC_FONCTION (
             COMB        =_F ( FONCTION = E_MET,
                               COEF     = 1.0E+6 ),
             PROL_DROITE = 'LINEAIRE',
             PROL_GAUCHE = 'LINEAIRE' )

# DEB PARAM
NUMET = DEFI_CONSTANTE ( VALE = 0.3 )
# FIN PARAM

ALPHAME0 = DEFI_FONCTION  ( NOM_PARA    = 'TEMP',
# DEB PARAM
                            VALE        = ( 
                     0.0, 1.122e-05, 
                     20.0, 1.122e-05, 
                     50.0, 1.145e-05, 
                     100.0, 1.179e-05, 
                     150.0, 1.214e-05, 
                     200.0, 1.247e-05, 
                     250.0, 1.278e-05, 
                     300.0, 1.308e-05, 
                     350.0, 1.34e-05, ),
# FIN PARAM
                            PROL_DROITE = 'LINEAIRE',
                            PROL_GAUCHE = 'LINEAIRE' )

# APPLICATION DU COEFFICIENT MULTIPLICATEUR 
ALPHAMET = CALC_FONCTION (
             COMB        =_F ( FONCTION = ALPHAME0,
                               COEF     = 1.6 ),
             PROL_DROITE = 'LINEAIRE',
             PROL_GAUCHE = 'LINEAIRE' )

MAME_MET = DEFI_MATERIAU ( ELAS_FO =_F (
                      E              = YOUNGMET,
                      NU             = NUMET,
                      ALPHA          = ALPHAMET,
# DEB PARAM
                      TEMP_DEF_ALPHA = 20.0
# FIN PARAM
                         )           )
# 3.2.2 REVETEMENT

E_REV = DEFI_FONCTION ( NOM_PARA    = 'TEMP',
# DEB PARAM
                        VALE        = ( 
                     0.0, 198500.0, 
                     20.0, 197000.0, 
                     50.0, 195000.0, 
                     100.0, 191500.0, 
                     150.0, 187500.0, 
                     200.0, 184000.0, 
                     250.0, 180000.0, 
                     300.0, 176500.0, 
                     350.0, 172000.0, ),
# FIN PARAM
                        PROL_DROITE = 'LINEAIRE',
                        PROL_GAUCHE = 'LINEAIRE' )

# CONVERSION D'UNITE POUR LE MODULE D'YOUNG : MPa -> Pa
YOUNGREV = CALC_FONCTION (
             COMB        =_F ( FONCTION = E_REV,
                               COEF     = 1.0E+6 ),
             PROL_DROITE = 'LINEAIRE',
             PROL_GAUCHE = 'LINEAIRE' )

# DEB PARAM
NUREV = DEFI_CONSTANTE ( VALE = 0.3 )
# FIN PARAM

ALPHARE0 = DEFI_FONCTION  ( NOM_PARA    = 'TEMP',
# DEB PARAM
                            VALE        = ( 
                     0.0, 1.64e-05, 
                     20.0, 1.64e-05, 
                     50.0, 1.654e-05, 
                     100.0, 1.68e-05, 
                     150.0, 1.704e-05, 
                     200.0, 1.72e-05, 
                     250.0, 1.75e-05, 
                     300.0, 1.77e-05, 
                     350.0, 1.79e-05, ),
# FIN PARAM
                            PROL_DROITE = 'LINEAIRE',
                            PROL_GAUCHE = 'LINEAIRE' )

# APPLICATION DU COEFFICIENT MULTIPLICATEUR 
ALPHAREV = CALC_FONCTION (
             COMB        =_F ( FONCTION = ALPHARE0,
                               COEF     = 1.6 ),
             PROL_DROITE = 'LINEAIRE',
             PROL_GAUCHE = 'LINEAIRE' )

MAME_REV = DEFI_MATERIAU ( ELAS_FO =_F (
                      E              = YOUNGREV,
                      NU             = NUREV,
                      ALPHA          = ALPHAREV,
# DEB PARAM
                      TEMP_DEF_ALPHA = 20.0
# FIN PARAM
                         )           )

# 3.3 AFFECTATION DES MATERIAUX

CHMAT_ME = AFFE_MATERIAU ( MAILLAGE = MAIL,
                           AFFE     =(
                                    _F ( GROUP_MA = 'M',
                                         MATER    = MAME_MET,),
                                    _F ( GROUP_MA = 'R',
                                         MATER    = MAME_REV,)),
                           AFFE_VARC=(_F(GROUP_MA = 'M',
                                         NOM_VARC = 'TEMP',
                                         EVOL = TEMP,
                                         NOM_CHAM='TEMP',
# DEB PARAM
                                         VALE_REF = 280.0 ),
# FIN PARAM
                                        _F(GROUP_MA = 'R',
                                         NOM_VARC = 'TEMP',
                                         EVOL = TEMP,
                                         NOM_CHAM='TEMP',
# DEB PARAM
                                         VALE_REF = 280.0 ),)
# FIN PARAM
                         )

# 3.4 DEFINITION DES CHARGEMENTS MECANIQUES

# 3.4.1 PRESSION FLUIDE EN PEAU INTERNE

PRESS0 = DEFI_FONCTION ( NOM_PARA    = 'INST',
# DEB PARAM
                        VALE        = ( 
                              0.0,15.61311,
                             10.01055,14.67456,
                             20.01332,13.72181,
                             30.00928,13.51951,
                             40.03054,11.86051,
                             50.03405,11.02303,
                             60.03804,10.49397,
                             70.01553,9.893082,
                             80.0628,9.205244,
                             90.04962,8.609702,
                             100.005,8.215752,
                             110.0141,7.94385,
                             120.0293,7.747075,
                             130.0506,7.606335,
                             140.0189,7.514703,
                             150.1131,7.45763,
                             160.0571,7.42599,
                             170.0005,7.41524,
                             180.0598,7.416013,
                             190.084,7.410862,
# ... 320 like lines cut
                             3400.013,0.5219343,),
                       PROL_DROITE = 'CONSTANT',
                       PROL_GAUCHE = 'CONSTANT'
# FIN PARAM
                      );
# APPLICATION DU COEFFICIENT MULTIPLICATEUR 
PRESS = CALC_FONCTION (
          COMB        =_F ( FONCTION = PRESS0,
                            COEF     = 1.6 ),
          INTERPOL    = 'LIN',
# DEB PARAM
          PROL_DROITE = 'EXCLU',
          PROL_GAUCHE = 'CONSTANT'
# FIN PARAM
                      )
# CONVERSION D'UNITE POUR LA PRESSION FLUIDE : MPa -> Pa
P_INT = CALC_FONCTION (
          COMB        =_F ( FONCTION = PRESS,
                            COEF     = 1.0E+6 ),
          INTERPOL    = 'LIN',
# DEB PARAM
          PROL_DROITE = 'EXCLU',
          PROL_GAUCHE = 'CONSTANT'
# FIN PARAM
                      )

# 3.4.2 EFFET DE FOND

# DEB PARAM
RIMM = 2197.0
EREV = 7.5 
EMDB = 220.0 
# FIN PARAM

# CONVERSION D'UNITE POUR LES PARAMETRES GEOMETRIQUES : mm -> m
RINT  = RIMM / 1.0E+3
EPREV = EREV / 1.0E+3
EPMDB = EMDB / 1.0E+3

REXT = RINT + EPREV + EPMDB

COEFFOND = ( -1.0E+0*RINT*RINT ) / ( REXT*REXT-RINT*RINT )

P_EF = CALC_FONCTION (
         COMB        =_F ( FONCTION = P_INT,
                           COEF     = COEFFOND ),
         INTERPOL    = 'LIN',
# DEB PARAM
         PROL_DROITE = 'EXCLU',
         PROL_GAUCHE = 'CONSTANT'
# FIN PARAM
                     )

# 3.4.3 DEFINITION D'UNE FONCTION CONSTANTE NULLE AU COURS DU TEMPS
#       POUR L'APPLICATION DES CONDITIONS AUX LIMITES (BLOCAGES)

ZERO = DEFI_FONCTION ( NOM_PARA    = 'INST',
                       VALE        = (  0.,  0.,
                                       10.,  0. ),
                       PROL_DROITE = 'CONSTANT',
                       PROL_GAUCHE = 'CONSTANT' )

# 3.5 AFFECTATION DES CHARGEMENTS THERMO-MECANIQUES

# 3.5.2 PRESSION INTERNE, EFFET DE FOND, BLOCAGES ET CONDITIONS
#       DE SYMETRIE

CHME2 = AFFE_CHAR_MECA_F ( MODELE        = MO_MECA,
                           PRES_REP      =(
                                         _F ( GROUP_MA = 'SEGINT',
                                              PRES     = P_INT ),
                                         _F ( GROUP_MA = 'SEGSUP',
                                              PRES     = P_EF  )),
                           DDL_IMPO     =_F ( GROUP_NO = 'NOEINF',
                                              DY       = ZERO  ),
                           LIAISON_UNIF =_F ( GROUP_NO = 'NOESUP',
                                              DDL      = 'DY'  )
                         )

# 3.6 RESOLUTION ELASTIQUE LINEAIRE

# 3.6.1 DEFINITION DES INSTANTS DE RESOLUTION

LINST_ME = DEFI_LIST_REEL (DEBUT = 0., INTERVALLE=_F(JUSQU_A=3400.0, PAS=10.0),);


# 3.6.2 RESOLUTION EN ELASTICITE LINEAIRE

SIG = MECA_STATIQUE(    MODELE = MO_MECA,
                        CHAM_MATER = CHMAT_ME,
                        EXCIT      =( _F ( CHARGE = CHME2 ) ),
                        SOLVEUR    = ( _F(METHODE='MUMPS',
                                          MATR_DISTRIBUEE='NON',
                                          RESI_RELA=-1.0,
                                          PCENT_PIVOT=100,),), 
                        LIST_INST=LINST_ME);

SIG = CALC_CHAMP (reuse      = SIG,
         CONTRAINTE=('SIGM_ELNO'),
         RESULTAT   = SIG,                  
                 )
#===== 4 - POST-TRAITEMENT : CALCUL DES FACTEURS D'INTENSITE  ==========
#=====     DE CONTRAINTES PAR LA METHODE K-BETA               ==========

# 4.1 RELEVE PREALABLE DES CONTRAINTES ET TEMPERATURE SUR LE SEGMENT
#     D'APPUI DU DEFAUT  

#     REMARQUES :
#     LES CARACTERISTIQUES GEOMETRIQUES DE LA FISSURE SONT SAISIES DANS
#     L'IHM. L'ORIENTATION DE LA FISSURE EST 'CIRC' OU 'LONGI'.

# DEB PARAM
PDEF = 5.0
LDEF = 25.0
RVIR = 2197.0
EPRE = 7.5
# FIN PARAM

#DECALAGE DU DEFAUT
DEF_DEC = -2.0E-4


# CONVERSION D'UNITE POUR LES PARAMETRES GEOMETRIQUES : mm -> m
PROFDEF = PDEF / 1.0E+3 - DEF_DEC
LONGDEF = LDEF / 1.0E+3
DEBFIS  = RVIR / 1.0E+3 + EPRE / 1.0E+3 + DEF_DEC
EXTRABS = DEBFIS + PDEF / 1.0E+3 - DEF_DEC

print 'PROFDEF = ',PROFDEF
print 'LONGDEF = ',LONGDEF
print 'DEBFIS  = ',DEBFIS
print 'EXTRABS = ',EXTRABS

# 4.21DEFINITION D'UN NOUVEAU MATERIAU AVEC ECROUISSAGE ISOTROPE NON
#     LINEAIRE POUR LE REVETEMENT
#     (UTILISATION DE LA LIMITE ELASTIQUE PAR LA METHODE K-BETA)

# DEB PARAM NIV 1

CTREV_01 = DEFI_FONCTION ( NOM_PARA = 'EPSI',
                            VALE = ( 
                     0.00187817259, 370.0, 
                     1.00187817259, 370.0,),
                            PROL_DROITE = 'LINEAIRE',
                            PROL_GAUCHE = 'LINEAIRE')

# CONVERSION D'UNITE SUR LA COURBE DE TRACTION : CONTRAINTE MPa -> Pa
TRREV_01 = CALC_FONCTION ( 
                  COMB     =_F (FONCTION= CTREV_01,
                                COEF     = 1.0E+6 ),
                            PROL_DROITE = 'LINEAIRE',
                            PROL_GAUCHE = 'LINEAIRE')

# DEB PARAM NIV 2
CTREV_02 = DEFI_FONCTION ( NOM_PARA = 'EPSI',
                            VALE = ( 
                     0.001723237598, 330.0, 
                     1.001723237598, 330.0,),
                            PROL_DROITE = 'LINEAIRE',
                            PROL_GAUCHE = 'LINEAIRE')

# CONVERSION D'UNITE SUR LA COURBE DE TRACTION : CONTRAINTE MPa -> Pa
TRREV_02 = CALC_FONCTION ( 
                  COMB     =_F (FONCTION= CTREV_02,
                                COEF     = 1.0E+6 ),
                            PROL_DROITE = 'LINEAIRE',
                            PROL_GAUCHE = 'LINEAIRE')

# DEB PARAM NIV 3
CTREV_03 = DEFI_FONCTION ( NOM_PARA = 'EPSI',
                            VALE = ( 
                     0.00152974504, 270.0, 
                     1.00152974504, 270.0,),
                            PROL_DROITE = 'LINEAIRE',
                            PROL_GAUCHE = 'LINEAIRE')

# CONVERSION D'UNITE SUR LA COURBE DE TRACTION : CONTRAINTE MPa -> Pa
TRREV_03 = CALC_FONCTION ( 
                  COMB     =_F (FONCTION= CTREV_03,
                                COEF     = 1.0E+6 ),
                            PROL_DROITE = 'LINEAIRE',
                            PROL_GAUCHE = 'LINEAIRE')

SIGM_REV = DEFI_NAPPE ( NOM_PARA    = 'TEMP',
# DEB PARAM
                        PARA        = (  20.0,
                    100.0, 
                    300.0, ),
# FIN PARAM
                        FONCTION    = (
# DEB PARAM
                           TRREV_01,
                           TRREV_02,
                           TRREV_03,
# ATTENTION PAS DE ',' APRES LA DERNIERE FONCTION DE LA LISTE
# FIN PARAM
                                      ),
                        PROL_DROITE = 'LINEAIRE',
                        PROL_GAUCHE = 'LINEAIRE' )

MAME_RE2 = DEFI_MATERIAU (ELAS_FO  =_F ( E              = YOUNGREV,
                                         NU             = NUREV,
                                         ALPHA          = ALPHAREV,
                          TEMP_DEF_ALPHA = 20.0),
                          TRACTION =_F ( SIGM = SIGM_REV ))

#****************************************************************************

# 4.2. PRISE EN COMPTE DES CONTRAINTES RESIDUELLES

L_SG_L=DEFI_FONCTION(NOM_PARA='X',
#      DEB PARAM 
                               VALE        = ( 
                     0.0, 0.0, 
                     2197.0, 0.0, 
                     2204.5, 0.0, 
#                     2197.0, 200.0, 
#                     2204.5, 200.0, 
                     2204.51, 0.0, 
                     2424.5, 0.0, ),
#      FIN PARAM 
                               PROL_DROITE = 'LINEAIRE',
                               PROL_GAUCHE = 'LINEAIRE' )
# CONVERSION D'UNITE SUR LA COURBE DE TRACTION : CONTRAINTE MPa -> Pa
L_SG_R_L = CALC_FONCTION (
             COMB        =_F ( FONCTION = L_SG_L,
                               COEF     = 1.0E+6 ),
             PROL_DROITE = 'LINEAIRE',
             PROL_GAUCHE = 'LINEAIRE' )
# FIN PARAM NIV 1


L_SG_C=DEFI_FONCTION(NOM_PARA='X',
#      DEB PARAM 
                               VALE        = ( 
                     0.0, 0.0, 
                     2197.0, 0.0, 
                     2204.5, 0.0, 
#                     2197.0, 156.0, 
#                     2204.5, 156.0, 
                     2204.51, 0.0, 
                     2424.5, 0.0, ),
#      FIN PARAM 
                               PROL_DROITE = 'LINEAIRE',
                               PROL_GAUCHE = 'LINEAIRE' )
# CONVERSION D'UNITE SUR LA COURBE DE TRACTION : CONTRAINTE MPa -> Pa
L_SG_R_C = CALC_FONCTION (
             COMB        =_F ( FONCTION = L_SG_C,
                               COEF     = 1.0E+6 ),
             PROL_DROITE = 'LINEAIRE',
             PROL_GAUCHE = 'LINEAIRE' )
# FIN PARAM NIV 1


# REVETEMENT

debut = (RVIR+EPRE)/1.0E+3
fin   = debut+PDEF/1.e3

# METAL DE BASE

S1M_G=MACR_LIGN_COUPE(RESULTAT=SIG,
#                   LIST_INST=LINST_me,
                   VIS_A_VIS=_F(GROUP_MA_1 = 'M'),
                   NOM_CHAM='SIGM_ELNO',
                   LIGN_COUPE=_F(TYPE='SEGMENT',
                                 NB_POINTS=5,
                                 COOR_ORIG=(debut,0.0,),
                                 COOR_EXTR=(fin,0.0,),
                                 ),);
#
TEMP_G=MACR_LIGN_COUPE(RESULTAT=TEMP,
                   NOM_CHAM='TEMP',
                   LIST_INST = LINST_TH,
                   LIGN_COUPE=_F(TYPE='SEGMENT',
                                 NB_POINTS=5,
                                 COOR_ORIG=(debut,0.0,),
                                 COOR_EXTR=(fin,0.0,),),);

FCT_L = FORMULE(VALE='SIYY+L_SG_R_L(COOR_X*1000)',NOM_PARA=('COOR_X','SIYY',),);

FCT_C = FORMULE(VALE='SIZZ+L_SG_R_C(COOR_X*1000)',NOM_PARA=('COOR_X','SIZZ',),);
#                 

S1_G=CALC_TABLE(TABLE=S1M_G,
               ACTION=(_F(OPERATION='OPER',
                         FORMULE=FCT_L,
                         NOM_PARA='SIYYP',),
                      _F(OPERATION='SUPPRIME',
                          NOM_PARA='SIYY',),
                      _F(OPERATION='OPER',
                         FORMULE=FCT_C,
                         NOM_PARA='SIZZP',),
                      _F(OPERATION='SUPPRIME',
                          NOM_PARA='SIZZ',),
                      _F(OPERATION='EXTR',
                          NOM_PARA=('INTITULE','NOM_CHAM','INST','ABSC_CURV',
                                    'COOR_X','COOR_Y','COOR_Z','SIXX','SIYYP','SIZZP','SIXY'),),
                      _F(OPERATION='RENOMME',
                          NOM_PARA=('SIYYP','SIYY'),),
                      _F(OPERATION='RENOMME',
                          NOM_PARA=('SIZZP','SIZZ'),),));

#*********************************************************************************************



# IMPR_TABLE(TABLE=S1_G)


profondeur         = 0.005e0
longueur_defaut    = 0.025e0
ep_mdb=220.e-3

# 4.3 CALCUL DES FACTEURS D'INTENSITE DE CONTRAINTES 

# 4.3.1 DEFAUT LONGITUDINAL

TB_LONGI = POST_K_BETA ( MAILLAGE  = MAIL,
                         MATER_REV = MAME_RE2,
                         MATER_MDB = MAME_MET,
                         EPAIS_REV = EPREV,
                         EPAIS_MDB = ep_mdb,
                        FISSURE   =_F (   FORM_FISS   = 'SEMI_ELLIPSE',
                                          PROFONDEUR  =  profondeur,
                                          LONGUEUR    =  longueur_defaut,
                                          ORIENTATION = 'LONGI' ),
                         K1D       =(_F (
                                          TABL_MECA_MDB = S1_G,
                                          TABL_THER     = TEMP_G,
                                          INTITULE      = 'NOEINF',),),
                         TITRE     = 'FIC PAR METHODE K-BETA'
                       )


IMPR_TABLE(TABLE=TB_LONGI)
 
# Instant = 0s

TEST_TABLE(REFERENCE = 'NON_DEFINI',
       PRECISION =  0.1E-2,
       VALE_CALC =  280,
       VALE_REFE =  280,
       NOM_PARA  = 'TEMPPF_REV',
       TABLE     =  TB_LONGI,
       FILTRE    = _F(NOM_PARA='INST',VALE=0.),
     )
TEST_TABLE(REFERENCE = 'NON_DEFINI',
       PRECISION =  0.1E-2,
       VALE_CALC =  2.0974258133286E+07,
       VALE_REFE =  2.0974258133286E+07,
       NOM_PARA  = 'K1_REV',
       TABLE     =  TB_LONGI,
       FILTRE    = _F(NOM_PARA='INST',VALE=0.),
     )
TEST_TABLE(REFERENCE = 'NON_DEFINI',
       PRECISION =  0.1E-2,
       VALE_CALC =  2.5985423729961E+07,
       VALE_REFE =  2.5985423729961E+07,
       NOM_PARA  = 'KCP_REV',
       TABLE     =  TB_LONGI,
       FILTRE    = _F(NOM_PARA='INST',VALE=0.),
     )
TEST_TABLE(REFERENCE = 'AUTRE_ASTER',
       PRECISION =  0.75E-2,
       VALE_CALC =  2.1212138570423E+07,
       VALE_REFE =  2.112E+07,
       NOM_PARA  = 'K1_MDB',
       TABLE     =  TB_LONGI,
       FILTRE    = _F(NOM_PARA='INST',VALE=0.),
     )
TEST_TABLE(REFERENCE = 'AUTRE_ASTER',
       PRECISION =  0.5E-2,
       VALE_CALC =  3.0530095134293E+07,
       VALE_REFE =  3.044E+07,
       NOM_PARA  = 'KCP_MDB',
       TABLE     =  TB_LONGI,
       FILTRE    = _F(NOM_PARA='INST',VALE=0.),
     )
TEST_TABLE(REFERENCE = 'NON_DEFINI',
       PRECISION =  0.1E-2,
       VALE_CALC =  7.5572400533636E+06,
       VALE_REFE =  7.5572400533636E+06,
       NOM_PARA  = 'K1C_REV',
       TABLE     =  TB_LONGI,
       FILTRE    = _F(NOM_PARA='INST',VALE=0.),
     )
TEST_TABLE(REFERENCE = 'NON_DEFINI',
       PRECISION =  0.1E-2,
       VALE_CALC =  9.3628143492732E+06,
       VALE_REFE =  9.3628143492732E+06,
       NOM_PARA  = 'KCPC_REV',
       TABLE     =  TB_LONGI,
       FILTRE    = _F(NOM_PARA='INST',VALE=0.),
     )

# Instant = 640.s

TEST_TABLE(REFERENCE = 'NON_DEFINI',
       PRECISION =  0.1E-2,
       VALE_CALC =  106.71166525149,
       VALE_REFE =  106.71166525149,
       NOM_PARA  = 'TEMPPF_REV',
       TABLE     =  TB_LONGI,
       FILTRE    = _F(NOM_PARA='INST',VALE=640.),
     )
TEST_TABLE(REFERENCE = 'NON_DEFINI',
       PRECISION =  0.1E-2,
       VALE_CALC =  6.587463095756E+07,
       VALE_REFE =  6.587463095756E+07,
       NOM_PARA  = 'K1_REV',
       TABLE     =  TB_LONGI,
       FILTRE    = _F(NOM_PARA='INST',VALE=640.),
     )
TEST_TABLE(REFERENCE = 'NON_DEFINI',
       PRECISION =  0.1E-2,
       VALE_CALC =  8.3750025886379E+07,
       VALE_REFE =  8.3750025886379E+07,
       NOM_PARA  = 'KCP_REV',
       TABLE     =  TB_LONGI,
       FILTRE    = _F(NOM_PARA='INST',VALE=640.),
     )
TEST_TABLE(REFERENCE = 'AUTRE_ASTER',
       PRECISION =  0.75E-2,
       VALE_CALC =  6.4239617148243E+07,
       VALE_REFE =  6.396E+07,
       NOM_PARA  = 'K1_MDB',
       TABLE     =  TB_LONGI,
       FILTRE    = _F(NOM_PARA='INST',VALE=640.),
     )
TEST_TABLE(REFERENCE = 'AUTRE_ASTER',
       PRECISION =  1.5E-2,
       VALE_CALC =  9.6108713859147E+07,
       VALE_REFE =  9.519E+07,
       NOM_PARA  = 'KCP_MDB',
       TABLE     =  TB_LONGI,
       FILTRE    = _F(NOM_PARA='INST',VALE=640.),
     )
TEST_TABLE(REFERENCE = 'NON_DEFINI',
       PRECISION =  0.1E-2,
       VALE_CALC =  2.3986634710876E+07,
       VALE_REFE =  2.3986634710876E+07,
       NOM_PARA  = 'K1C_REV',
       TABLE     =  TB_LONGI,
       FILTRE    = _F(NOM_PARA='INST',VALE=640.),
     )
TEST_TABLE(REFERENCE = 'NON_DEFINI',
       PRECISION =  0.1E-2,
       VALE_CALC =  3.0509594876999E+07,
       VALE_REFE =  3.0509594876999E+07,
       NOM_PARA  = 'KCPC_REV',
       TABLE     =  TB_LONGI,
       FILTRE    = _F(NOM_PARA='INST',VALE=640.),
     )

# Instant = 3400.s

TEST_TABLE(REFERENCE = 'NON_DEFINI',
       PRECISION =  0.1E-2,
       VALE_CALC =  23.039315174059,
       VALE_REFE =  23.039315174059,
       NOM_PARA  = 'TEMPPF_REV',
       TABLE     =  TB_LONGI,
       FILTRE    = _F(NOM_PARA='INST',VALE=3400.),
     )
TEST_TABLE(REFERENCE = 'NON_DEFINI',
       PRECISION =  0.1E-2,
       VALE_CALC =  2.360209653767E+07,
       VALE_REFE =  2.360209653767E+07,
       NOM_PARA  = 'K1_REV',
       TABLE     =  TB_LONGI,
       FILTRE    = _F(NOM_PARA='INST',VALE=3400.),
     )
TEST_TABLE(REFERENCE = 'NON_DEFINI',
       PRECISION =  0.1E-2,
       VALE_CALC =  4.1659716851549E+07,
       VALE_REFE =  4.1659716851549E+07,
       NOM_PARA  = 'KCP_REV',
       TABLE     =  TB_LONGI,
       FILTRE    = _F(NOM_PARA='INST',VALE=3400.),
     )
TEST_TABLE(REFERENCE = 'AUTRE_ASTER',
       PRECISION =  0.75E-2,
       VALE_CALC =  2.3121293098448E+07,
       VALE_REFE =  2.301E+07,
       NOM_PARA  = 'K1_MDB',
       TABLE     =  TB_LONGI,
       FILTRE    = _F(NOM_PARA='INST',VALE=3400.),
     )
TEST_TABLE(REFERENCE = 'AUTRE_ASTER',
       PRECISION =  0.75E-2,
       VALE_CALC =  5.5392309786484E+07,
       VALE_REFE =  5.512E+07,
       NOM_PARA  = 'KCP_MDB',
       TABLE     =  TB_LONGI,
       FILTRE    = _F(NOM_PARA='INST',VALE=3400.),
     )
TEST_TABLE(REFERENCE = 'NON_DEFINI',
       PRECISION =  0.1E-2,
       VALE_CALC =  8.5637713849839E+06,
       VALE_REFE =  8.5637713849839E+06,
       NOM_PARA  = 'K1C_REV',
       TABLE     =  TB_LONGI,
       FILTRE    = _F(NOM_PARA='INST',VALE=3400.),
     )
TEST_TABLE(REFERENCE = 'NON_DEFINI',
       PRECISION =  0.1E-2,
       VALE_CALC =  1.5143641900781E+07,
       VALE_REFE =  1.5143641900781E+07,
       NOM_PARA  = 'KCPC_REV',
       TABLE     =  TB_LONGI,
       FILTRE    = _F(NOM_PARA='INST',VALE=3400.),
     )

# 4.3.1 DEFAUT CIRCONFERENTIEL

TB_CIRC = POST_K_BETA ( MAILLAGE  = MAIL,
                         MATER_REV = MAME_RE2,
                         MATER_MDB = MAME_MET,
                         EPAIS_REV = EPREV,
                         EPAIS_MDB = ep_mdb,
                        FISSURE   =_F (   FORM_FISS   = 'SEMI_ELLIPSE',
                                          PROFONDEUR  =  profondeur,
                                          LONGUEUR    =  longueur_defaut,
                                          ORIENTATION = 'CIRC' ),
                         K1D       =(_F (
                                          TABL_MECA_MDB = S1_G,
                                          TABL_THER     = TEMP_G,
                                          INTITULE      = 'NOEINF',),),
                         TITRE     = 'FIC PAR METHODE K-BETA'
                       )

IMPR_TABLE(TABLE=TB_CIRC)

# Instant = 0s

TEST_TABLE(REFERENCE = 'NON_DEFINI',
       PRECISION =  0.1E-2,
       VALE_CALC =  280,
       VALE_REFE =  280,
       NOM_PARA  = 'TEMPPF_REV',
       TABLE     =  TB_CIRC,
       FILTRE    = _F(NOM_PARA='INST',VALE=0.),
     )
TEST_TABLE(REFERENCE = 'NON_DEFINI',
       PRECISION =  0.1E-2,
       VALE_CALC =  9.4978855553688E+06,
       VALE_REFE =  9.4978855553688E+06,
       NOM_PARA  = 'K1_REV',
       TABLE     =  TB_CIRC,
       FILTRE    = _F(NOM_PARA='INST',VALE=0.),
     )
TEST_TABLE(REFERENCE = 'NON_DEFINI',
       PRECISION =  0.1E-2,
       VALE_CALC =  1.0888095323965E+07,
       VALE_REFE =  1.0888095323965E+07,
       NOM_PARA  = 'KCP_REV',
       TABLE     =  TB_CIRC,
       FILTRE    = _F(NOM_PARA='INST',VALE=0.),
     )
TEST_TABLE(REFERENCE = 'AUTRE_ASTER',
       PRECISION =  0.75E-2,
       VALE_CALC =  9.6173527611692E+06,
       VALE_REFE =  9.57E+06,
       NOM_PARA  = 'K1_MDB',
       TABLE     =  TB_CIRC,
       FILTRE    = _F(NOM_PARA='INST',VALE=0.),
     )
TEST_TABLE(REFERENCE = 'AUTRE_ASTER',
       PRECISION =  0.5E-2,
       VALE_CALC =  1.102504899826E+07,
       VALE_REFE =  1.1E+07,
       NOM_PARA  = 'KCP_MDB',
       TABLE     =  TB_CIRC,
       FILTRE    = _F(NOM_PARA='INST',VALE=0.),
     )
TEST_TABLE(REFERENCE = 'NON_DEFINI',
       PRECISION =  0.1E-2,
       VALE_CALC =  3.4208430636403E+06,
       VALE_REFE =  3.4208430636403E+06,
       NOM_PARA  = 'K1C_REV',
       TABLE     =  TB_CIRC,
       FILTRE    = _F(NOM_PARA='INST',VALE=0.),
     )
TEST_TABLE(REFERENCE = 'NON_DEFINI',
       PRECISION =  0.1E-2,
       VALE_CALC =  3.9215533971333E+06,
       VALE_REFE =  3.9215533971333E+06,
       NOM_PARA  = 'KCPC_REV',
       TABLE     =  TB_CIRC,
       FILTRE    = _F(NOM_PARA='INST',VALE=0.),
     )

# Instant = 640.s

TEST_TABLE(REFERENCE = 'NON_DEFINI',
       PRECISION =  0.1E-2,
       VALE_CALC =  106.71166525149,
       VALE_REFE =  106.71166525149,
       NOM_PARA  = 'TEMPPF_REV',
       TABLE     =  TB_CIRC,
       FILTRE    = _F(NOM_PARA='INST',VALE=640.),
     )
TEST_TABLE(REFERENCE = 'NON_DEFINI',
       PRECISION =  0.1E-2,
       VALE_CALC =  6.1604794623564E+07,
       VALE_REFE =  6.1604794623564E+07,
       NOM_PARA  = 'K1_REV',
       TABLE     =  TB_CIRC,
       FILTRE    = _F(NOM_PARA='INST',VALE=640.),
     )
TEST_TABLE(REFERENCE = 'NON_DEFINI',
       PRECISION =  0.1E-2,
       VALE_CALC =  9.2977411534289E+07,
       VALE_REFE =  9.2977411534289E+07,
       NOM_PARA  = 'KCP_REV',
       TABLE     =  TB_CIRC,
       FILTRE    = _F(NOM_PARA='INST',VALE=640.),
     )
TEST_TABLE(REFERENCE = 'AUTRE_ASTER',
       PRECISION =  0.75E-2,
       VALE_CALC =  5.9996707284157E+07,
       VALE_REFE =  5.974E+07,
       NOM_PARA  = 'K1_MDB',
       TABLE     =  TB_CIRC,
       FILTRE    = _F(NOM_PARA='INST',VALE=640.),
     )
TEST_TABLE(REFERENCE = 'AUTRE_ASTER',
       PRECISION =  1.2E-2,
       VALE_CALC =  9.0401631601529E+07,
       VALE_REFE =  8.961E+07,
       NOM_PARA  = 'KCP_MDB',
       TABLE     =  TB_CIRC,
       FILTRE    = _F(NOM_PARA='INST',VALE=640.),
     )
TEST_TABLE(REFERENCE = 'NON_DEFINI',
       PRECISION =  0.1E-2,
       VALE_CALC =  2.2440709673036E+07,
       VALE_REFE =  2.2440709673036E+07,
       NOM_PARA  = 'K1C_REV',
       TABLE     =  TB_CIRC,
       FILTRE    = _F(NOM_PARA='INST',VALE=640.),
     )
TEST_TABLE(REFERENCE = 'NON_DEFINI',
       PRECISION =  0.1E-2,
       VALE_CALC =  3.3895617604313E+07,
       VALE_REFE =  3.3895617604313E+07,
       NOM_PARA  = 'KCPC_REV',
       TABLE     =  TB_CIRC,
       FILTRE    = _F(NOM_PARA='INST',VALE=640.),
     )

# Instant = 3400.s

TEST_TABLE(REFERENCE = 'NON_DEFINI',
       PRECISION =  0.1E-2,
       VALE_CALC =  23.039315174059,
       VALE_REFE =  23.039315174059,
       NOM_PARA  = 'TEMPPF_REV',
       TABLE     =  TB_CIRC,
       FILTRE    = _F(NOM_PARA='INST',VALE=3400.),
     )
TEST_TABLE(REFERENCE = 'NON_DEFINI',
       PRECISION =  0.1E-2,
       VALE_CALC =  2.3476783901483E+07,
       VALE_REFE =  2.3476783901483E+07,
       NOM_PARA  = 'K1_REV',
       TABLE     =  TB_CIRC,
       FILTRE    = _F(NOM_PARA='INST',VALE=3400.),
     )
TEST_TABLE(REFERENCE = 'NON_DEFINI',
       PRECISION =  0.1E-2,
       VALE_CALC =  5.5665267256335E+07,
       VALE_REFE =  5.5665267256335E+07,
       NOM_PARA  = 'KCP_REV',
       TABLE     =  TB_CIRC,
       FILTRE    = _F(NOM_PARA='INST',VALE=3400.),
     )
TEST_TABLE(REFERENCE = 'AUTRE_ASTER',
       PRECISION =  0.75E-2,
       VALE_CALC =  2.3020619993402E+07,
       VALE_REFE =  2.291E+07,
       NOM_PARA  = 'K1_MDB',
       TABLE     =  TB_CIRC,
       FILTRE    = _F(NOM_PARA='INST',VALE=3400.),
     )
TEST_TABLE(REFERENCE = 'AUTRE_ASTER',
       PRECISION =  0.75E-2,
       VALE_CALC =  5.4318046963526E+07,
       VALE_REFE =  5.405E+07,
       NOM_PARA  = 'KCP_MDB',
       TABLE     =  TB_CIRC,
       FILTRE    = _F(NOM_PARA='INST',VALE=3400.),
     )
TEST_TABLE(REFERENCE = 'NON_DEFINI',
       PRECISION =  0.1E-2,
       VALE_CALC =  8.5157391556399E+06,
       VALE_REFE =  8.5157391556399E+06,
       NOM_PARA  = 'K1C_REV',
       TABLE     =  TB_CIRC,
       FILTRE    = _F(NOM_PARA='INST',VALE=3400.),
     )
TEST_TABLE(REFERENCE = 'NON_DEFINI',
       PRECISION =  0.1E-2,
       VALE_CALC =  2.0241550084852E+07,
       VALE_REFE =  2.0241550084852E+07,
       NOM_PARA  = 'KCPC_REV',
       TABLE     =  TB_CIRC,
       FILTRE    = _F(NOM_PARA='INST',VALE=3400.),
     )

FIN ()
