# MODIF  DATE 18/02/2013   AUTEUR SELLENET N.SELLENET 
# TITRE ABSORPTION D'UNE ONDE DE PRESSION DANS UNE COLONNE FLUIDE
# fdlv111b.para = tps_job 510 mem_job 512Mo ncpus 1 liste_test S
#            CONFIGURATION MANAGEMENT OF EDF VERSION
# ======================================================================
# COPYRIGHT (C) 1991 - 2013  EDF R&D                  WWW.CODE-ASTER.ORG
# THIS PROGRAM IS FREE SOFTWARE; YOU CAN REDISTRIBUTE IT AND/OR MODIFY
# IT UNDER THE TERMS OF THE GNU GENERAL PUBLIC LICENSE AS PUBLISHED BY
# THE FREE SOFTWARE FOUNDATION; EITHER VERSION 2 OF THE LICENSE, OR
# (AT YOUR OPTION) ANY LATER VERSION.
#
# THIS PROGRAM IS DISTRIBUTED IN THE HOPE THAT IT WILL BE USEFUL, BUT
# WITHOUT ANY WARRANTY; WITHOUT EVEN THE IMPLIED WARRANTY OF
# MERCHANTABILITY OR FITNESS FOR A PARTICULAR PURPOSE. SEE THE GNU
# GENERAL PUBLIC LICENSE FOR MORE DETAILS.
#
# YOU SHOULD HAVE RECEIVED A COPY OF THE GNU GENERAL PUBLIC LICENSE
# ALONG WITH THIS PROGRAM; IF NOT, WRITE TO EDF R&D CODE_ASTER,
#    1 AVENUE DU GENERAL DE GAULLE, 92141 CLAMART CEDEX, FRANCE.
# ======================================================================
# CAS_TEST__: FDLV111B
#
# PROPAGATION D'UNE ONDE DE COMPRESSION DANS UNE COLONNE FLUIDE
# INFINIE - ABSORPTION DE L'ONDE A LA FRONTIERE DU MAILLAGE
# ELEMENTS FINIS
# CAS 2D
#=======================================================================

DEBUT(CODE=_F( NOM = 'FDLV111B',NIV_PUB_WEB='INTERNET'))

MAIL=LIRE_MAILLAGE(FORMAT='MED', )

MAIL=DEFI_GROUP( reuse=MAIL,   MAILLAGE=MAIL,
                       CREA_GROUP_NO=_F(  GROUP_MA = 'IFLUSOL')
                     )

MAIL=DEFI_GROUP( reuse=MAIL,   MAILLAGE=MAIL,
                       CREA_GROUP_NO=_F(  GROUP_MA = 'IPRES')
                     )

MAIL=DEFI_GROUP( reuse=MAIL,   MAILLAGE=MAIL,
                       CREA_GROUP_NO=_F(  GROUP_MA = 'STRU')
                     )

EAU=DEFI_MATERIAU( FLUIDE=_F( RHO = 1000.,  CELE_R = 1500.))

MAT1=DEFI_MATERIAU( ELAS=_F(  E = 3.6E+10, RHO = 2400.,  NU = 0.2)
                    )

MODELE=AFFE_MODELE(    MAILLAGE=MAIL,AFFE=(
                         _F(  GROUP_MA = 'FLUIDE',
                                PHENOMENE = 'MECANIQUE',
                                MODELISATION = '2D_FLUIDE'),
                         _F(  GROUP_MA = 'IFLUSOL',
                                PHENOMENE = 'MECANIQUE',
                                MODELISATION = '2D_FLUI_STRU'),
                         _F(  GROUP_MA = 'FOND',
                                PHENOMENE = 'MECANIQUE',
                                MODELISATION = '2D_FLUI_ABSO'),
                         _F(  GROUP_MA = 'IPRES',
                                PHENOMENE = 'MECANIQUE',
                                MODELISATION = '2D_FLUI_STRU'),
                           _F( GROUP_MA = 'STRU',
                                 PHENOMENE = 'MECANIQUE',
                                 MODELISATION = 'D_PLAN'))
                        )

CHAMPMAT=AFFE_MATERIAU(    MAILLAGE=MAIL,AFFE=(
                   _F(  GROUP_MA = ( 'FLUIDE', 'IFLUSOL',
                                       'FOND', 'IPRES', ),
                          MATER = EAU),
                   _F(  GROUP_MA = 'STRU',
                          MATER = MAT1))
                           )

COND_LIM=AFFE_CHAR_MECA(    MODELE=MODELE,DDL_IMPO=(
                   _F(  GROUP_NO = 'IFLUSOL',
                               DX = 0., DY = 0.),
                   _F(  GROUP_NO = 'IPRES',
                              DX = -1.E-3))
                             )

RIGI_ELE=CALC_MATR_ELEM(    MODELE=MODELE,
                              OPTION='RIGI_MECA',
                              CHAM_MATER=CHAMPMAT,
                              CHARGE=COND_LIM
                            )

MASS_ELE=CALC_MATR_ELEM(    MODELE=MODELE,
                              OPTION='MASS_MECA',
                              CHAM_MATER=CHAMPMAT,
                              CHARGE=COND_LIM
                            )

VECTELEM=CALC_VECT_ELEM(    OPTION='CHAR_MECA',
                              CHAM_MATER=CHAMPMAT,
                              CHARGE=COND_LIM
                            )

NUMEDDL=NUME_DDL(    MATR_RIGI=RIGI_ELE )
#METHODE : 'LDLT');

RIGIDITE=ASSE_MATRICE(    MATR_ELEM=RIGI_ELE,
                            NUME_DDL=NUMEDDL
                          )

MASSE=ASSE_MATRICE(    MATR_ELEM=MASS_ELE,
                         NUME_DDL=NUMEDDL
                       )

VECTASS=ASSE_VECTEUR(    VECT_ELEM=VECTELEM,
                           NUME_DDL=NUMEDDL
                         )

# --- LECTURE DE LA FONCTION D'EXCITATION ---
INCLUDE(   UNITE=11,   INFO=1 )

TEMPLI=DEFI_LIST_REEL(DEBUT=0., INTERVALLE=_F( JUSQU_A = 4., NOMBRE = 4000))

INTLI=DEFI_LIST_ENTI( DEBUT=1, INTERVALLE=_F( JUSQU_A = 4001, PAS = 1))

DYN=DYNA_VIBRA(TYPE_CALCUL='TRAN',BASE_CALCUL='PHYS',
                          MATR_MASS=MASSE,   MATR_RIGI=RIGIDITE,
                          EXCIT=_F(  VECT_ASSE = VECTASS,
                                  FONC_MULT = FONC),
                         INCREMENT=_F( LIST_INST = TEMPLI),
                         SCHEMA_TEMPS=_F(SCHEMA='NEWMARK',),
                        )

PN10=RECU_FONCTION(    LIST_INST=TEMPLI,   PRECISION=1.E-4,
                        RESULTAT=DYN,   NOEUD='N10',
                        NOM_CHAM='DEPL',
                        NOM_CMP='PRES'
                      )

PN7=RECU_FONCTION(    LIST_INST=TEMPLI,   PRECISION=1.E-4,
                        RESULTAT=DYN,   NOEUD='N7',
                        NOM_CHAM='DEPL',
                        NOM_CMP='PRES'
                      )

TEST_FONCTION(VALEUR=(_F(VALE_CALC=4889.6199999999999,
                         TOLE_MACHINE=1.E-3,
                         CRITERE='RELATIF',
                         VALE_PARA=0.38600000000000001,
                         FONCTION=PN10,
                         ),
                      _F(VALE_CALC=-4939.6099999999997,
                         TOLE_MACHINE=1.E-3,
                         CRITERE='RELATIF',
                         VALE_PARA=0.63700000000000001,
                         FONCTION=PN10,
                         ),
                      _F(VALE_CALC=0.434576511383,
                         VALE_REFE=0.0,
                         CRITERE='ABSOLU',
                         VALE_PARA=1.1559999999999999,
                         REFERENCE='ANALYTIQUE',
                         TOLE_MACHINE=1.e-3,
                         PRECISION=1.0,
                         FONCTION=PN10,),
                      ),
              )

TEST_FONCTION(VALEUR=_F(VALE_CALC=4890.7399999999998,
                        TOLE_MACHINE=1.E-3,
                        CRITERE='RELATIF',
                        VALE_PARA=0.38600000000000001,
                        FONCTION=PN7,),
              )

TEMLI=DEFI_LIST_REEL(DEBUT=0., INTERVALLE=_F( JUSQU_A = 1.1, NOMBRE = 1100))

TEMLI2=DEFI_LIST_REEL(DEBUT=0.001,
        INTERVALLE=_F( JUSQU_A = 1.1, NOMBRE = 1099))

INLI=DEFI_LIST_ENTI( DEBUT=1, INTERVALLE=_F( JUSQU_A = 1101, PAS = 1))


ACCE0 = CREA_CHAMP(TYPE_CHAM='NOEU_DEPL_R',OPERATION='AFFE',MODELE=MODELE,
                   AFFE=_F(TOUT='OUI',NOM_CMP=('DX', 'DY', 'DZ', 'PRES', 'PHI',),VALE = (0., 0., 0., 0., 0.,),),);

DYNA=DYNA_NON_LINE(     MODELE=MODELE,   CHAM_MATER=CHAMPMAT,
                          EXCIT=_F(  CHARGE = COND_LIM,
                                  FONC_MULT = FONC),
                       #  ETAT_INIT=_F(  INST_INIT = 0.),
#  On impose explicitement une acceleration initiale nulle car la matrice de masse etant singuliere
#  a cause du modele (u,p,phi), on ne peut calculer une acceleration non nulle :
                          ETAT_INIT=_F(  ACCE = ACCE0,),
                          COMP_INCR=_F( RELATION = 'ELAS',
                                  TOUT = 'OUI'),
                         SOLVEUR=_F( STOP_SINGULIER = 'NON',
                                  METHODE = 'LDLT'),
                         NEWTON=_F(  MATRICE = 'ELASTIQUE',
                                 REAC_INCR = 0,
                                 REAC_ITER = 0),
                         CONVERGENCE=_F(  RESI_GLOB_RELA = 1.E-6,
                             ITER_GLOB_MAXI = 20),
                         INCREMENT=_F( LIST_INST = TEMLI),
###CDURAND###            ARCHIVAGE=_F( LIST_ARCH = INLI),
                         SCHEMA_TEMPS=_F(SCHEMA='NEWMARK',
                                FORMULATION='DEPLACEMENT',),
                        )

PNA10=RECU_FONCTION(    LIST_INST=TEMLI2,   PRECISION=1.E-4,
                        RESULTAT=DYNA,   NOEUD='N10',
                        NOM_CHAM='DEPL',
                        NOM_CMP='PRES'
                      )

PNA7=RECU_FONCTION(    LIST_INST=TEMLI2,   PRECISION=1.E-4,
                        RESULTAT=DYNA,   NOEUD='N7',
                        NOM_CHAM='DEPL',
                        NOM_CMP='PRES'
                      )

TEST_FONCTION(VALEUR=(_F(VALE_CALC=4872.99968383,
                         VALE_REFE=4874.5100000000002,
                         CRITERE='RELATIF',
                         VALE_PARA=0.38400000000000001,
                         REFERENCE='NON_DEFINI',
                         PRECISION=3.0000000000000001E-3,
                         FONCTION=PNA10,
                         ),
                      _F(VALE_CALC=-4881.46452981,
                         VALE_REFE=-4885.8299999999999,
                         CRITERE='RELATIF',
                         VALE_PARA=0.64400000000000002,
                         REFERENCE='NON_DEFINI',
                         PRECISION=8.0000000000000002E-3,
                         FONCTION=PNA10,
                         ),
                      _F(VALE_CALC=38.7156183002,
                         VALE_REFE=0.0,
                         CRITERE='ABSOLU',
                         VALE_PARA=1.1000000000000001,
                         REFERENCE='ANALYTIQUE',
                         PRECISION=50.0,
                         FONCTION=PNA10,),
                      ),
              )

TEST_FONCTION(VALEUR=_F(VALE_CALC=4888.7700000000004,
                        TOLE_MACHINE=1.E-3,
                        CRITERE='RELATIF',
                        VALE_PARA=0.38400000000000001,
                        FONCTION=PN7,
                        ),
              )

FIN()
#
