# TITRE ANALYSE MODALE ET HARMONIQUE D UN BARRAGE EN INTERACTION
# ======================================================================
# COPYRIGHT (C) 1991 - 2013  EDF R&D                  WWW.CODE-ASTER.ORG
# THIS PROGRAM IS FREE SOFTWARE; YOU CAN REDISTRIBUTE IT AND/OR MODIFY
# IT UNDER THE TERMS OF THE GNU GENERAL PUBLIC LICENSE AS PUBLISHED BY
# THE FREE SOFTWARE FOUNDATION; EITHER VERSION 2 OF THE LICENSE, OR
# (AT YOUR OPTION) ANY LATER VERSION.
#
# THIS PROGRAM IS DISTRIBUTED IN THE HOPE THAT IT WILL BE USEFUL, BUT
# WITHOUT ANY WARRANTY; WITHOUT EVEN THE IMPLIED WARRANTY OF
# MERCHANTABILITY OR FITNESS FOR A PARTICULAR PURPOSE. SEE THE GNU
# GENERAL PUBLIC LICENSE FOR MORE DETAILS.
#
# YOU SHOULD HAVE RECEIVED A COPY OF THE GNU GENERAL PUBLIC LICENSE
# ALONG WITH THIS PROGRAM; IF NOT, WRITE TO EDF R&D CODE_ASTER,
#    1 AVENUE DU GENERAL DE GAULLE, 92141 CLAMART CEDEX, FRANCE.
# ======================================================================
#  SOL-FLUIDE-STRUCTURE

DEBUT(CODE=_F(
              NIV_PUB_WEB='INTERNET',),
      DEBUG=_F(SDVERI='OUI',),);

#

mail0=LIRE_MAILLAGE(FORMAT='MED',
                    VERI_MAIL=_F(VERIF='OUI',),);

#
# Modification du maillage pour creer des mailles a un noeud pour
# placer les impedances sous la fondation du barrages.

mail=CREA_MAILLAGE(MAILLAGE=mail0,
                   CREA_POI1=(_F(NOM_GROUP_MA='PBASE',
                                 NOEUD='N316',),
                              _F(NOM_GROUP_MA='PFONDAT',
                                 GROUP_MA='SURFBAS2',),),);

#
# Modification du maillage pour creer des mailles a un noeud pour
# placer les impedances sous la fondation du barrages.

mail=DEFI_GROUP(reuse =mail,
                MAILLAGE=mail,
                CREA_GROUP_NO=_F(GROUP_MA='SURFBAS2',
                                 NOM='ISOLSTR',),);

#
# Orientation des elements d interface.

mail=MODI_MAILLAGE(reuse =mail,
                   MAILLAGE=mail,
                   ORIE_NORM_COQUE=(_F(GROUP_MA='IFLUSOL2',
                                       VECT_NORM=(0.,0.,1.,),
                                       NOEUD='N963',),
                                    _F(GROUP_MA='IFLUSTR2',
                                       VECT_NORM=(1.,0.,0.,),
                                       NOEUD='N221',),
                                    _F(GROUP_MA='SURFBAS2',
                                       VECT_NORM=(0.,0.,-1.,),
                                       NOEUD='N316',),
                                    _F(GROUP_MA='SLIBREM2',
                                       VECT_NORM=(0.,0.,1.,),
                                       NOEUD='N1043',),),);

modele=AFFE_MODELE(MAILLAGE=mail,
                   AFFE=(_F(GROUP_MA='STRVOU2',
                            PHENOMENE='MECANIQUE',
                            MODELISATION='3D',),
                         _F(GROUP_MA='PBASE',
                            PHENOMENE='MECANIQUE',
                            MODELISATION='DIS_TR',),),);

#

mat1=DEFI_MATERIAU(ELAS=_F(E=3.6E+10,
                           NU=0.2,
                           RHO=2400.,),);

#

champmat=AFFE_MATERIAU(MAILLAGE=mail,
                       AFFE=_F(GROUP_MA='STRVOU2',
                               MATER=mat1,),);

cara_ele=AFFE_CARA_ELEM(MODELE=modele,
                        DISCRET=(_F(REPERE='GLOBAL',
                                    CARA='M_TR_D_N',
                                    GROUP_MA='PBASE',
                                    VALE=(0.,0.,0.,0.,0.,0.,0.,0.,0.,0.,),),
                                 _F(REPERE='GLOBAL',
                                    CARA='K_TR_D_N',
                                    GROUP_MA='PBASE',
                                    VALE=(0.,0.,0.,0.,0.,0.,),),),);

#
#========================================
# ETAPE 1: Calul des impedances de sols
# --------
#========================================
#
#
# La structure est encastree a l interface
#-----------------------------------------

cond_lim=AFFE_CHAR_MECA(MODELE=modele,
                        DDL_IMPO=_F(NOEUD='N316',
                                    DX=0.,
                                    DY=0.,
                                    DZ=0.,
                                    DRX=0.,
                                    DRY=0.,
                                    DRZ=0.,),
                        LIAISON_SOLIDE=_F(GROUP_NO='ISOLSTR',),);

#
#
# Calcul des matrices et vecteurs elementaires
#----------------------------------------------

rigi_ele=CALC_MATR_ELEM(OPTION='RIGI_MECA',
                        MODELE=modele,
                        CHAM_MATER=champmat,
                        CARA_ELEM=cara_ele,
                        CHARGE=cond_lim,);

#

mass_ele=CALC_MATR_ELEM(OPTION='MASS_MECA',
                        MODELE=modele,
                        CHAM_MATER=champmat,
                        CARA_ELEM=cara_ele,
                        CHARGE=cond_lim,);

#

nume_ddl=NUME_DDL(MATR_RIGI=rigi_ele,);

#
# Assemblage des matrices et vecteurs
#-------------------------------------

MATRIGI=ASSE_MATRICE(MATR_ELEM=rigi_ele,
                     NUME_DDL=nume_ddl,);

MATMASS=ASSE_MATRICE(MATR_ELEM=mass_ele,
                     NUME_DDL=nume_ddl,);

#
# Calcul de la masse du barrage voute
#-------------------------------------

mass_bar=POST_ELEM(MASS_INER=_F(TOUT='OUI',),
                   MODELE=modele,
                   CHAM_MATER=champmat,
                   CARA_ELEM=cara_ele,
                   INFO=1,);

#
# calcul des modes
#------------------
#
#

mode_rig=MACRO_MODE_MECA(MATR_RIGI=MATRIGI,
                         MATR_MASS=MATMASS,
                         CALC_FREQ=_F(FREQ=(0.1,10.,20.,30.,40.,),),
                         VERI_MODE=_F(STOP_ERREUR='NON',),
                         FILTRE_MODE=_F(SEUIL=0.0003,),
                         IMPRESSION=_F(),);

#
#Calcul  du macro-element Dynamique
#-----------------------------------

interdy=DEFI_INTERF_DYNA(NUME_DDL=nume_ddl,
                         INTERFACE=_F(NOM='SOLBAR',
                                      TYPE='CRAIGB',
                                      NOEUD='N316',),);

#

bamo=DEFI_BASE_MODALE(CLASSIQUE=_F(INTERF_DYNA=interdy,
                                   MODE_MECA=mode_rig,
                                   NMAX_MODE=999,),);

#

mael=MACR_ELEM_DYNA(BASE_MODALE=bamo,);

TABSOL=DEFI_SOL_MISS(MATERIAU=(_F(E=3.0e11,
                                  NU=0.16,
                                  RHO=2000.,
                                  AMOR_HYST=0.10,),
                               _F(E=3.0e11,
                                  NU=0.16,
                                  RHO=2000.,
                                  AMOR_HYST=0.10,),),
                     COUCHE=(_F(EPAIS=2.5,
                                RECEPTEUR='OUI',
                                NUME_MATE=1,),
                             _F(EPAIS=2.5,
                                RECEPTEUR='OUI',
                                SOURCE='OUI',
                                NUME_MATE=1,),
                             _F(EPAIS=4.0,
                                RECEPTEUR='OUI',
                                NUME_MATE=1,),
                             _F(EPAIS=4.0,
                                RECEPTEUR='OUI',
                                SOURCE='OUI',
                                NUME_MATE=1,),
                             _F(EPAIS=4.0,
                                RECEPTEUR='OUI',
                                NUME_MATE=1,),
                             _F(EPAIS=4.0,
                                RECEPTEUR='OUI',
                                SOURCE='OUI',
                                NUME_MATE=1,),
                             _F(EPAIS=5.0,
                                RECEPTEUR='OUI',
                                NUME_MATE=1,),
                             _F(EPAIS=5.0,
                                RECEPTEUR='OUI',
                                SOURCE='OUI',
                                NUME_MATE=1,),
                             _F(EPAIS=5.0,
                                RECEPTEUR='OUI',
                                NUME_MATE=1,),
                             _F(EPAIS=5.0,
                                RECEPTEUR='OUI',
                                SOURCE='OUI',
                                NUME_MATE=1,),
                             _F(EPAIS=5.5,
                                RECEPTEUR='OUI',
                                NUME_MATE=1,),
                             _F(EPAIS=5.5,
                                RECEPTEUR='OUI',
                                SOURCE='OUI',
                                NUME_MATE=1,),
                             _F(EPAIS=6.0,
                                RECEPTEUR='OUI',
                                NUME_MATE=1,),
                             _F(EPAIS=6.0,
                                RECEPTEUR='OUI',
                                SOURCE='OUI',
                                NUME_MATE=1,),
                             _F(EPAIS=6.5,
                                RECEPTEUR='OUI',
                                NUME_MATE=1,),
                             _F(EPAIS=6.5,
                                RECEPTEUR='OUI',
                                SOURCE='OUI',
                                NUME_MATE=1,),
                             _F(EPAIS=10.,
                                RECEPTEUR='OUI',
                                SOURCE='OUI',
                                NUME_MATE=1,),
                             _F(SUBSTRATUM='OUI',
                                NUME_MATE=2,),),
                     TITRE='SOL HOMOGENE',);

CALC_MISS(TYPE_RESU='FICHIER',
          PROJET='FDLV112B',
          VERSION='V6.6',
          TABLE_SOL=TABSOL,
          MATER_FLUIDE=_F(RHO=1000.,
                          CELE=1500.,
                          AMOR_BETA=0.),
          MACR_ELEM_DYNA=mael,
          GROUP_MA_INTERF='SURFBAS2',
          GROUP_MA_FLU_STR='IFLUSTR2',
          GROUP_MA_FLU_SOL='IFLUSOL2',
          GROUP_MA_SOL_SOL='SLIBREM2',
          UNITE_IMPR_ASTER=26,
          UNITE_RESU_IMPE=25,
          UNITE_RESU_FORC=28,
          PARAMETRE=_F(FREQ_MIN=0.1,
                       FREQ_MAX=3.0,
                       FREQ_PAS=2.9,
                       Z0=5.0,
                       SURF='NON',
                       ISSF='OUI',
                       ALGO='REGU',
                       OFFSET_MAX=1000,
                       OFFSET_NB=5000,),);

nddlgen=NUME_DDL_GENE(BASE=bamo,
                      STOCKAGE='PLEIN',);

rigigen=PROJ_MATR_BASE(BASE=bamo,
                       NUME_DDL_GENE=nddlgen,
                       MATR_ASSE=MATRIGI,);

massgen=PROJ_MATR_BASE(BASE=bamo,
                       NUME_DDL_GENE=nddlgen,
                       MATR_ASSE=MATMASS,);

imp=LIRE_IMPE_MISS(BASE=bamo,
                   NUME_DDL_GENE=nddlgen,
                   FREQ_EXTR=3.,
                   UNITE_RESU_IMPE=25,
                   ISSF='OUI',);

imp0=LIRE_IMPE_MISS(BASE=bamo,
                    NUME_DDL_GENE=nddlgen,
                    FREQ_EXTR=0.1,
                    UNITE_RESU_IMPE=25,
                    ISSF='OUI',);

impe=LIRE_IMPE_MISS(BASE=bamo,
                    NUME_DDL_GENE=nddlgen,
                    FREQ_EXTR=3.,
                    UNITE_RESU_IMPE=25,
                    ISSF='OUI',
                    SYME='OUI',);

impe0=LIRE_IMPE_MISS(BASE=bamo,
                     NUME_DDL_GENE=nddlgen,
                     FREQ_EXTR=0.1,
                     UNITE_RESU_IMPE=25,
                     ISSF='OUI',
                     SYME='OUI',);

forc=LIRE_FORC_MISS(BASE=bamo,
                    NUME_DDL_GENE=nddlgen,
                    FREQ_EXTR=3.,
                    NOM_CMP='DX',
                    NOM_CHAM='ACCE',
                    ISSF='OUI',
                    UNITE_RESU_FORC=28,);

forc0=LIRE_FORC_MISS(BASE=bamo,
                     NUME_DDL_GENE=nddlgen,
                     FREQ_EXTR=0.1,
                     NOM_CMP='DX',
                     NOM_CHAM='ACCE',
                     ISSF='OUI',
                     UNITE_RESU_FORC=28,);

rito=COMB_MATR_ASSE(COMB_R=(_F(PARTIE='REEL',
                               MATR_ASSE=impe0,
                               COEF_R=1.0,),
                            _F(MATR_ASSE=rigigen,
                               COEF_R=1.0,),),
                    SANS_CMP='LAGR',);

mato=COMB_MATR_ASSE(COMB_R=(_F(PARTIE='REEL',
                               MATR_ASSE=impe0,
                               COEF_R=2.814e-3,),
                            _F(PARTIE='REEL',
                               MATR_ASSE=impe,
                               COEF_R=-2.814e-3,),
                            _F(MATR_ASSE=massgen,
                               COEF_R=1.0,),),
                    SANS_CMP='LAGR',);

amto=COMB_MATR_ASSE(COMB_R=(_F(PARTIE='IMAG',
                               MATR_ASSE=impe,
                               COEF_R=5.30e-2,),
                            _F(PARTIE='IMAG',
                               MATR_ASSE=impe0,
                               COEF_R=-5.30e-2,),),
                    SANS_CMP='LAGR',);

modgen=MODE_ITER_SIMULT(MATR_RIGI=rito,
                        MATR_MASS=mato,
                        CALC_FREQ=_F(OPTION='BANDE',
                                     FREQ=(1.,20.,),),
                        VERI_MODE=_F(STOP_ERREUR='NON',),);
##


MODEF=REST_GENE_PHYS(RESU_GENE=modgen,
                     TOUT_ORDRE='OUI',
                     NOM_CHAM='DEPL',);

TEST_RESU(RESU=(_F(RESULTAT=MODEF,
                   NUME_ORDRE=1,
                   PARA='FREQ',
                   CRITERE='RELATIF',
                   VALE_CALC=3.58165193504,),
                _F(RESULTAT=MODEF,
                   NUME_ORDRE=2,
                   PARA='FREQ',
                   CRITERE='RELATIF',
                   VALE_CALC=3.64911997809,),
                _F(RESULTAT=MODEF,
                   NUME_ORDRE=3,
                   PARA='FREQ',
                   CRITERE='RELATIF',
                   VALE_CALC=4.9566445617,),
                _F(RESULTAT=MODEF,
                   NUME_ORDRE=4,
                   PARA='FREQ',
                   CRITERE='RELATIF',
                   VALE_CALC=6.24930188781,),
                _F(RESULTAT=MODEF,
                   NUME_ORDRE=5,
                   PARA='FREQ',
                   CRITERE='RELATIF',
                   VALE_CALC=7.45692990834,),),);

imto=COMB_MATR_ASSE(COMB_C=(_F(MATR_ASSE=imp,
                               COEF_C=(1+0j),),
                            _F(MATR_ASSE=rigigen,
                               COEF_C=(1+0.1j),),),
                    SANS_CMP='LAGR',);

imto0=COMB_MATR_ASSE(COMB_C=(_F(MATR_ASSE=imp0,
                                COEF_C=(1+0j),),
                             _F(MATR_ASSE=rigigen,
                                COEF_C=(1+0.1j),),),
                     SANS_CMP='LAGR',);

dyge=DYNA_VIBRA(BASE_CALCUL='GENE',
                TYPE_CALCUL='HARM',
                MATR_MASS=massgen,
                MATR_RIGI=imto,
                FREQ=3.,
                EXCIT=_F(VECT_ASSE_GENE=forc,
                         COEF_MULT=1.0,),
                SOLVEUR=_F(METHODE='LDLT',),);

dyge0=DYNA_VIBRA(BASE_CALCUL='GENE',
                 TYPE_CALCUL='HARM',
                 MATR_MASS=massgen,
                 MATR_RIGI=imto0,
                 FREQ=0.1,
                 EXCIT=_F(VECT_ASSE_GENE=forc0,
                          COEF_MULT=1.0,),
                 SOLVEUR=_F(METHODE='LDLT',),);

dyha=REST_GENE_PHYS(RESU_GENE=dyge,
                    NOM_CHAM=('DEPL','VITE','ACCE',),);

dyha0=REST_GENE_PHYS(RESU_GENE=dyge0,
                     NOM_CHAM=('DEPL','VITE','ACCE',),);

dx253=RECU_FONCTION(RESULTAT=dyha,
                    NOM_CHAM='ACCE',
                    NOM_CMP='DX',
                    NOEUD='N253',);

dx253_0=RECU_FONCTION(RESULTAT=dyha0,
                      NOM_CHAM='ACCE',
                      NOM_CMP='DX',
                      NOEUD='N253',);

mdx253=CALC_FONCTION(EXTRACTION=_F(FONCTION=dx253,
                                   PARTIE='MODULE',),);

mdx253_0=CALC_FONCTION(EXTRACTION=_F(FONCTION=dx253_0,
                                     PARTIE='MODULE',),);

# VALEURS DE NON REGRESSION CORRIGEES SUITE A LA FICHE 16690

TEST_FONCTION(VALEUR=(_F(FONCTION=mdx253,
                         VALE_PARA=3.0,
                         VALE_CALC=5.688324,),
                      _F(FONCTION=mdx253_0,
                         VALE_PARA=0.1,
                         TOLE_MACHINE=0.0001,
                         VALE_CALC=1.001351,),),);

FIN();
#CHECKSUM:e58c588108ac5cafa08b970c60460011  -:FIN CHECKSUM
