# TITRE CALCUL DE COEFFICIENTS AJOUTES A MASSE VOLUMIQUE VARIABLE
# ======================================================================
# COPYRIGHT (C) 1991 - 2013  EDF R&D                  WWW.CODE-ASTER.ORG
# THIS PROGRAM IS FREE SOFTWARE; YOU CAN REDISTRIBUTE IT AND/OR MODIFY
# IT UNDER THE TERMS OF THE GNU GENERAL PUBLIC LICENSE AS PUBLISHED BY
# THE FREE SOFTWARE FOUNDATION; EITHER VERSION 2 OF THE LICENSE, OR
# (AT YOUR OPTION) ANY LATER VERSION.
#
# THIS PROGRAM IS DISTRIBUTED IN THE HOPE THAT IT WILL BE USEFUL, BUT
# WITHOUT ANY WARRANTY; WITHOUT EVEN THE IMPLIED WARRANTY OF
# MERCHANTABILITY OR FITNESS FOR A PARTICULAR PURPOSE. SEE THE GNU
# GENERAL PUBLIC LICENSE FOR MORE DETAILS.
#
# YOU SHOULD HAVE RECEIVED A COPY OF THE GNU GENERAL PUBLIC LICENSE
# ALONG WITH THIS PROGRAM; IF NOT, WRITE TO EDF R&D CODE_ASTER,
#    1 AVENUE DU GENERAL DE GAULLE, 92141 CLAMART CEDEX, FRANCE.
# ======================================================================
#      CALCUL DE DIVERS COEFF AJOUTES EN ECOULEMENT
#                POUR DES DOMAINES FLUIDES A RHO DIFFERENTS
#                   (IE A TEMPERATURES DIFFERENTES)
#                      CALCUL 3D
#                CALCUL MODAL EN EAU

DEBUT(CODE=_F(NIV_PUB_WEB='INTERNET'),DEBUG=_F(SDVERI='OUI'),
      IGNORE_ALARM=('CALCULEL2_63','CALCULEL2_64'))

# <CALCULEL2_63> : DANS UN MODELE, IL EXISTE DES ELEMENTS DE TYPE "BORD" QUI N'ONT PAS DE VOISIN AVEC RIGIDITE
# <CALCULEL2_64> : DANS UN MODELE, IL N'Y A AUCUN ELEMENT AVEC AVEC RIGIDITE
#  LE MODELE PROVOQUANT CES ALARMES EST UN MODELE D'INTERFACE

PRE_IDEAS();

MAYA=LIRE_MAILLAGE();
# CARACTERISTIQUES DE LA STRUCTURE: CYLINDRES CONCENTRIQUES
# SEPARES PAR UN FLUIDE ANNULAIRE

ACIER=DEFI_MATERIAU(ELAS=_F(E=200000000000.0,
                            NU=0.3,
                            RHO=7800.0,),);

DOMSTRUC=AFFE_MATERIAU(MAILLAGE=MAYA,
                       AFFE=_F(GROUP_MA='INTERFAC',
                               MATER=ACIER,),);

STRUCTUR=AFFE_MODELE(MAILLAGE=MAYA,
                     AFFE=_F(GROUP_MA='INTERFAC',
                             PHENOMENE='MECANIQUE',
                             MODELISATION='DKT',),);

CARA=AFFE_CARA_ELEM(MODELE=STRUCTUR,
                    COQUE=_F(GROUP_MA='INTERFAC',
                             EPAIS=0.001,),);

CHARGS=AFFE_CHAR_MECA(MODELE=STRUCTUR,
                      DDL_IMPO=(_F(GROUP_NO='NOEXT',
                                   DY=0.0,
                                   DZ=0.0,
                                   DRX=0.0,
                                   DRY=0.0,
                                   DRZ=0.0,),
                                _F(GROUP_NO='NOINT',
                                   DX=0.0,
                                   DY=0.0,
                                   DZ=0.0,
                                   DRX=0.0,
                                   DRY=0.0,
                                   DRZ=0.0,),),);

MEL_KSTR=CALC_MATR_ELEM(OPTION='RIGI_MECA',
                        MODELE=STRUCTUR,
                        CHAM_MATER=DOMSTRUC,
                        CARA_ELEM=CARA,
                        CHARGE=CHARGS,);

MEL_MSTR=CALC_MATR_ELEM(OPTION='MASS_MECA',
                        MODELE=STRUCTUR,
                        CHAM_MATER=DOMSTRUC,
                        CARA_ELEM=CARA,
                        CHARGE=CHARGS,);

NUSTR=NUME_DDL(MATR_RIGI=MEL_KSTR,);

MATASKS=ASSE_MATRICE(MATR_ELEM=MEL_KSTR,
                     NUME_DDL=NUSTR,);

MATASMS=ASSE_MATRICE(MATR_ELEM=MEL_MSTR,
                     NUME_DDL=NUSTR,);
#CALCUL DES MODES MECANIQUES

MODES=MODE_ITER_SIMULT(MATR_RIGI=MATASKS,
                       MATR_MASS=MATASMS,
                       CALC_FREQ=_F(OPTION='BANDE',
                                    FREQ=(20.0,30.0,),),);

TEST_RESU(RESU=_F(NUME_ORDRE=1,
                  PARA='FREQ',
                  REFERENCE='ANALYTIQUE',
                  RESULTAT=MODES,
                  VALE_CALC=22.538990675,
                  VALE_REFE=22.539999999999999,
                  CRITERE='RELATIF',
                  PRECISION=0.029999999999999999,),
          )

# AFFECTATION DU DEPLACEMENT AU CYLINDRE EXTERNE
# ROTATION AUTOUR D UN PIVOT EN AVAL DE L ECOULEMENT

CHAMNO=CREA_CHAMP(TYPE_CHAM='NOEU_DEPL_R',
                  NUME_DDL=NUSTR,
                  OPERATION='AFFE', PROL_ZERO='OUI',
                  MAILLAGE=MAYA,
                  AFFE=(
                  _F(GROUP_NO='GRNO5',
                     NOM_CMP=('DX','DY','DZ',),
                     VALE=(0.0,0.0,0.0,),),
                  _F(GROUP_NO='GRNO4',
                     NOM_CMP=('DX','DY','DZ',),
                     VALE=(12.5,0.0,0.0,),),
                  _F(GROUP_NO='GRNO3',
                     NOM_CMP=('DX','DY','DZ',),
                     VALE=(25.0,0.0,0.0,),),
                  _F(GROUP_NO='GRNO2',
                     NOM_CMP=('DX','DY','DZ',),
                     VALE=(37.5,0.0,0.0,),),
                  _F(GROUP_NO='GRNO1',
                     NOM_CMP=('DX','DY','DZ',),
                     VALE=(50.0,0.0,0.0,),),),);

MACRO_MATR_AJOU(MAILLAGE=MAYA,
                GROUP_MA_FLUIDE='FLUIDE',
                GROUP_MA_INTERF='INTERFAC',
                MODELISATION='3D',
                FLUIDE=(_F(RHO=1000.0,
                           GROUP_MA='FLUID1',),
                        _F(RHO=750.0,
                           GROUP_MA='FLUID2',),),
                DDL_IMPO=(_F(GROUP_NO='TEMPIMPO',
                             PRES_FLUIDE=0.0,),
                          _F(GROUP_NO='NOSORT',
                             PRES_SORTIE=0.0,),),
                ECOULEMENT=_F(GROUP_MA_1='ENTREE',
                              GROUP_MA_2='SORTIE',
                              VNOR_1=-4.0,
                              VNOR_2=5.33,),
                DEPL_IMPO=CHAMNO,
                MATR_MASS_AJOU=CO('MASSAJ'),
                MATR_RIGI_AJOU=CO('RIGIAJ'),
                MATR_AMOR_AJOU=CO('AMORAJ'),
                INFO=2,);

TEST_RESU(OBJET=_F(VALE_CALC=1.6082276230835E+09,
                   NOM='MASSAJ             .VALM',),
          )

TEST_RESU(OBJET=_F(VALE_CALC=-3.935551356804E+08,
                   NOM='AMORAJ             .VALM',),
          )

TEST_RESU(OBJET=_F(VALE_CALC=3.4963008885108E+06,
                   NOM='RIGIAJ             .VALM',),
          )

FIN();
