# MODIF  DATE 10/10/2012   AUTEUR COURTOIS M.COURTOIS 
# TITRE ABSORPTION D'UNE ONDE DE PRESSION DANS UNE COLONNE FLUIDE
# fdlv111a.para = tps_job 300 mem_job 512Mo ncpus 1 liste_test S
#            CONFIGURATION MANAGEMENT OF EDF VERSION
# ======================================================================
# COPYRIGHT (C) 1991 - 2012  EDF R&D                  WWW.CODE-ASTER.ORG
# THIS PROGRAM IS FREE SOFTWARE; YOU CAN REDISTRIBUTE IT AND/OR MODIFY
# IT UNDER THE TERMS OF THE GNU GENERAL PUBLIC LICENSE AS PUBLISHED BY
# THE FREE SOFTWARE FOUNDATION; EITHER VERSION 2 OF THE LICENSE, OR
# (AT YOUR OPTION) ANY LATER VERSION.
#
# THIS PROGRAM IS DISTRIBUTED IN THE HOPE THAT IT WILL BE USEFUL, BUT
# WITHOUT ANY WARRANTY; WITHOUT EVEN THE IMPLIED WARRANTY OF
# MERCHANTABILITY OR FITNESS FOR A PARTICULAR PURPOSE. SEE THE GNU
# GENERAL PUBLIC LICENSE FOR MORE DETAILS.
#
# YOU SHOULD HAVE RECEIVED A COPY OF THE GNU GENERAL PUBLIC LICENSE
# ALONG WITH THIS PROGRAM; IF NOT, WRITE TO EDF R&D CODE_ASTER,
#    1 AVENUE DU GENERAL DE GAULLE, 92141 CLAMART CEDEX, FRANCE.
# ======================================================================
# CAS_TEST__: FDLV111A
#
# PROPAGATION D'UNE ONDE DE COMPRESSION DANS UNE COLONNE FLUIDE
# INFINIE - ABSORPTION DE L'ONDE A LA FRONTIERE DU MAILLAGE
# ELEMENTS FINIS
# CAS 3D
#=======================================================================

DEBUT(CODE=_F(NOM='FDLV111A',NIV_PUB_WEB='INTERNET'),DEBUG=_F(SDVERI='NON'))
# SDVERI='NON' car la verification est trop couteuse en CPU

MAIL=LIRE_MAILLAGE(FORMAT='MED', )

MAIL=DEFI_GROUP( reuse=MAIL,   MAILLAGE=MAIL,
                       CREA_GROUP_NO=_F(  GROUP_MA = 'IFLUSOL')
                     )

MAIL=DEFI_GROUP( reuse=MAIL,   MAILLAGE=MAIL,
                       CREA_GROUP_NO=_F(  GROUP_MA = 'IPRES')
                     )

MAIL=DEFI_GROUP( reuse=MAIL,   MAILLAGE=MAIL,
                       CREA_GROUP_NO=_F(  GROUP_MA = 'STRU')
                     )

EAU=DEFI_MATERIAU( FLUIDE=_F( RHO = 1000.,  CELE_R = 1500.))

MAT1=DEFI_MATERIAU( ELAS=_F(  E = 3.6E+10, RHO = 2400.,  NU = 0.2)
                    )

MODELE=AFFE_MODELE(    MAILLAGE=MAIL,AFFE=(
                         _F(  GROUP_MA = 'FLUIDE',
                                PHENOMENE = 'MECANIQUE',
                                MODELISATION = '3D_FLUIDE'),
                         _F(  GROUP_MA = 'IFLUSOL',
                                PHENOMENE = 'MECANIQUE',
                                MODELISATION = 'FLUI_STRU'),
                         _F(  GROUP_MA = 'FOND',
                                PHENOMENE = 'MECANIQUE',
                                MODELISATION = '3D_FLUI_ABSO'),
                         _F(  GROUP_MA = 'IPRES',
                                PHENOMENE = 'MECANIQUE',
                                MODELISATION = 'FLUI_STRU'),
                         _F(  GROUP_MA = 'STRU',
                                 PHENOMENE = 'MECANIQUE',
                                 MODELISATION = '3D'))
                        )

CHAMPMAT=AFFE_MATERIAU(    MAILLAGE=MAIL,AFFE=(
                   _F(  GROUP_MA = ( 'FLUIDE', 'IFLUSOL',
                                       'FOND', 'IPRES', ),
                          MATER = EAU),
                   _F(  GROUP_MA = 'STRU',
                          MATER = MAT1))
                           )

COND_LIM=AFFE_CHAR_MECA(    MODELE=MODELE,DDL_IMPO=(
                   _F(  GROUP_NO = 'IFLUSOL',
                               DX = 0., DY = 0., DZ = 0.),
                   _F(  GROUP_NO = 'IPRES',
                              DX = 1.E-3))
                             )

RIGI_ELE=CALC_MATR_ELEM(    MODELE=MODELE,
                              OPTION='RIGI_MECA',
                              CHAM_MATER=CHAMPMAT,
                              CHARGE=COND_LIM
                            )

MASS_ELE=CALC_MATR_ELEM(    MODELE=MODELE,
                              OPTION='MASS_MECA',
                              CHAM_MATER=CHAMPMAT,
                              CHARGE=COND_LIM
                            )

VECTELEM=CALC_VECT_ELEM(    OPTION='CHAR_MECA',
                              CHAM_MATER=CHAMPMAT,
                              CHARGE=COND_LIM
                            )

NUMEDDL=NUME_DDL(    MATR_RIGI=RIGI_ELE )

RIGIDITE=ASSE_MATRICE(    MATR_ELEM=RIGI_ELE,
                            NUME_DDL=NUMEDDL
                          )

MASSE=ASSE_MATRICE(    MATR_ELEM=MASS_ELE,
                         NUME_DDL=NUMEDDL
                       )

VECTASS=ASSE_VECTEUR(    VECT_ELEM=VECTELEM,
                           NUME_DDL=NUMEDDL
                         )

# --- LECTURE DE LA FONCTION D'EXCITATION ---
INCLUDE(   UNITE=11,   INFO=1 )

TEMPLI=DEFI_LIST_REEL(DEBUT=0., INTERVALLE=_F( JUSQU_A = 2.5, NOMBRE = 2000))

#INTLI=DEFI_LIST_ENTI( DEBUT=1, INTERVALLE=_F( JUSQU_A = 2001, PAS = 1))

DYN=DYNA_VIBRA(TYPE_CALCUL='TRAN',BASE_CALCUL='PHYS',
                          MATR_MASS=MASSE,   MATR_RIGI=RIGIDITE,
                          ENERGIE=_F(),
                          EXCIT=_F(  VECT_ASSE = VECTASS,
                                  FONC_MULT = FONC),
####CDURAND###                         ETAT_INIT=_F(  INST_INIT = 0.),
                         INCREMENT=_F( LIST_INST = TEMPLI),
#                        ARCHIVAGE=_F(  LIST_ARCH = INTLI),
                         SCHEMA_TEMPS=_F(SCHEMA='NEWMARK',),
                        )

# --- TEST SUR LES ENERGIES ---------------------------------------------------
#     LA PRECISION RELATIVE EST DIMINUEE POUR LES TEST A T = 1.2 PAR RAPPORT
#     AUX TESTS A T = 0.6 CAR LA MULTITUDE DE PAS DE TEMPS ENTRAINE DES ECARTS.
#     LA DISSIPATION DU SCHEMA EST TESTEE EN ABSOLU.

ENER1=RECU_TABLE(CO=DYN,NOM_TABLE='PARA_CALC',);

IMPR_TABLE(TABLE=ENER1);

PRECREL1 = 1.E-7 
PRECREL2 = 2.E-5
PRECABS1 = 3.E-3
PRECABS2 = 3.5E-1 

TEST_TABLE(
           VALE_CALC=1.6174217088701E4,
           TOLE_MACHINE=9.9999999999999995E-08,
           NOM_PARA='TRAV_EXT',
           TABLE=ENER1,
           FILTRE=_F(NOM_PARA='INST',
                     VALE=0.59999999999999998,),
           )

TEST_TABLE(
           VALE_CALC=8708.2334180757007,
           TOLE_MACHINE=9.9999999999999995E-08,
           NOM_PARA='ENER_CIN',
           TABLE=ENER1,
           FILTRE=_F(NOM_PARA='INST',
                     VALE=0.59999999999999998,),
           )

TEST_TABLE(
           VALE_CALC=1643.1998931989999,
           TOLE_MACHINE=1.9999999999999999E-07,
           NOM_PARA='ENER_TOT',
           TABLE=ENER1,
           FILTRE=_F(NOM_PARA='INST',
                     VALE=0.59999999999999998,),
           )

TEST_TABLE(
           VALE_CALC=0.0,
           TOLE_MACHINE=9.9999999999999995E-08,
           NOM_PARA='TRAV_AMOR',
           TABLE=ENER1,
           FILTRE=_F(NOM_PARA='INST',
                     VALE=0.59999999999999998,),
           )

TEST_TABLE(
           VALE_CALC=5822.7834393976,
           TOLE_MACHINE=9.9999999999999995E-08,
           NOM_PARA='TRAV_LIAI',
           TABLE=ENER1,
           FILTRE=_F(NOM_PARA='INST',
                     VALE=0.59999999999999998,),
           )

TEST_TABLE(CRITERE='ABSOLU',
           REFERENCE='NON_DEFINI',
           TOLE_MACHINE=1.e-3,
           PRECISION=3.0000000000000001E-3,
           VALE_CALC=3.38028377E-04,
           VALE_REFE=3.3802828030925002E-4,
           NOM_PARA='DISS_SCH',
           TABLE=ENER1,
           FILTRE=_F(NOM_PARA='INST',
                     VALE=0.59999999999999998,),
           )

TEST_TABLE(
           VALE_CALC=2.5960433417724998E4,
           TOLE_MACHINE=2.0000000000000002E-05,
           NOM_PARA='TRAV_EXT',
           TABLE=ENER1,
           FILTRE=_F(NOM_PARA='INST',
                     VALE=1.2,),
           )

TEST_TABLE(
           VALE_CALC=2.1890298685734999,
           TOLE_MACHINE=2.0000000000000002E-05,
           NOM_PARA='ENER_CIN',
           TABLE=ENER1,
           FILTRE=_F(NOM_PARA='INST',
                     VALE=1.2,),
           )

TEST_TABLE(
           VALE_CALC=0.13511580972602,
           TOLE_MACHINE=2.0000000000000002E-05,
           NOM_PARA='ENER_TOT',
           TABLE=ENER1,
           FILTRE=_F(NOM_PARA='INST',
                     VALE=1.2,),
           )

TEST_TABLE(
           VALE_CALC=0.0,
           TOLE_MACHINE=2.0000000000000002E-05,
           NOM_PARA='TRAV_AMOR',
           TABLE=ENER1,
           FILTRE=_F(NOM_PARA='INST',
                     VALE=1.2,),
           )

TEST_TABLE(
           VALE_CALC=2.5958109544434999E4,
           TOLE_MACHINE=2.0000000000000002E-05,
           NOM_PARA='TRAV_LIAI',
           TABLE=ENER1,
           FILTRE=_F(NOM_PARA='INST',
                     VALE=1.2,),
           )

TEST_TABLE(CRITERE='ABSOLU',
           REFERENCE='NON_DEFINI',
           TOLE_MACHINE=1.e-3,
           PRECISION=3.0000000000000001E-3,
           VALE_CALC=-2.72388701E-04,
           VALE_REFE=-2.7238871660871999E-4,
           NOM_PARA='DISS_SCH',
           TABLE=ENER1,
           FILTRE=_F(NOM_PARA='INST',
                     VALE=1.2,),
           )

# TESTS DE NON REGRESSION SUPPLEMENTAIRES 

TEST_RESU(RESU=_F(NUME_ORDRE=960,
                  RESULTAT=DYN,
                  NOM_CHAM='VITE',
                  NOEUD='N46',
                  NOM_CMP='DY',
                  VALE_CALC=-1.4148495367254001E-05,
                  TOLE_MACHINE=9.9999999999999995E-08,
                  ),
          )

DYN = CALC_CHAMP (reuse = DYN,
  RESULTAT = DYN,
  FORCE='FORC_NODA'
   )

TRAVAIL = POST_ELEM(
  RESULTAT = DYN,
  TRAV_EXT = _F()
  )

TEST_TABLE(
           VALE_CALC=0.13511580957683,
           TOLE_MACHINE=2.0000000000000002E-05,
           NOM_PARA='TRAV_REEL',
           TABLE=TRAVAIL,
           FILTRE=_F(NOM_PARA='INST',
                     VALE=1.2,),
           )

# --- FIN TEST SUR LES ENERGIES -----------------------------------------------

PN16=RECU_FONCTION(    LIST_INST=TEMPLI,   PRECISION=1.E-4,
                        RESULTAT=DYN,   NOEUD='N16',
                        NOM_CHAM='DEPL',
                        NOM_CMP='PRES'
                      )

PN18=RECU_FONCTION(    LIST_INST=TEMPLI,   PRECISION=1.E-4,
                        RESULTAT=DYN,   NOEUD='N18',
                        NOM_CHAM='DEPL',
                        NOM_CMP='PRES'
                      )

PN47=RECU_FONCTION(    LIST_INST=TEMPLI,   PRECISION=1.E-4,
                        RESULTAT=DYN,   NOEUD='N47',
                        NOM_CHAM='DEPL',
                        NOM_CMP='PRES'
                      )

TEST_FONCTION(VALEUR=(_F(VALE_CALC=7137.3699999999999,
                         TOLE_MACHINE=1.E-3,
                         CRITERE='RELATIF',
                         VALE_PARA=0.47125,
                         FONCTION=PN16,
                         ),
                      _F(VALE_CALC=-7083.0500000000002,
                         TOLE_MACHINE=1.E-3,
                         CRITERE='RELATIF',
                         VALE_PARA=0.72750000000000004,
                         FONCTION=PN16,
                         ),
                      _F(VALE_CALC=0.182417154312,
                         VALE_REFE=0.0,
                         CRITERE='ABSOLU',
                         VALE_PARA=1.2737499999999999,
                         REFERENCE='ANALYTIQUE',
                         TOLE_MACHINE=1.e-1,
                         PRECISION=1.0,
                         FONCTION=PN16,),
                      ),
              )

TEST_FONCTION(VALEUR=(_F(VALE_CALC=7137.3699999999999,
                         TOLE_MACHINE=1.E-3,
                         CRITERE='RELATIF',
                         VALE_PARA=0.47125,
                         FONCTION=PN18,
                         ),
                      _F(VALE_CALC=7093.21,
                         TOLE_MACHINE=1.E-3,
                         CRITERE='RELATIF',
                         VALE_PARA=0.3725,
                         FONCTION=PN47,
                         ),
                      ),
              )

TEMLI=DEFI_LIST_REEL(DEBUT=0., INTERVALLE=_F( JUSQU_A = 1.2, NOMBRE = 400))

TEMLI2=DEFI_LIST_REEL(DEBUT=0.003,
        INTERVALLE=_F( JUSQU_A = 1.2, NOMBRE = 399))

INLI=DEFI_LIST_ENTI( DEBUT=1, INTERVALLE=_F( JUSQU_A = 401, PAS = 1))



ACCE0 = CREA_CHAMP(TYPE_CHAM='NOEU_DEPL_R',OPERATION='AFFE',MODELE=MODELE,
                   AFFE=_F(TOUT='OUI',NOM_CMP=('DX', 'DY', 'DZ',),VALE = (0., 0., 0.,),),);

DYNA=DYNA_NON_LINE(     MODELE=MODELE,   CHAM_MATER=CHAMPMAT,
                          EXCIT=_F(  CHARGE = COND_LIM,
                                  FONC_MULT = FONC),
                     #    ETAT_INIT=_F(  INST_INIT = 0.),
#  On impose explicitement une acceleration initiale nulle car la matrice de masse etant singuliere
#  a cause du modele (u,p,phi), on ne peut calculer une acceleration non nulle :
                        ETAT_INIT=_F(  ACCE = ACCE0,),
                        ENERGIE=_F(),
                        CONVERGENCE=_F( RESI_GLOB_RELA = 1.E-9),
                          COMP_INCR=_F( RELATION = 'ELAS',
                                  TOUT = 'OUI'),
#                         SOLVEUR=_F( STOP_SINGULIER = 'NON'),
                         NEWTON=_F(  MATRICE = 'ELASTIQUE',
                                 REAC_INCR = 0,
                                 REAC_ITER = 0),
                         INCREMENT=_F( LIST_INST = TEMLI),
###CDURAND###            ARCHIVAGE=_F(  LIST_ARCH = INLI),
                         SCHEMA_TEMPS=_F(SCHEMA='NEWMARK',
                                FORMULATION='DEPLACEMENT',),
                        )

# --- TEST SUR LES ENERGIES ---------------------------------------------------
#     LA PRECISION RELATIVE EST DIMINUEE POUR LES TEST A T = 1.2 PAR RAPPORT
#     AUX TESTS A T = 0.6 CAR LA MULTITUDE DE PAS DE TEMPS ENTRAINE DES ECARTS.
#     LA DISSIPATION DU SCHEMA EST TESTEE EN ABSOLU.

ENER=RECU_TABLE(CO=DYNA,NOM_TABLE='PARA_CALC',);

IMPR_TABLE(TABLE=ENER);

TEST_TABLE(
           VALE_CALC=1.6182454098009999E4,
           TOLE_MACHINE=9.9999999999999995E-08,
           NOM_PARA='TRAV_EXT',
           TABLE=ENER,
           FILTRE=_F(NOM_PARA='INST',
                     VALE=0.59999999999999998,),
           )

TEST_TABLE(
           VALE_CALC=8544.6318426999005,
           TOLE_MACHINE=9.9999999999999995E-08,
           NOM_PARA='ENER_CIN',
           TABLE=ENER,
           FILTRE=_F(NOM_PARA='INST',
                     VALE=0.59999999999999998,),
           )

TEST_TABLE(
           VALE_CALC=1659.4161904773,
           TOLE_MACHINE=9.9999999999999995E-08,
           NOM_PARA='ENER_TOT',
           TABLE=ENER,
           FILTRE=_F(NOM_PARA='INST',
                     VALE=0.59999999999999998,),
           )

TEST_TABLE(
           VALE_CALC=0.0,
           TOLE_MACHINE=9.9999999999999995E-08,
           NOM_PARA='TRAV_AMOR',
           TABLE=ENER,
           FILTRE=_F(NOM_PARA='INST',
                     VALE=0.59999999999999998,),
           )

TEST_TABLE(
           VALE_CALC=5978.7388102876002,
           TOLE_MACHINE=9.9999999999999995E-08,
           NOM_PARA='TRAV_LIAI',
           TABLE=ENER,
           FILTRE=_F(NOM_PARA='INST',
                     VALE=0.59999999999999998,),
           )

TEST_TABLE(CRITERE='ABSOLU',
           REFERENCE='NON_DEFINI',
           PRECISION=0.34999999999999998,
           VALE_CALC=-0.332745455,
           VALE_REFE=-0.33274545480380002,
           NOM_PARA='DISS_SCH',
           TABLE=ENER,
           FILTRE=_F(NOM_PARA='INST',
                     VALE=0.59999999999999998,),
           )

TEST_TABLE(
           VALE_CALC=2.58780513871E4,
           TOLE_MACHINE=2.0000000000000002E-05,
           NOM_PARA='TRAV_EXT',
           TABLE=ENER,
           FILTRE=_F(NOM_PARA='INST',
                     VALE=1.2,),
           )

TEST_TABLE(
           VALE_CALC=0.40519354754296,
           TOLE_MACHINE=2.0000000000000002E-05,
           NOM_PARA='ENER_CIN',
           TABLE=ENER,
           FILTRE=_F(NOM_PARA='INST',
                     VALE=1.2,),
           )

TEST_TABLE(
           VALE_CALC=0.031421263947149003,
           TOLE_MACHINE=2.0000000000000002E-05,
           NOM_PARA='ENER_TOT',
           TABLE=ENER,
           FILTRE=_F(NOM_PARA='INST',
                     VALE=1.2,),
           )

TEST_TABLE(
           VALE_CALC=0.0,
           TOLE_MACHINE=2.0000000000000002E-05,
           NOM_PARA='TRAV_AMOR',
           TABLE=ENER,
           FILTRE=_F(NOM_PARA='INST',
                     VALE=1.2,),
           )

TEST_TABLE(
           VALE_CALC=2.5877467642006999E4,
           TOLE_MACHINE=2.0000000000000002E-05,
           NOM_PARA='TRAV_LIAI',
           TABLE=ENER,
           FILTRE=_F(NOM_PARA='INST',
                     VALE=1.2,),
           )

TEST_TABLE(CRITERE='ABSOLU',
           REFERENCE='NON_DEFINI',
           PRECISION=0.34999999999999998,
           VALE_CALC=0.147130282,
           VALE_REFE=0.14713028172852999,
           NOM_PARA='DISS_SCH',
           TABLE=ENER,
           FILTRE=_F(NOM_PARA='INST',
                     VALE=1.2,),
           )

# --- FIN TEST SUR LES ENERGIES -----------------------------------------------

PNA16=RECU_FONCTION(    LIST_INST=TEMLI2,   PRECISION=1.E-4,
                        RESULTAT=DYNA,   NOEUD='N16',
                        NOM_CHAM='DEPL',
                        NOM_CMP='PRES'
                      )

PNA18=RECU_FONCTION(    LIST_INST=TEMLI2,   PRECISION=1.E-4,
                        RESULTAT=DYNA,   NOEUD='N18',
                        NOM_CHAM='DEPL',
                        NOM_CMP='PRES'
                      )

PNA47=RECU_FONCTION(    LIST_INST=TEMLI2,   PRECISION=1.E-4,
                        RESULTAT=DYNA,   NOEUD='N47',
                        NOM_CHAM='DEPL',
                        NOM_CMP='PRES'
                      )

TEST_FONCTION(VALEUR=(_F(VALE_CALC=7108.75020871,
                         VALE_REFE=7114.7299999999996,
                         REFERENCE='NON_DEFINI',
                         CRITERE='RELATIF',
                         VALE_PARA=0.47099999999999997,
                         PRECISION=8.9999999999999993E-3,
                         FONCTION=PNA16,),
                      _F(VALE_CALC=-7049.03637707,
                         VALE_REFE=-7000.2200000000003,
                         REFERENCE='NON_DEFINI',
                         CRITERE='RELATIF',
                         VALE_PARA=0.72599999999999998,
                         PRECISION=0.02,
                         FONCTION=PNA16,),
                      _F(VALE_CALC=-6.41877447595,
                         VALE_REFE=0.0,
                         REFERENCE='NON_DEFINI',
                         CRITERE='ABSOLU',
                         VALE_PARA=1.2,
                         PRECISION=50.0,
                         FONCTION=PNA16,),
                      ),
              )

TEST_FONCTION(VALEUR=(_F(VALE_CALC=7108.75020871,
                         VALE_REFE=7114.7299999999996,
                         REFERENCE='NON_DEFINI',
                         CRITERE='RELATIF',
                         VALE_PARA=0.47099999999999997,
                         PRECISION=8.9999999999999993E-3,
                         FONCTION=PNA18,),
                      _F(VALE_CALC=7081.74638851,
                         VALE_REFE=7081.1000000000004,
                         REFERENCE='NON_DEFINI',
                         CRITERE='RELATIF',
                         VALE_PARA=0.372,
                         PRECISION=3.0000000000000001E-3,
                         FONCTION=PNA47,),
                      ),
              )

FIN()
#
#
#
#
#
#
