# MODIF  DATE 21/10/2008   AUTEUR NISTOR I.NISTOR 
# TITRE CALCUL DE BARRAGE AVEC RETENUE SOUS SOLLICITATION SISMIQUE
#            CONFIGURATION MANAGEMENT OF EDF VERSION
# ======================================================================
# COPYRIGHT (C) 1991 - 2001  EDF R&D                  WWW.CODE-ASTER.ORG
# THIS PROGRAM IS FREE SOFTWARE; YOU CAN REDISTRIBUTE IT AND/OR MODIFY
# IT UNDER THE TERMS OF THE GNU GENERAL PUBLIC LICENSE AS PUBLISHED BY
# THE FREE SOFTWARE FOUNDATION; EITHER VERSION 2 OF THE LICENSE, OR
# (AT YOUR OPTION) ANY LATER VERSION.
#
# THIS PROGRAM IS DISTRIBUTED IN THE HOPE THAT IT WILL BE USEFUL, BUT
# WITHOUT ANY WARRANTY; WITHOUT EVEN THE IMPLIED WARRANTY OF
# MERCHANTABILITY OR FITNESS FOR A PARTICULAR PURPOSE. SEE THE GNU
# GENERAL PUBLIC LICENSE FOR MORE DETAILS.
#
# YOU SHOULD HAVE RECEIVED A COPY OF THE GNU GENERAL PUBLIC LICENSE
# ALONG WITH THIS PROGRAM; IF NOT, WRITE TO EDF R&D CODE_ASTER,
#    1 AVENUE DU GENERAL DE GAULLE, 92141 CLAMART CEDEX, FRANCE.
# ======================================================================
# FLUIDES INCOMPRESSIBLES - MASSES AJOUTEES.


DEBUT(CODE=_F(NOM='FDLV112A', NIV_PUB_WEB='INTERNET'), DEBUG=_F(SDVERI='NON'))

LIST_IN = DEFI_LIST_REEL( DEBUT=0.,
                           INTERVALLE=_F(  JUSQU_A = 11.14,  PAS = 0.002))

MAILLAGE=LIRE_MAILLAGE();

MAILLAGE=DEFI_GROUP(reuse =MAILLAGE,
                    MAILLAGE=MAILLAGE,
                    CREA_GROUP_NO=_F(GROUP_MA='FONDATIO',),);

MAILLAGE=DEFI_GROUP(reuse =MAILLAGE,
                    MAILLAGE=MAILLAGE,
                    CREA_GROUP_NO=_F(GROUP_MA='BARRAGE',),);

MAILLAGE=DEFI_GROUP(reuse =MAILLAGE,
                    MAILLAGE=MAILLAGE,
                    CREA_GROUP_NO=_F(GROUP_MA='FONDRET',),);

MAILLAGE=DEFI_GROUP(reuse =MAILLAGE,
                    MAILLAGE=MAILLAGE,
                    CREA_GROUP_NO=_F(INTERSEC=('FONDATIO','BARRAGE'),
                                     NOM='BARFOND',),);

BETON=DEFI_MATERIAU(ELAS=_F(E=3.6000000000E10,
                            NU=0.20000000000000001,
                            RHO=2400.0,
                            AMOR_ALPHA=2.E-3,
                            AMOR_BETA=0.29999999999999999,),);

CHMAT=AFFE_MATERIAU(MAILLAGE=MAILLAGE,
                    AFFE=_F(GROUP_MA='BARRAGE',
                            MATER=BETON,),);

MODELE=AFFE_MODELE(MAILLAGE=MAILLAGE,
                   AFFE=_F(GROUP_MA='BARRAGE',
                           PHENOMENE='MECANIQUE',
                           MODELISATION='3D',),);

CONDLIM=AFFE_CHAR_MECA(MODELE=MODELE,
                       DDL_IMPO=_F(NOEUD='NO130',
                                   DX=0.0,
                                   DY=0.0,
                                   DZ=0.0,),
                       LIAISON_UNIF=(_F(GROUP_NO=('BARFOND'),
                                        DDL='DX',),
                                     _F(GROUP_NO=('BARFOND'),
                                        DDL='DY',),
                                     _F(GROUP_NO=('BARFOND'),
                                        DDL='DZ',),),);

RIGI_ELE=CALC_MATR_ELEM(OPTION='RIGI_MECA',
                        MODELE=MODELE,
                        CHAM_MATER=CHMAT,
                        CHARGE=CONDLIM,);

MASS_ELE=CALC_MATR_ELEM(OPTION='MASS_MECA',
                        MODELE=MODELE,
                        CHAM_MATER=CHMAT,
                        CHARGE=CONDLIM,);

NUME_DDL=NUME_DDL(MATR_RIGI=RIGI_ELE,);

RIGIDITE=ASSE_MATRICE(MATR_ELEM=RIGI_ELE,
                      NUME_DDL=NUME_DDL,);

MASSE=ASSE_MATRICE(MATR_ELEM=MASS_ELE,
                   NUME_DDL=NUME_DDL,);

AMOR_ELE=CALC_MATR_ELEM(OPTION='AMOR_MECA',
                        MODELE=MODELE,
                        CHAM_MATER=CHMAT,
                        RIGI_MECA=RIGI_ELE,
                        MASS_MECA=MASS_ELE,
                        CHARGE=CONDLIM,);

AMOR=ASSE_MATRICE(MATR_ELEM=AMOR_ELE,
                  NUME_DDL=NUME_DDL,);

MODESSTA=MODE_STATIQUE(MATR_RIGI=RIGIDITE,
                       MATR_MASS=MASSE,
                       MODE_STAT=_F(NOEUD='NO130',
                                   AVEC_CMP=('DX','DY','DZ'),),);

MODE=MODE_ITER_SIMULT(MATR_A=RIGIDITE,
                      MATR_B=MASSE,
                      CALC_FREQ=_F(OPTION='PLUS_PETITE',
                                   NMAX_FREQ=20,),);

NUMGEN=NUME_DDL_GENE(BASE=MODE,
                     STOCKAGE='PLEIN',);

MGENE=PROJ_MATR_BASE(BASE=MODE,
                     NUME_DDL_GENE=NUMGEN,
                     MATR_ASSE=MASSE,);

RIGGEN=PROJ_MATR_BASE(BASE=MODE,
                      NUME_DDL_GENE=NUMGEN,
                      MATR_ASSE=RIGIDITE,);

AMOGEN=PROJ_MATR_BASE(BASE=MODE,
                      NUME_DDL_GENE=NUMGEN,
                      MATR_ASSE=AMOR,);

# CALCUL DE LA MASSE AJOUTEE MASSAJ

MACRO_MATR_AJOU(MAILLAGE=MAILLAGE,
                GROUP_MA_FLUIDE='RETENUE',
                GROUP_MA_INTERF='BARRET',
                MODELISATION='3D',
                FLUIDE=_F(RHO=1000.0,
                          TOUT='OUI',),
                DDL_IMPO=_F(GROUP_NO='SURFLIBR',
                            PRES_FLUIDE=0.0,),
                MODE_MECA=MODE,
                NUME_DDL_GENE=NUMGEN,
                MATR_MASS_AJOU=CO('MASSAJ'),
                MONO_APPUI = 'OUI',);

MASTOT=COMB_MATR_ASSE(COMB_R=(_F(MATR_ASSE=MGENE,
                                 COEF_R=1.0,),
                              _F(MATR_ASSE=MASSAJ,
                                 COEF_R=1.0,),),);

MODHUMI=MODE_ITER_SIMULT(MATR_A=RIGGEN,
                         MATR_B=MASTOT,
                         CALC_FREQ=_F(OPTION='PLUS_PETITE',
                                      NMAX_FREQ=20,),);

MODMECA=REST_GENE_PHYS(RESU_GENE=MODHUMI,);

NUMGEN2=NUME_DDL_GENE(BASE=MODMECA,
                      STOCKAGE='PLEIN',);

MGENE2=PROJ_MATR_BASE(BASE=MODMECA,
                      NUME_DDL_GENE=NUMGEN2,
                      MATR_ASSE=MASSE,);

RIGGEN2=PROJ_MATR_BASE(BASE=MODMECA,
                       NUME_DDL_GENE=NUMGEN2,
                       MATR_ASSE=RIGIDITE,);

AMOGEN2=PROJ_MATR_BASE(BASE=MODMECA,
                       NUME_DDL_GENE=NUMGEN2,
                       MATR_ASSE=AMOR,);

# CALCUL DE LA MASSE AJOUTEE MASSAJ2 ET
# DE LA FORCE AJOUTEE

MACRO_MATR_AJOU(MAILLAGE=MAILLAGE,
                GROUP_MA_FLUIDE='RETENUE',
                GROUP_MA_INTERF='BARRET',
                MODELISATION='3D',
                FLUIDE=_F(RHO=1000.0,
                          TOUT='OUI',),
                DDL_IMPO=_F(GROUP_NO='SURFLIBR',
                            PRES_FLUIDE=0.0,),
                MODE_MECA=MODMECA,
                NUME_DDL_GENE=NUMGEN2,
                MATR_MASS_AJOU=CO('MASSAJ2'),
                MONO_APPUI ='OUI',
                FORC_AJOU = (_F(VECTEUR =CO('VGENX'),
                                DIRECTION =(1., 0., 0., ),
                                 ),
                              _F(VECTEUR =CO('VGENY'),
                                DIRECTION =(0., 1., 0., ),
                                 ),
                              _F(VECTEUR =CO('VGENZ'),
                                DIRECTION =(0., 0., 1., ),
                                 ),),
                );


CHARSISX=CALC_CHAR_SEISME(MATR_MASS=MASSE,
                          DIRECTION=(1.0,0.0,0.0),
                          MODE_STAT=MODESSTA,
                          NOEUD='NO130',);

CHARSISY=CALC_CHAR_SEISME(MATR_MASS=MASSE,
                          DIRECTION=(0.0,1.0,0.0),
                          MODE_STAT=MODESSTA,
                          NOEUD='NO130',);

CHARSISZ=CALC_CHAR_SEISME(MATR_MASS=MASSE,
                          DIRECTION=(0.0,0.0,1.0),
                          MODE_STAT=MODESSTA,
                          NOEUD='NO130',);

CHARGENX=PROJ_VECT_BASE(BASE=MODMECA,
                        NUME_DDL_GENE=NUMGEN2,
                        VECT_ASSE=CHARSISX,);

CHARGENY=PROJ_VECT_BASE(BASE=MODMECA,
                        NUME_DDL_GENE=NUMGEN2,
                        VECT_ASSE=CHARSISY,);

CHARGENZ=PROJ_VECT_BASE(BASE=MODMECA,
                        NUME_DDL_GENE=NUMGEN2,
                        VECT_ASSE=CHARSISZ,);

INCLUDE(UNITE=38,
        INFO=1,);

MASTOT2=COMB_MATR_ASSE(COMB_R=(_F(MATR_ASSE=MGENE2,
                                  COEF_R=1.0,),
                               _F(MATR_ASSE=MASSAJ2,
                                  COEF_R=1.0,),),);

MODHUMI2=MODE_ITER_SIMULT(MATR_A=RIGGEN2,
                          MATR_B=MASTOT2,
                          CALC_FREQ=_F(OPTION='PLUS_PETITE',
                                       NMAX_FREQ=20,),);

DYNGEN=DYNA_TRAN_MODAL(MASS_GENE=MASTOT2,
                       RIGI_GENE=RIGGEN2,
                       AMOR_REDUIT=0.050000000000000003,
                       INCREMENT=_F(INST_INIT=0.0,
                                    INST_FIN=11.140000000000001,
                                    PAS=2.E-3,),
                       ARCHIVAGE=_F(PAS_ARCH=5,),
                       EXCIT=(
                             _F(VECT_GENE=CHARGENX,
                                 FONC_MULT=ACC_X,),
                              _F(VECT_GENE=CHARGENY,
                                 FONC_MULT=ACC_Y,),
                              _F(VECT_GENE=CHARGENZ,
                                 FONC_MULT=ACC_Z,),
                              _F(VECT_GENE=VGENX,
                                 FONC_MULT=ACC_X,),
                              _F(VECT_GENE=VGENY,
                                 FONC_MULT=ACC_Y,),
                              _F(VECT_GENE=VGENZ,
                                 FONC_MULT=ACC_Z,),
                          ),);

DYN=REST_GENE_PHYS(RESU_GENE=DYNGEN,
                   MODE_MECA=MODMECA,
                   INTERPOL='LIN',
                   LIST_INST = LIST_IN);

DXR=RECU_FONCTION(RESULTAT=DYN,
                  NOM_CHAM='ACCE',
                  TOUT_ORDRE='OUI',
                  NOM_CMP='DX',
                  NOEUD='NO1909',);

FREQSPEC=DEFI_LIST_REEL(DEBUT=0.10000000000000001,
                        INTERVALLE=(_F(JUSQU_A=10.0,
                                       NOMBRE=100,),
                                    _F(JUSQU_A=20.0,
                                       NOMBRE=100,),
                                    _F(JUSQU_A=100.0,
                                       NOMBRE=100,),),);

SPXR=CALC_FONCTION(SPEC_OSCI=_F(FONCTION=DXR,
                                AMOR_REDUIT=0.050000000000000003,
                                LIST_FREQ=FREQSPEC,
                                NORME=1.0,),);

TEST_FONCTION(VALEUR=(
_F( FONCTION = DXR, PRECISION = 1E-3,
         VALE_PARA = 4.3E-1,  VALE_REFE =1.19015E+00,
         REFERENCE = 'NON_REGRESSION', VERSION='6.1.16'),
_F( FONCTION = SPXR, PRECISION = 1E-3,
         NOM_PARA = ('FREQ','AMOR'),
         VALE_PARA =(1.E+01,0.05) , VALE_REFE = 1.68363E+01 ,
         REFERENCE = 'NON_REGRESSION', VERSION='6.1.16')
))


FIN()
