# TITRE SOUS STRUCTURATION DYNAMIQUE : 2 TUBES CONCENTRIQUES IMMERGES
# ======================================================================
# COPYRIGHT (C) 1991 - 2012  EDF R&D                  WWW.CODE-ASTER.ORG
# THIS PROGRAM IS FREE SOFTWARE; YOU CAN REDISTRIBUTE IT AND/OR MODIFY
# IT UNDER THE TERMS OF THE GNU GENERAL PUBLIC LICENSE AS PUBLISHED BY
# THE FREE SOFTWARE FOUNDATION; EITHER VERSION 2 OF THE LICENSE, OR
# (AT YOUR OPTION) ANY LATER VERSION.
#
# THIS PROGRAM IS DISTRIBUTED IN THE HOPE THAT IT WILL BE USEFUL, BUT
# WITHOUT ANY WARRANTY; WITHOUT EVEN THE IMPLIED WARRANTY OF
# MERCHANTABILITY OR FITNESS FOR A PARTICULAR PURPOSE. SEE THE GNU
# GENERAL PUBLIC LICENSE FOR MORE DETAILS.
#
# YOU SHOULD HAVE RECEIVED A COPY OF THE GNU GENERAL PUBLIC LICENSE
# ALONG WITH THIS PROGRAM; IF NOT, WRITE TO EDF R&D CODE_ASTER,
#    1 AVENUE DU GENERAL DE GAULLE, 92141 CLAMART CEDEX, FRANCE.
# ======================================================================

# CAS_TEST__: CYLINDRE
#             VALIDATION SOUS-STRUCTURATION CLASSIQUE
#            TESTE LA FONCTIONNALITE NOEUD_DOUBLE DE CALC_MATR_AJOU
#            SERVANT A  CALCULER DE LA MASSE AJOUTEE SUR UNE STRUCTURE
#            COQUE IMMERGEE PAR UN FLUIDE DE PART ET D'AUTRE
#
#
#1234567890124567890123456789012345678901234567890123456789012345678901
#
DEBUT(CODE=_F(NIV_PUB_WEB='INTERNET'),
IGNORE_ALARM=('CALCULEL2_63','CALCULEL2_64'),DEBUG=_F(SDVERI='OUI'))

# <CALCULEL2_63> : DANS UN MODELE, IL EXISTE DES ELEMENTS DE TYPE "BORD" QUI N'ONT PAS DE VOISIN AVEC RIGIDITE
# <CALCULEL2_64> : DANS UN MODELE, IL N'Y A AUCUN ELEMENT AVEC AVEC RIGIDITE
#  LE MODELE PROVOQUANT CES ALARMES EST UN MODELE D'INTERFACE
#

SS1=LIRE_MAILLAGE( UNITE=19, FORMAT='MED')

SS2=LIRE_MAILLAGE( UNITE=20, FORMAT='MED')

FLU=LIRE_MAILLAGE( UNITE=21, FORMAT='MED')

#MATERIAUX SOLIDES ET FLUIDES

EAU=DEFI_MATERIAU( THER=_F( LAMBDA = 1., RHO_CP = 1000.))

ACIER=DEFI_MATERIAU(  ELAS=_F( E = 2.1E11,  NU = 0.30,  RHO = 7800.0))

# AFFECTATION DES MATERIAUX

DOMFLUI1=AFFE_MATERIAU(  MAILLAGE=FLU,AFFE=(
                         _F( GROUP_MA = 'CYL1',    MATER = EAU),
                         _F( GROUP_MA = 'INTERF1', MATER = EAU)))

DOMFLUI2=AFFE_MATERIAU(  MAILLAGE=FLU,AFFE=(
                         _F( GROUP_MA = 'CYL2',    MATER = EAU),
                         _F( GROUP_MA = 'INTERF2', MATER = EAU),
                         _F( GROUP_MA = 'FACEXT',  MATER = EAU)))

DOMFLUI=AFFE_MATERIAU(  MAILLAGE=FLU,AFFE=(
                         _F( GROUP_MA = 'CYL2',    MATER = EAU),
                         _F( GROUP_MA = 'INTERF2', MATER = EAU),
                         _F( GROUP_MA = 'FACEXT',  MATER = EAU),
                         _F( GROUP_MA = 'CYL1',    MATER = EAU),
                         _F( GROUP_MA = 'INTERF1', MATER = EAU)))

DOM1=AFFE_MATERIAU(  MAILLAGE=SS1,
                          AFFE=_F( GROUP_MA = 'MILIEU', MATER = ACIER))

DOM2=AFFE_MATERIAU(  MAILLAGE=SS2,
           AFFE=_F( GROUP_MA = 'FACEXT', MATER = ACIER))

# MODELES FLUIDES ET SOUS STRUCTURES

STRUCT1=AFFE_MODELE( MAILLAGE=SS1,AFFE=(
                         _F( GROUP_MA = 'MILIEU',
                               MODELISATION = 'DKT',
                PHENOMENE = 'MECANIQUE'),
                          _F( GROUP_MA = 'RESS2',
                              MODELISATION = 'DIS_T',
               PHENOMENE = 'MECANIQUE'),
                          _F( GROUP_MA = 'RESS3',
                               MODELISATION = 'DIS_T',
                PHENOMENE = 'MECANIQUE'),
                          _F( GROUP_MA = 'RESS6',
                               MODELISATION = 'DIS_T',
                PHENOMENE = 'MECANIQUE'),
                          _F( GROUP_MA = 'RESS7',
                               MODELISATION = 'DIS_T',
                PHENOMENE = 'MECANIQUE')) )

STRUCT2=AFFE_MODELE( MAILLAGE=SS2,AFFE=(
                         _F( GROUP_MA = 'FACEXT',
                               MODELISATION = 'DKT',
                PHENOMENE = 'MECANIQUE'),
                         _F( GROUP_MA = 'RESS1',
                               MODELISATION = 'DIS_T',
                PHENOMENE = 'MECANIQUE'),
                         _F( GROUP_MA = 'RESS4',
                               MODELISATION = 'DIS_T',
                PHENOMENE = 'MECANIQUE'),
                         _F( GROUP_MA = 'RESS5',
                               MODELISATION = 'DIS_T',
                PHENOMENE = 'MECANIQUE'),
                         _F( GROUP_MA = 'RESS8',
                               MODELISATION = 'DIS_T',
                PHENOMENE = 'MECANIQUE'),
                         _F( GROUP_MA = 'EXT',
                               MODELISATION = 'DIS_T',
                PHENOMENE = 'MECANIQUE')) )

FLUIDE1=AFFE_MODELE( MAILLAGE=FLU,AFFE=(
                        _F( GROUP_MA = 'CYL1',
                          MODELISATION = '3D',
              PHENOMENE = 'THERMIQUE'),
                      _F( GROUP_MA = 'INTERF1',
                             MODELISATION = '3D',
                   PHENOMENE = 'THERMIQUE')))

FLUIDE2=AFFE_MODELE( MAILLAGE=FLU,AFFE=(
                        _F( GROUP_MA = 'CYL2',
                          MODELISATION = '3D',
              PHENOMENE = 'THERMIQUE'),
                      _F( GROUP_MA = 'FACEXT',
                             MODELISATION = '3D',
                   PHENOMENE = 'THERMIQUE'),
                      _F( GROUP_MA = 'INTERF2',
                             MODELISATION = '3D',
                   PHENOMENE = 'THERMIQUE')))

FLUIDE=AFFE_MODELE( MAILLAGE=FLU,AFFE=(
                        _F( GROUP_MA = 'CYL2',
                          MODELISATION = '3D',
              PHENOMENE = 'THERMIQUE'),
                      _F( GROUP_MA = 'FACEXT',
                             MODELISATION = '3D',
                   PHENOMENE = 'THERMIQUE'),
                      _F( GROUP_MA = 'INTERF2',
                             MODELISATION = '3D',
                   PHENOMENE = 'THERMIQUE'),
                        _F( GROUP_MA = 'CYL1',
                          MODELISATION = '3D',
              PHENOMENE = 'THERMIQUE'),
                      _F( GROUP_MA = 'INTERF1',
                             MODELISATION = '3D',
                   PHENOMENE = 'THERMIQUE')))

INTERF1=AFFE_MODELE( MAILLAGE=FLU,
                      AFFE=_F( GROUP_MA = 'INTERF1',
                             MODELISATION = '3D',
                   PHENOMENE = 'THERMIQUE'))

INTERF2=AFFE_MODELE( MAILLAGE=FLU,AFFE=(
                      _F( GROUP_MA = 'FACEXT',
                             MODELISATION = '3D',
                   PHENOMENE = 'THERMIQUE'),
                      _F( GROUP_MA = 'INTERF2',
                             MODELISATION = '3D',
                   PHENOMENE = 'THERMIQUE')))

INTERF=AFFE_MODELE( MAILLAGE=FLU,AFFE=(
                      _F( GROUP_MA = 'FACEXT',
                             MODELISATION = '3D',
                   PHENOMENE = 'THERMIQUE'),
                      _F( GROUP_MA = 'INTERF2',
                             MODELISATION = '3D',
                   PHENOMENE = 'THERMIQUE'),
                      _F( GROUP_MA = 'INTERF1',
                             MODELISATION = '3D',
                   PHENOMENE = 'THERMIQUE')))

PARAM1=AFFE_CARA_ELEM(    MODELE=STRUCT1,DISCRET=(
             _F( GROUP_MA = 'RESS3',
               CARA = 'K_T_D_L',
               VALE = (1.E15, 1.E15, 1.E7,)),
             _F( GROUP_MA = 'RESS3',
               CARA = 'M_T_L',
               VALE=(0.0, 0.0 ,0.0 ,0.0 ,0.0 ,0.0 ,0.0 ,0.0 ,0.0,
                0.0,0.0,0.0,0.0,0.0,0.0,0.0,0.0,0.0,
                0.0,0.0,0.0,)),
             _F( GROUP_MA = 'RESS2',
               CARA = 'K_T_D_L',
               VALE = (1.E15, 1.E15, 1.E7,)),
             _F( GROUP_MA = 'RESS2',
               CARA = 'M_T_L',
               VALE=(0.0, 0.0 ,0.0 ,0.0 ,0.0 ,0.0 ,0.0 ,0.0 ,0.0,
                0.0,0.0,0.0,0.0,0.0,0.0,0.0,0.0,0.0,
                0.0,0.0,0.0,)),
             _F( GROUP_MA = 'RESS6',
               CARA = 'K_T_D_L',
               VALE = (1.E15, 1.E15, 1.E7,)),
             _F( GROUP_MA = 'RESS6',
               CARA = 'M_T_L',
               VALE=(0.0, 0.0 ,0.0 ,0.0 ,0.0 ,0.0 ,0.0 ,0.0 ,0.0,
                0.0,0.0,0.0,0.0,0.0,0.0,0.0,0.0,0.0,
                0.0,0.0,0.0,)),
             _F( GROUP_MA = 'RESS7',
               CARA = 'K_T_D_L',
               VALE = (1.E15, 1.E15, 1.E7,)),
             _F( GROUP_MA = 'RESS7',
               CARA = 'M_T_L',
               VALE=(0.0, 0.0 ,0.0 ,0.0 ,0.0 ,0.0 ,0.0 ,0.0 ,0.0,
                0.0,0.0,0.0,0.0,0.0,0.0,0.0,0.0,0.0,
                0.0,0.0,0.0,))),
                          COQUE=_F( GROUP_MA = 'MILIEU',
                         EPAIS = 5.E-1))

PARAM2=AFFE_CARA_ELEM(    MODELE=STRUCT2,DISCRET=(
             _F( GROUP_MA = 'RESS1',
               CARA = 'K_T_D_L',
               VALE = (1.E15, 1.E15, 1.E7,)),
             _F( GROUP_MA = 'RESS1',
               CARA = 'M_T_L',
               VALE=(0.0, 0.0 ,0.0 ,0.0 ,0.0 ,0.0 ,0.0 ,0.0 ,0.0,
                0.0,0.0,0.0,0.0,0.0,0.0,0.0,0.0,0.0,
                0.0,0.0,0.0,)),
             _F( GROUP_MA = 'RESS4',
               CARA = 'K_T_D_L',
               VALE = (1.E15, 1.E15, 1.E7,)),
             _F( GROUP_MA = 'RESS4',
               CARA = 'M_T_L',
               VALE=(0.0, 0.0 ,0.0 ,0.0 ,0.0 ,0.0 ,0.0 ,0.0 ,0.0,
                0.0,0.0,0.0,0.0,0.0,0.0,0.0,0.0,0.0,
                0.0,0.0,0.0,)),
             _F( GROUP_MA = 'RESS5',
               CARA = 'K_T_D_L',
               VALE = (1.E15, 1.E15, 1.E7,)),
             _F( GROUP_MA = 'RESS5',
               CARA = 'M_T_L',
               VALE=(0.0, 0.0 ,0.0 ,0.0 ,0.0 ,0.0 ,0.0 ,0.0 ,0.0,
                0.0,0.0,0.0,0.0,0.0,0.0,0.0,0.0,0.0,
                0.0,0.0,0.0,)),
             _F( GROUP_MA = 'RESS8',
               CARA = 'K_T_D_L',
               VALE = (1.E15, 1.E15, 1.E7,)),
             _F( GROUP_MA = 'RESS8',
               CARA = 'M_T_L',
               VALE=(0.0, 0.0 ,0.0 ,0.0 ,0.0 ,0.0 ,0.0 ,0.0 ,0.0,
                0.0,0.0,0.0,0.0,0.0,0.0,0.0,0.0,0.0,
                0.0,0.0,0.0,)),
             _F( GROUP_MA = 'EXT',
               CARA = 'K_T_D_L',
               VALE = (1.E15, 1.E15, 1.E9,)),
             _F( GROUP_MA = 'EXT',
               CARA = 'M_T_L',
               VALE=(0.0, 0.0 ,0.0 ,0.0 ,0.0 ,0.0 ,0.0 ,0.0 ,0.0,
                0.0,0.0,0.0,0.0,0.0,0.0,0.0,0.0,0.0,
                0.0,0.0,0.0,))),
                          COQUE=_F( GROUP_MA = 'FACEXT',
                          EPAIS = 5.E-1))

# Pour avoir un probleme thermique bien pose on fixe la temperature
# en un DDL pour chaque domaine fluide : TEMPIMPO comporte deux noeuds
THERM=AFFE_CHAR_THER( MODELE=FLUIDE,
                        TEMP_IMPO=_F( GROUP_NO = 'TEMPIMPO',
               TEMP = 0.))

########################################################################
#
#       2 CYLINDRES CONCENTRIQUES LIES PAR DES RESSORTS
#   SOUS-STRUCTURATION CLASSIQUE - INTERFACES TYPE CRAIG-BAMPTON
#
########################################################################
#
#
# SOUS-STRUCTURE 1 : CYLINDRE & 1/2 RESSORT
#           INTERFACE TYPE CRAIG-BAMPTON
#

CHARGE_1=AFFE_CHAR_MECA(  MODELE=STRUCT1,DDL_IMPO=(
                        _F( GROUP_NO = 'CRAIGB',
                  DX = 0.0, DY = 0.0, DZ = 0.0),
                        _F( GROUP_NO = 'NOMIL',
                  DX = 0.0, DY = 0.0,
                                     DRX = 0.0, DRY = 0.0, DRZ = 0.0)))

MERIME_1=CALC_MATR_ELEM(      MODELE=STRUCT1,
                                CHARGE=CHARGE_1,
                            CHAM_MATER=DOM1,
                             CARA_ELEM=PARAM1,
                               OPTION='RIGI_MECA')

#
MEMAME_1=CALC_MATR_ELEM(      MODELE=STRUCT1,
                                CHARGE=CHARGE_1,
                            CHAM_MATER=DOM1,
                             CARA_ELEM=PARAM1,
                               OPTION='MASS_MECA')

#
NUMDDL_1=NUME_DDL(  MATR_RIGI=MERIME_1)

#
RAID_1=ASSE_MATRICE(  MATR_ELEM=MERIME_1,
                           NUME_DDL=NUMDDL_1)

#
MASS_1=ASSE_MATRICE(  MATR_ELEM=MEMAME_1,
                           NUME_DDL=NUMDDL_1)

#
MASSE1=POST_ELEM(  MODELE=STRUCT1,
                   CHAM_MATER=DOM1,
          CARA_ELEM=PARAM1,
                    MASS_INER=_F( GROUP_MA = 'MILIEU'),
                     TITRE='MASSE DU CYLINDRE INTERNE')

MASSE2=POST_ELEM(  MODELE=STRUCT2,
                   CHAM_MATER=DOM2,
          CARA_ELEM=PARAM2,
                    MASS_INER=_F( GROUP_MA = 'FACEXT'),
                     TITRE='MASSE DU CYLINDRE EXTERNE')

MODES_1=CALC_MODES(CALC_FREQ=_F(NMAX_FREQ=1,
                                ),
                   OPTION='PLUS_PETITE',
                   MATR_RIGI=RAID_1,
                   MATR_MASS=MASS_1,
                   )


NUMGEN1=NUME_DDL_GENE(  BASE=MODES_1,
                          STOCKAGE='PLEIN')

#
# SOUS-STRUCTURE 2  - INTERFACE TYPE CRAIG-BAMPTON
#

CHARGE_2=AFFE_CHAR_MECA(  MODELE=STRUCT2,DDL_IMPO=(
                        _F( GROUP_NO = 'CRAIGB',
                  DX = 0.0, DY = 0.0, DZ = 0.0),
                        _F( GROUP_NO = 'ENCAS',
                  DX = 0.0, DY = 0.0, DZ = 0.0),
                        _F( GROUP_NO = 'NOEXT',
                  DX = 0.0, DY = 0.0,
                                     DRX = 0.0, DRY = 0.0, DRZ = 0.0)))

#
MERIME_2=CALC_MATR_ELEM(      MODELE=STRUCT2,
                                CHARGE=CHARGE_2,
                            CHAM_MATER=DOM2,
                             CARA_ELEM=PARAM2,
                               OPTION='RIGI_MECA')

#
MEMAME_2=CALC_MATR_ELEM(      MODELE=STRUCT2,
                                CHARGE=CHARGE_2,
                            CHAM_MATER=DOM2,
                             CARA_ELEM=PARAM2,
                               OPTION='MASS_MECA')

#
NUMDDL_2=NUME_DDL(  MATR_RIGI=MERIME_2)

#
RAID_2=ASSE_MATRICE(  MATR_ELEM=MERIME_2,
                           NUME_DDL=NUMDDL_2)

#
MASS_2=ASSE_MATRICE(  MATR_ELEM=MEMAME_2,
                           NUME_DDL=NUMDDL_2)

#
MODES_2=CALC_MODES(CALC_FREQ=_F(NMAX_FREQ=1,
                                ),
                   OPTION='PLUS_PETITE',
                   MATR_RIGI=RAID_2,
                   MATR_MASS=MASS_2,
                   )


NUMGEN2=NUME_DDL_GENE(  BASE=MODES_2,
                          STOCKAGE='PLEIN')

#
#  DEFINITION DES INTERFACES
#

LINT1_CL=DEFI_INTERF_DYNA(   NUME_DDL=NUMDDL_1,
                         INTERFACE=_F( NOM = 'LIAIS1',
                                        TYPE = 'CRAIGB',
            MASQUE = ('DX','DY','DRX','DRY','DRZ',),
                                        GROUP_NO = 'CRAIGB'))

#
LINT2_CL=DEFI_INTERF_DYNA(   NUME_DDL=NUMDDL_2,
                         INTERFACE=_F( NOM = 'LIAIS2',
                                        TYPE = 'CRAIGB',
            MASQUE = ('DX','DY','DRX','DRY','DRZ',),
                                        GROUP_NO = 'CRAIGB'))

#  CALCUL DE LA BASE MODALE DES SOUS-STRUCTURES


BAMO1_CL=DEFI_BASE_MODALE( CLASSIQUE=_F( INTERF_DYNA = LINT1_CL,
                                        MODE_MECA = MODES_1,
                                        NMAX_MODE = 1))

BAMO2_CL=DEFI_BASE_MODALE( CLASSIQUE=_F( INTERF_DYNA = LINT2_CL,
                                        MODE_MECA = MODES_2,
                                        NMAX_MODE = 1))

#  CALCUL DU MACRO-ELEMENT
#
MACEL1=MACR_ELEM_DYNA(  BASE_MODALE=BAMO1_CL)

#
MACEL2=MACR_ELEM_DYNA(  BASE_MODALE=BAMO2_CL)

#
#   CALCUL SUR MODELE GENERALISE
#
MODEGE=DEFI_MODELE_GENE(SOUS_STRUC=( _F( NOM = 'TUBE1',
                                         MACR_ELEM_DYNA = MACEL1,
                                         ANGL_NAUT = (0., 0., 0.,),
                                         TRANS=(0.,0.,0.)),
                             _F( NOM = 'TUBE2',
                                         MACR_ELEM_DYNA = MACEL2,
                                         ANGL_NAUT = (0., 0., 0.,),
                                         TRANS=(0.,0.,0.))),
                             LIAISON=_F( SOUS_STRUC_1 = 'TUBE1',
                                      SOUS_STRUC_2 = 'TUBE2',
                                      INTERFACE_1 = 'LIAIS1',
                                      INTERFACE_2 = 'LIAIS2'),
                               VERIF=_F( STOP_ERREUR = 'OUI',
                                      PRECISION = 1.E-6,
                                      CRITERE = 'RELATIF'))

#
#  NUMEROTATION DU PROBLEME GENERALISE
#
NUMEGE=NUME_DDL_GENE(  MODELE_GENE=MODEGE,
                           STOCKAGE='PLEIN')

#
#  ASSEMBLAGE DES MATRICES RAIDEUR ET MASSE
#
MASGEN=ASSE_MATR_GENE(  NUME_DDL_GENE=NUMEGE,
                                  OPTION='MASS_GENE')

#
RIGGEN=ASSE_MATR_GENE(  NUME_DDL_GENE=NUMEGE,
                                  OPTION='RIGI_GENE')

MATRAJ=CALC_MATR_AJOU(  MODELE_FLUIDE=FLUIDE,
                          MODELE_INTERFACE=INTERF,
                         OPTION='MASS_AJOU',
                          NUME_DDL_GENE=NUMEGE,
                          MODELE_GENE=MODEGE,
                         CHARGE=THERM,
                         CHAM_MATER=DOMFLUI,
                          NOEUD_DOUBLE='OUI')

MASTOT=COMB_MATR_ASSE( COMB_R=(  _F( MATR_ASSE = MASGEN,
                                     COEF_R = 1.),
                                   _F( MATR_ASSE = MATRAJ,
                                     COEF_R = 1.)))

#
#   CALCUL DES MODES PROPRES DE LA STRUCTURE GLOBALE
#


RESGEN=CALC_MODES(CALC_FREQ=_F(FREQ=(0.2,50.,),
                               ),
                  OPTION='BANDE',
                  MATR_RIGI=RIGGEN,
                  MATR_MASS=MASGEN,
                  )


#
#   CALCUL DES MODES EN EAU DE LA STRUCTURE GLOBALE
#

RESTOT=CALC_MODES(CALC_FREQ=_F(FREQ=(0.1,10.,),
                                                          #NMAX_FREQ: 3
                               ),
                  OPTION='BANDE',
                                  #OPTION :'PLUS_PETITE'
                  MATR_RIGI=RIGGEN,
                  #NMAX_FREQ: 3 )
                  MATR_MASS=MASTOT,
                  )


#
#   CREATION DU MAILLAGE SQUELETTE DE LA STRUCTURE GLOBALE
#

SQUEL=DEFI_SQUELETTE(  MODELE_GENE=MODEGE,SOUS_STRUC=(
                            _F( NOM = 'TUBE1',
                                        GROUP_MA = ('MILIEU', 'RESSORT1',)),
                            _F( NOM = 'TUBE2',
                                        GROUP_MA = ('FACEXT', 'RESSORT2',))) )

SQUEL1=DEFI_SQUELETTE(  MODELE_GENE=MODEGE,
                            SOUS_STRUC=_F( NOM = 'TUBE1',
                                        GROUP_MA = ('MILIEU', 'RESSORT1',)))

SQUEL2=DEFI_SQUELETTE(  MODELE_GENE=MODEGE,
                            SOUS_STRUC=_F( NOM = 'TUBE2',
                                        GROUP_MA = ('FACEXT', 'RESSORT2',)) )

#
#   RESTITUTION SUR MAILLAGE SQUELETTE
#

MODGLO=REST_SOUS_STRUC(   RESU_GENE=RESGEN,
                             SQUELETTE=SQUEL,
                           TOUT_ORDRE='OUI',
             TOUT_CHAM='OUI')

MODGLO2=REST_SOUS_STRUC(   RESU_GENE=RESTOT,
                             SQUELETTE=SQUEL,
                           TOUT_ORDRE='OUI',
                            TOUT_CHAM='OUI')

#
TEST_RESU(RESU=(_F(PARA='FREQ',
                   NUME_MODE=1,
                   REFERENCE='ANALYTIQUE',
                   RESULTAT=MODGLO,
                   VALE_CALC=0.496855996,
                   VALE_REFE=0.49685600000000002,
                   CRITERE='RELATIF',
                   PRECISION=0.012500000000000001,),
                _F(PARA='FREQ',
                   NUME_MODE=2,
                   REFERENCE='ANALYTIQUE',
                   RESULTAT=MODGLO,
                   VALE_CALC=5.147178310,
                   VALE_REFE=5.1471799999999996,
                   CRITERE='RELATIF',
                   PRECISION=0.012500000000000001,),
                ),
          )

TEST_RESU(RESU=(_F(PARA='FREQ',
                   NUME_MODE=1,
                   REFERENCE='ANALYTIQUE',
                   RESULTAT=MODGLO2,
                   VALE_CALC=0.364208465,
                   VALE_REFE=0.3654,
                   CRITERE='RELATIF',
                   PRECISION=0.012500000000000001,),
                _F(PARA='FREQ',
                   NUME_MODE=2,
                   REFERENCE='ANALYTIQUE',
                   RESULTAT=MODGLO2,
                   VALE_CALC=4.061365898,
                   VALE_REFE=4.0039999999999996,
                   CRITERE='RELATIF',
                   PRECISION=0.014999999999999999,),
                ),
          )

FIN()
#
#
#
#
#
#
#
#
#
#
#
#
