# TITRE REPONSE SISMIQUE D UN BARRAGE AVEC LAPLACE TEMPS
# ======================================================================
# COPYRIGHT (C) 1991 - 2013  EDF R&D                  WWW.CODE-ASTER.ORG
# THIS PROGRAM IS FREE SOFTWARE; YOU CAN REDISTRIBUTE IT AND/OR MODIFY
# IT UNDER THE TERMS OF THE GNU GENERAL PUBLIC LICENSE AS PUBLISHED BY
# THE FREE SOFTWARE FOUNDATION; EITHER VERSION 2 OF THE LICENSE, OR
# (AT YOUR OPTION) ANY LATER VERSION.
#
# THIS PROGRAM IS DISTRIBUTED IN THE HOPE THAT IT WILL BE USEFUL, BUT
# WITHOUT ANY WARRANTY; WITHOUT EVEN THE IMPLIED WARRANTY OF
# MERCHANTABILITY OR FITNESS FOR A PARTICULAR PURPOSE. SEE THE GNU
# GENERAL PUBLIC LICENSE FOR MORE DETAILS.
#
# YOU SHOULD HAVE RECEIVED A COPY OF THE GNU GENERAL PUBLIC LICENSE
# ALONG WITH THIS PROGRAM; IF NOT, WRITE TO EDF R&D CODE_ASTER,
#    1 AVENUE DU GENERAL DE GAULLE, 92141 CLAMART CEDEX, FRANCE.
# ======================================================================

DEBUT(CODE=_F(NIV_PUB_WEB='INTERNET',),DEBUG=_F(SDVERI='OUI'), 
     );

mail = LIRE_MAILLAGE(VERI_MAIL=_F(VERIF='OUI'));

mail=DEFI_GROUP(reuse = mail,
                    MAILLAGE=mail,
                    CREA_GROUP_NO=(
                        _F(GROUP_MA=('PBASE',)),
                  ),
           );


mat1= DEFI_MATERIAU( ELAS=_F( E= 3.6E+10,
                              RHO= 2400.,
                              NU= 0.2,
                            ),
                       ) ;

Npf = 205

kxp=3.55E13/Npf
kyp=3.33E13/Npf
kzp=3.41E13/Npf

PRE_SEISME_NONL(
                 RESULTAT = _F(
                                MODELE = CO('modele'),
                                MAILLAGE = CO('mail2'),
                                CARA_ELEM = CO('cara_el2'),
                                CHARGE = (_F( NOM = CO('cond_lim'),
                                               OPTION = 'COND_LIM'),
                                           ),
                                CHAM_MATER = CO('champmat'),
                                BASE_MODALE = CO('BAMO'),
                                MACR_ELEM_DYNA = CO('MAEL0'),
                               ),

                 PARAMETRE = _F(  
                                  PRE_CALC_MISS= _F(
                                                     REDUC_DYNA_ISS = 'NON',
                                                     REDUC_DYNA_IFS = 'OUI',
                                                     NMAX_MODE_ISS = 6,
                                                     NMAX_MODE_IFS = 54,
                                                     GROUP_NO_INTERF = 'NISFS',
                                                     GROUP_NO_CENT = 'PBASE',
                                                     CALC_MISS_OPTION = 'ISFS',
                                                    ),
                                ),

                 AFFE_MODELE = _F( 
                                   MAILLAGE=mail,
                                   AFFE=( 
                                          _F(GROUP_MA=( 'STRVOU2' ),
                                             PHENOMENE= 'MECANIQUE',
                                             MODELISATION= '3D'),
                                          _F(GROUP_MA = 'PBASE',
                                             PHENOMENE = 'MECANIQUE',
                                             MODELISATION = 'DIS_TR'),
                                          _F(GROUP_MA = 'PFONDAT',
                                             PHENOMENE = 'MECANIQUE',
                                             MODELISATION = 'DIS_TR'),
                                         ),
                               ),

                # Condition aux limites pour le calcul des modes de corps rigide d'ISS
                AFFE_CHAR_MECA = _F( 
                                     #MODELE= MODEL1,
                                     DDL_IMPO=_F(
                                                 GROUP_NO = 'PBASE',
                                                 DX= 0.,
                                                 DY= 0.,
                                                 DZ= 0.,
                                                 DRX= 0.,
                                                 DRY= 0.,
                                                 DRZ= 0.,
                                                ),
                                     LIAISON_SOLIDE=_F(GROUP_NO=('ISOLSTR',),)
                                   ),

                # Tapis de ressorts pour le calcul des modes dynamiques d'ISFS
                AFFE_CARA_ELEM = _F(
                                     #MODELE= MODEL1,
                                     DISCRET=(
                                               _F(GROUP_MA=('PBASE'), 
                                                  CARA='K_TR_D_N',
                                                  VALE=(0.0,0.0,0.0,0.0,0.0,0.0,),
                                                  ),
                                               _F(GROUP_MA=('PFONDAT'), 
                                                  CARA='K_TR_D_N',
                                                  VALE=(kxp, kyp,kzp,1E18,1E18,1E18),
                                                  ),
                                               ),
                                   ),

                AFFE_MATERIAU = _F(
                                   MAILLAGE=mail,
                                   AFFE=_F( 
                                           GROUP_MA= ('STRVOU2'),
                                           MATER= mat1 )
                                    ),

);


TABSOL = DEFI_SOL_MISS(
   TITRE="SOL HOMOGENE",
   MATERIAU=(
      _F(E=3.0e11,   NU=0.16, RHO=2000., AMOR_HYST=0.10),
      _F(E=3.0e11,   NU=0.16, RHO=2000., AMOR_HYST=0.10),
   ),
   COUCHE=(
      _F(EPAIS=2.5, NUME_MATE=1, RECEPTEUR="OUI"),
      _F(EPAIS=2.5, NUME_MATE=1, RECEPTEUR="OUI", SOURCE="OUI"),
      _F(EPAIS=4.0, NUME_MATE=1, RECEPTEUR="OUI"),
      _F(EPAIS=4.0, NUME_MATE=1, RECEPTEUR="OUI", SOURCE="OUI"),
      _F(EPAIS=4.0, NUME_MATE=1, RECEPTEUR="OUI"),
      _F(EPAIS=4.0, NUME_MATE=1, RECEPTEUR="OUI", SOURCE="OUI"),
      _F(EPAIS=5.0, NUME_MATE=1, RECEPTEUR="OUI"),
      _F(EPAIS=5.0, NUME_MATE=1, RECEPTEUR="OUI", SOURCE="OUI"),
      _F(EPAIS=5.0, NUME_MATE=1, RECEPTEUR="OUI"),
      _F(EPAIS=5.0, NUME_MATE=1, RECEPTEUR="OUI", SOURCE="OUI"),
      _F(EPAIS=5.5, NUME_MATE=1, RECEPTEUR="OUI"),
      _F(EPAIS=5.5, NUME_MATE=1, RECEPTEUR="OUI", SOURCE="OUI"),
      _F(EPAIS=6.0, NUME_MATE=1, RECEPTEUR="OUI"),
      _F(EPAIS=6.0, NUME_MATE=1, RECEPTEUR="OUI", SOURCE="OUI"),
      _F(EPAIS=6.5, NUME_MATE=1, RECEPTEUR="OUI"),
      _F(EPAIS=6.5, NUME_MATE=1, RECEPTEUR="OUI", SOURCE="OUI"),
      _F(EPAIS=10., NUME_MATE=1, RECEPTEUR="OUI", SOURCE="OUI"),
      _F(SUBSTRATUM="OUI", NUME_MATE=2,),
   ),
   INFO=2,
);
'''
CALC_MISS(TYPE_RESU='FICHIER',
          PROJET='FDLV112G',
          VERSION='V6.6',
          TABLE_SOL=TABSOL,
          MATER_FLUIDE=_F(RHO=1000.,
                          CELE=1500.,
                          AMOR_BETA=0.),
          MACR_ELEM_DYNA=MAEL0,
          GROUP_MA_INTERF='SURFBAS2',
          GROUP_MA_FLU_STR='IFLUSTR2',
          GROUP_MA_FLU_SOL='IFLUSOL2',
          GROUP_MA_SOL_SOL='SLIBREM2',
          UNITE_IMPR_ASTER=26,
          UNITE_RESU_IMPE=25,
          UNITE_RESU_FORC=28,
          PARAMETRE=_F(FREQ_MIN=0.5,
                       FREQ_MAX=25.,
                       FREQ_PAS=0.5,
                       Z0=5.0,
                       SURF='NON',
                       ISSF='OUI',
                       ALGO='REGU',
                       OFFSET_MAX=1000,
                       OFFSET_NB=5000,),);
                       
'''
                     
CALC_MISS(TYPE_RESU='FICHIER_TEMPS',
          PROJET='FDLV112G2',
          VERSION='V6.6',
          TABLE_SOL=TABSOL,
          MATER_FLUIDE=_F(RHO=1000.,
                          CELE=1500.,
                          AMOR_BETA=0.),
          MACR_ELEM_DYNA=MAEL0,
          GROUP_MA_INTERF='SURFBAS2',
          GROUP_MA_FLU_STR='IFLUSTR2',
          GROUP_MA_FLU_SOL='IFLUSOL2',
          GROUP_MA_SOL_SOL='SLIBREM2',
          UNITE_IMPR_ASTER=26,
          INST_FIN = 2.10,
          PCENT_FREQ_CALCUL=0,
          FACTEUR_INTERPOL=7,
          PRECISION = 1E-10,
          PAS_INST = 0.01,
          UNITE_RESU_RIGI=35,
          PARAMETRE=_F(FREQ_IMAG=0.1,
                       Z0=5.0,
                       SURF='NON',
                       ISSF='OUI',
                       ALGO='REGU',
                       OFFSET_MAX=1000,
                       OFFSET_NB=5000,),);                       

NDDLGEN = NUME_DDL_GENE( BASE= BAMO, STOCKAGE= 'PLEIN',);

MATK = LIRE_IMPE_MISS(UNITE_RESU_IMPE=35, INST_EXTR=0.0,
                      SYME='OUI',
                      BASE=BAMO, NUME_DDL_GENE=NDDLGEN);

MAEL=MACR_ELEM_DYNA(  BASE_MODALE=BAMO,
                       MATR_IMPE_RIGI = MATK,
                       SANS_GROUP_NO='NISFS',
                       );
                       
IMPR_CO(CHAINE='MAEL    .LINO', UNITE = 6);

PRE_SEISME_NONL( 
                 RESULTAT = _F(
                                MODELE = CO('MODELB'),
                                MAILLAGE = CO('MAILB'),
                                CARA_ELEM = CO('ELEMB'),
                                CHARGE = (
                                            _F( NOM = CO('COND_LIB'),
                                                OPTION = 'COND_LIM'),
                                            _F( NOM = CO('CHSOL'),
                                                OPTION = 'LAPL_TEMPS'),
                                          ),
                                CHAM_MATER = CO('CHMATB')
                               ),

                 PARAMETRE = _F(
                                POST_CALC_MISS = _F(
                                                   MACR_ELEM_DYNA = MAEL,
                                                   UNITE_RESU_RIGI = 35,),
                                ),

                 AFFE_MODELE = _F(
                                  MAILLAGE=mail,
                                  AFFE=(
                                          _F(GROUP_MA=( 'STRVOU2' ),
                                             PHENOMENE= 'MECANIQUE',
                                             MODELISATION= '3D'),
                                          _F(GROUP_MA = 'PFONDAT',
                                             PHENOMENE = 'MECANIQUE',
                                             MODELISATION = 'DIS_TR'),
                                        ),
                                ),
    
                 AFFE_CARA_ELEM = _F(
                                      MODELE=modele,
                                      DISCRET=(
                                                _F(GROUP_MA=('PFONDAT'), 
                                                   CARA='K_TR_D_N',
                                                   VALE=(0.0, 0.0,0.0,0.0,0.0,0.0),
                                                   ),
                                               ),
                                     ),

                 AFFE_MATERIAU = _F(
                                      MAILLAGE=mail,
                                      AFFE=_F( 
                                              GROUP_MA= ('STRVOU2'),
                                              MATER= mat1 
                                              )
                                    ),

           );
           
#IMPR_RESU(RESU=_F(MAILLAGE=MAILB));
 

PESAX=AFFE_CHAR_MECA(MODELE=MODELB,
                    PESANTEUR=_F(GRAVITE=1.0,
                                 DIRECTION=(-1.0,0.0,0.0,),),);

INCLUDE(UNITE=31,);


N=200 
dt=0.01
TFIN=2.0                         

linst = DEFI_LIST_REEL ( DEBUT = 0.,
                          INTERVALLE = (
                                      _F( 
                                         JUSQU_A = (N-1)*dt,
                                         PAS=1*dt,
                                         ),
                                       ),
                           );                           
                      

ACCEX= CALC_FONCTION( COMB=_F( FONCTION = acc_x, COEF = 1.),
                        INTERPOL='LIN',
                        PROL_DROITE='LINEAIRE',
                        PROL_GAUCHE='LINEAIRE',
                      LIST_PARA=linst);
                      


vitex=CALC_FONCTION(INTEGRE=_F(FONCTION=ACCEX,));

deplx0=CALC_FONCTION(INTEGRE=_F(FONCTION=vitex,));

deplxF=FORMULE(NOM_PARA='INST',
            VALE='deplx0(INST)-(INST*deplx0(TFIN-dt)/(TFIN-dt))')
            
deplx=CALC_FONC_INTERP(FONCTION=deplxF, NOM_PARA = 'INST',
                        PROL_DROITE='CONSTANT',
                        PROL_GAUCHE='CONSTANT',
                        LIST_PARA=linst);
                        
dt=0.01

N=131

L_INST=DEFI_LIST_REEL(DEBUT=0.,
                     INTERVALLE=_F(
                                   JUSQU_A=(N-1)*dt,
                                   PAS=dt,),
                     );
                     

                     
FSEISX0=CALC_MISS(MODELE=MODELB, TYPE_RESU='CHARGE', #INFO=2,
                        FONC_SIGNAL=deplx,
                        FREQ_MAX=25, 
                        NOM_CMP='DX',
                        UNITE_RESU_FORC=28,
                        ISSF='OUI',
                        NOEUD_AFFE=('N2591','N2592','N2593','N2594','N2595',
                                    'N2596','N2597','N2598','N2599','N2600',
                                    ),
                        );

                        
DYNA=DYNA_NON_LINE(MODELE=MODELB,
                 CHAM_MATER=CHMATB,
                 CARA_ELEM=ELEMB,
                 EXCIT=(
                        _F(CHARGE=FSEISX0,),
                        #_F(CHARGE=PESAX,FONC_MULT=ACCEX,),
                        _F(CHARGE=CHSOL),
                        _F(CHARGE=COND_LIB),
                        ),
                 COMPORTEMENT=(_F(RELATION='ELAS',
                                    TOUT='OUI',),
                                ),
                 NEWTON=_F(#PREDICTION='ELASTIQUE',
                           MATRICE='ELASTIQUE',
                           #MATRICE='TANGENTE',
                           REAC_INCR=0,REAC_ITER=0,
                           ),
                 SCHEMA_TEMPS = _F(SCHEMA='HHT', 
                                   #ALPHA=-0.0,
                                   ALPHA=-0.1,
                                   #ALPHA=-0.05,
                                   MODI_EQUI='OUI',
                                   FORMULATION='DEPLACEMENT',),
                 CONVERGENCE=_F(RESI_GLOB_RELA = 1.E-8,
                                ITER_GLOB_MAXI = 20,
                                ARRET='OUI',),
                 INCREMENT=_F(LIST_INST=L_INST,),
                 #ARCHIVAGE=_F(PAS_ARCH=1,),             
                          );
                          
ax253i = RECU_FONCTION ( RESULTAT = DYNA, NOM_CHAM = 'ACCE',
                        INTERPOL='LIN',
                        PROL_DROITE='LINEAIRE',
                        PROL_GAUCHE='LINEAIRE',
                        NOEUD = 'N253', NOM_CMP = 'DX', );
                        
ax316i = RECU_FONCTION ( RESULTAT = DYNA, NOM_CHAM = 'ACCE',
                        INTERPOL='LIN',
                        PROL_DROITE='LINEAIRE',
                        PROL_GAUCHE='LINEAIRE',
                        NOEUD = 'N316', NOM_CMP = 'DX', );
                        
ax11i = RECU_FONCTION ( RESULTAT = DYNA, NOM_CHAM = 'ACCE',
                        INTERPOL='LIN',
                        PROL_DROITE='LINEAIRE',
                        PROL_GAUCHE='LINEAIRE',
                        NOEUD = 'N11', NOM_CMP = 'DX', );
                        

freqspec = DEFI_LIST_REEL ( DEBUT = 0.1,
                          INTERVALLE = (
                                      _F(
                                         JUSQU_A = 15.,
                                         NOMBRE = 149,
                                       ),
                                      _F(
                                         JUSQU_A = 35.,
                                         NOMBRE = 80,
                                       ),
                                      _F(
                                         JUSQU_A = 100.,
                                         NOMBRE = 65,
                                       ),
                                       ),
                           );


sro_axi=CALC_FONCTION(SPEC_OSCI=_F(FONCTION=ax253i, AMOR_REDUIT=0.05,
                                  NORME=1.,
                                  LIST_FREQ = freqspec,
                                 ),);
                                 
sro11xi=CALC_FONCTION(SPEC_OSCI=_F(FONCTION=ax11i, AMOR_REDUIT=0.05,
                                  NORME=1.,
                                  LIST_FREQ = freqspec,
                                 ),);
                                 
sro316xi=CALC_FONCTION(SPEC_OSCI=_F(FONCTION=ax316i, AMOR_REDUIT=0.05,
                                  NORME=1.,
                                  LIST_FREQ = freqspec,
                                 ),);
                                 
SACCEX=CALC_FONCTION(SPEC_OSCI=_F(FONCTION=ACCEX, AMOR_REDUIT=0.05,
                                  NORME=1.,
                                  LIST_FREQ = freqspec,
                                 ),);
                                 
SACCEX0=CALC_FONCTION(SPEC_OSCI=_F(FONCTION=acc_x, AMOR_REDUIT=0.05,
                                  NORME=1.,
                                  LIST_FREQ = freqspec,
                                 ),);
                                 
IMPR_FONCTION( FORMAT='AGRAF',UNITE=21,
              COURBE=(
                      _F(FONCTION=ax253i),
                      _F(FONCTION=ax316i),
                      _F(FONCTION=ax11i),
                      ),
             );
             
IMPR_FONCTION( FORMAT='AGRAF',UNITE=22,
              COURBE=(
                      _F(FONCTION=sro_axi),
                      _F(FONCTION=sro316xi),
                      _F(FONCTION=sro11xi),
                      _F(FONCTION=SACCEX),
                      _F(FONCTION=SACCEX0),
                      ),
             );                                 
                                 
# AJOUT TOLE_MACHINE DE 3E-6 POUR SATISFAIRE CLAP0F0Q EN DYNAMIQUE TRANSITOIRE
 
TEST_FONCTION(VALEUR=(
                      _F(VALE_CALC=4.684936613651,
                         VALE_REFE=4.885,
                         PRECISION=0.05,
                         TOLE_MACHINE=3.E-06,
                         REFERENCE = 'AUTRE_ASTER',
                         VALE_PARA=1.00,
                         FONCTION=ax253i,
                         ),
                      _F(VALE_CALC=14.93492844330,
                         VALE_REFE=17.40,
                         PRECISION=0.15,
                         TOLE_MACHINE=3.E-06,
                         REFERENCE = 'AUTRE_ASTER',
                         VALE_PARA=(10.7, 0.05),
                         NOM_PARA=('FREQ', 'AMOR'),
                         FONCTION=sro_axi,
                         ),
                      ),
              );

FIN( );
