# ======================================================================
# TITRE VALIDATION ARCHITECTURE PARTITIONNEMENT SCOTCH ET CALCUL FETI
# ======================================================================
# COPYRIGHT (C) 1991 - 2013  EDF R&D                  WWW.CODE-ASTER.ORG
# THIS PROGRAM IS FREE SOFTWARE; YOU CAN REDISTRIBUTE IT AND/OR MODIFY
# IT UNDER THE TERMS OF THE GNU GENERAL PUBLIC LICENSE AS PUBLISHED BY
# THE FREE SOFTWARE FOUNDATION; EITHER VERSION 2 OF THE LICENSE, OR
# (AT YOUR OPTION) ANY LATER VERSION.
#
# THIS PROGRAM IS DISTRIBUTED IN THE HOPE THAT IT WILL BE USEFUL, BUT
# WITHOUT ANY WARRANTY; WITHOUT EVEN THE IMPLIED WARRANTY OF
# MERCHANTABILITY OR FITNESS FOR A PARTICULAR PURPOSE. SEE THE GNU
# GENERAL PUBLIC LICENSE FOR MORE DETAILS.
#
# YOU SHOULD HAVE RECEIVED A COPY OF THE GNU GENERAL PUBLIC LICENSE
# ALONG WITH THIS PROGRAM; IF NOT, WRITE TO EDF R&D CODE_ASTER,
#    1 AVENUE DU GENERAL DE GAULLE, 92141 CLAMART CEDEX, FRANCE.
# ======================================================================
# ======================================================================
# CUBE 3D
# PARALLELE: VALEUR CONSEILLEE 4 PROCS.
# ======================================================================
# person_in_charge: olivier.boiteau at edf.fr

DEBUT(CODE=_F(NOM='FETI007A',
NIV_PUB_WEB='INTERNET',),DEBUG=_F(SDVERI='OUI'))

MAIL1=LIRE_MAILLAGE(FORMAT='MED',);

MATERI=DEFI_MATERIAU(ELAS=_F(E=180000.,
                             NU=0.30,
                             RHO=7700.,
                             ALPHA=15.E-6,),);

MODM=AFFE_MODELE(MAILLAGE=MAIL1,
                 AFFE=_F(TOUT='OUI',
                         PHENOMENE='MECANIQUE',
                         MODELISATION='3D',),);

MAIL1=MODI_MAILLAGE(reuse =MAIL1,
                    MAILLAGE=MAIL1,
                    ORIE_PEAU_3D=_F(GROUP_MA='PRESS',),);

CH1=AFFE_CHAR_MECA(MODELE=MODM,
                   PRES_REP=_F(GROUP_MA='PRESS',
                               PRES=-20000.,),);

CH2=AFFE_CHAR_MECA(MODELE=MODM,
                   DDL_IMPO=_F(GROUP_NO='DDLIMP',
                               DX=0.0,
                               DY=0.0,
                               DZ=0.0,),);

# Partitionnement avec verification de la connexite

SDFETI2=DEFI_PART_FETI(MODELE=MODM,
                       NB_PART=4,
                       EXCIT=(_F(CHARGE=CH1,),
                              _F(CHARGE=CH2,),),
                       METHODE='SCOTCH',
                       CORRECTION_CONNEX='OUI',
                       POIDS_MAILLES=_F(GROUP_MA='PRESS',
                                        POIDS=10,),
                       NOM_GROUP_MA='TOTO',
                       TRAITER_BORDS='NON',
                       INFO=1,);

# Partitionnement avec gestion des mailles de bords

SDFETI3=DEFI_PART_FETI(MODELE=MODM,
                      NB_PART=16,
                      EXCIT=(_F(CHARGE=CH1,),
                             _F(CHARGE=CH2,),),
                      METHODE='SCOTCH',
                      CORRECTION_CONNEX='NON',
                      NOM_GROUP_MA='SDD',
                      TRAITER_BORDS='OUI',
                      INFO=1,);

# Partitionnement statique pour le test
SDFETI=DEFI_PART_OPS(INFO=1,
                    NOM='SD',
                    DEFI=(_F(GROUP_MA='SD0'),
                          _F(GROUP_MA='SD1'),
                          _F(GROUP_MA='SD2'),
                          _F(GROUP_MA='SD3'),
                          _F(GROUP_MA='SD4'),
                          _F(GROUP_MA='SD5'),
                          _F(GROUP_MA='SD6'),
                          _F(GROUP_MA='SD7'),
                          _F(GROUP_MA='SD8'),
                          _F(GROUP_MA='SD9'),
                          _F(GROUP_MA='SD10'),
                          _F(GROUP_MA='SD11'),
                          _F(GROUP_MA='SD12'),
                          _F(GROUP_MA='SD13'),
                          _F(GROUP_MA='SD14'),
                          _F(GROUP_MA='SD15')),
                    EXCIT=(_F(CHARGE=CH1),
                           _F(CHARGE=CH2)),
                    MODELE=MODM,
                    );


CHMAT=AFFE_MATERIAU(MAILLAGE=MAIL1,
                    AFFE=_F(TOUT='OUI',
                            MATER=MATERI,),);

RESU=MECA_STATIQUE(MODELE=MODM,
                   CHAM_MATER=CHMAT,
                   EXCIT=(_F(CHARGE=CH1,),
                          _F(CHARGE=CH2,),),
                   SOLVEUR=_F(METHODE='FETI',
                              PARTITION=SDFETI,
                              RESI_RELA=5.E-8,
                              NMAX_ITER=100,
                              NB_REORTHO_DD=100,
                              INFO_FETI='FFFFFFFFFFT',
                              NPREC=5,),
                   INFO=1,);

TEST_RESU(RESU=(_F(NUME_ORDRE=1,
                   GROUP_NO='N2',
                   RESULTAT=RESU,
                   NOM_CHAM='DEPL',
                   NOM_CMP='DX',
                   VALE_CALC=-1.6231429657600001E-20,
                   CRITERE='ABSOLU',
                   ),
                _F(NUME_ORDRE=1,
                   GROUP_NO='N2',
                   RESULTAT=RESU,
                   NOM_CHAM='DEPL',
                   NOM_CMP='DY',
                   VALE_CALC=-5.1237211561799998E-21,
                   CRITERE='ABSOLU',
                   ),
                _F(NUME_ORDRE=1,
                   GROUP_NO='N2',
                   RESULTAT=RESU,
                   NOM_CHAM='DEPL',
                   NOM_CMP='DZ',
                   VALE_CALC=-8.3330295250499993E-21,
                   CRITERE='ABSOLU',
                   ),
                _F(NUME_ORDRE=1,
                   GROUP_NO='N1',
                   RESULTAT=RESU,
                   NOM_CHAM='DEPL',
                   NOM_CMP='DX',
                   VALE_CALC=1.0179192829999999E-21,
                   CRITERE='ABSOLU',
                   ),
                _F(NUME_ORDRE=1,
                   GROUP_NO='N1',
                   RESULTAT=RESU,
                   NOM_CHAM='DEPL',
                   NOM_CMP='DY',
                   VALE_CALC=-5.9520580033700003E-20,
                   CRITERE='ABSOLU',
                   ),
                _F(NUME_ORDRE=1,
                   GROUP_NO='N1',
                   RESULTAT=RESU,
                   NOM_CHAM='DEPL',
                   NOM_CMP='DZ',
                   VALE_CALC=4.6064426733399999E-21,
                   CRITERE='ABSOLU',
                   ),
                _F(NUME_ORDRE=1,
                   GROUP_NO='N5',
                   RESULTAT=RESU,
                   NOM_CHAM='DEPL',
                   NOM_CMP='DX',
                   VALE_CALC=-9.3118583696399998E-20,
                   CRITERE='ABSOLU',
                   ),
                _F(NUME_ORDRE=1,
                   GROUP_NO='N5',
                   RESULTAT=RESU,
                   NOM_CHAM='DEPL',
                   NOM_CMP='DY',
                   VALE_CALC=-1.2652046411400001E-20,
                   CRITERE='ABSOLU',
                   ),
                _F(NUME_ORDRE=1,
                   GROUP_NO='N5',
                   RESULTAT=RESU,
                   NOM_CHAM='DEPL',
                   NOM_CMP='DZ',
                   VALE_CALC=-4.1696957771199999E-20,
                   CRITERE='ABSOLU',
                   ),
                _F(NUME_ORDRE=1,
                   GROUP_NO='N3',
                   RESULTAT=RESU,
                   NOM_CHAM='DEPL',
                   NOM_CMP='DX',
                   VALE_CALC=0.052002305923782,
                   CRITERE='RELATIF',
                   ),
                _F(NUME_ORDRE=1,
                   GROUP_NO='N3',
                   RESULTAT=RESU,
                   NOM_CHAM='DEPL',
                   NOM_CMP='DY',
                   VALE_CALC=2.0438603038089E-04,
                   CRITERE='RELATIF',),
                _F(NUME_ORDRE=1,
                   GROUP_NO='N3',
                   RESULTAT=RESU,
                   NOM_CHAM='DEPL',
                   NOM_CMP='DZ',
                   VALE_CALC=0.021402668764874,
                   CRITERE='RELATIF',
                   ),
                _F(NUME_ORDRE=1,
                   GROUP_NO='N7',
                   RESULTAT=RESU,
                   NOM_CHAM='DEPL',
                   NOM_CMP='DX',
                   VALE_CALC=0.051912619747356,
                   CRITERE='RELATIF',
                   ),
                _F(NUME_ORDRE=1,
                   GROUP_NO='N7',
                   RESULTAT=RESU,
                   NOM_CHAM='DEPL',
                   NOM_CMP='DY',
                   VALE_CALC=-0.058940276707527,
                   CRITERE='RELATIF',
                   ),
                _F(NUME_ORDRE=1,
                   GROUP_NO='N7',
                   RESULTAT=RESU,
                   NOM_CHAM='DEPL',
                   NOM_CMP='DZ',
                   VALE_CALC=0.039338770198068,
                   CRITERE='RELATIF',
                   ),
                _F(NUME_ORDRE=1,
                   GROUP_NO='N8',
                   RESULTAT=RESU,
                   NOM_CHAM='DEPL',
                   NOM_CMP='DX',
                   VALE_CALC=0.087941005983691,
                   CRITERE='RELATIF',
                   ),
                _F(NUME_ORDRE=1,
                   GROUP_NO='N8',
                   RESULTAT=RESU,
                   NOM_CHAM='DEPL',
                   NOM_CMP='DY',
                   VALE_CALC=-0.035913070971680,
                   CRITERE='RELATIF',
                   ),
                _F(NUME_ORDRE=1,
                   GROUP_NO='N8',
                   RESULTAT=RESU,
                   NOM_CHAM='DEPL',
                   NOM_CMP='DZ',
                   VALE_CALC=0.045090673989746,
                   CRITERE='RELATIF',
                   ),
                ),
          )

FIN();
