# TITRE FETI+STAT_NON_LINE SANS MODE RIGIDE ET SANS LAGRANGE
# ======================================================================
# COPYRIGHT (C) 1991 - 2012  EDF R&D                  WWW.CODE-ASTER.ORG
# THIS PROGRAM IS FREE SOFTWARE; YOU CAN REDISTRIBUTE IT AND/OR MODIFY
# IT UNDER THE TERMS OF THE GNU GENERAL PUBLIC LICENSE AS PUBLISHED BY
# THE FREE SOFTWARE FOUNDATION; EITHER VERSION 2 OF THE LICENSE, OR
# (AT YOUR OPTION) ANY LATER VERSION.
#
# THIS PROGRAM IS DISTRIBUTED IN THE HOPE THAT IT WILL BE USEFUL, BUT
# WITHOUT ANY WARRANTY; WITHOUT EVEN THE IMPLIED WARRANTY OF
# MERCHANTABILITY OR FITNESS FOR A PARTICULAR PURPOSE. SEE THE GNU
# GENERAL PUBLIC LICENSE FOR MORE DETAILS.
#
# YOU SHOULD HAVE RECEIVED A COPY OF THE GNU GENERAL PUBLIC LICENSE
# ALONG WITH THIS PROGRAM; IF NOT, WRITE TO EDF R&D CODE_ASTER,
#    1 AVENUE DU GENERAL DE GAULLE, 92141 CLAMART CEDEX, FRANCE.
# ======================================================================
# ======================================================================
# PLAQUE 2D MODELISEE VIA 24 TRIA3 ET DECOUPEE EN 4 SOUS-DOMAINES
# HOMOGENES AVEC UN NOEUD CENTRAL DE MULTIPLICITE 4.
# TEST INFORMATIQUE DU SOLVEUR FETI-1 SANS MODE DE CORPS RIGIDE ET SANS
# DIRICHLET IMPOSE, C'EST A DIRE PAS D'AFFE_CHAR_CINE/MECA. ON BLOQUE
# VIA DEUX MAILLES POINTS PAR SOUS-DOMAINES.
# PARALLELE: VALEUR CONSEILLEE 2 PROCS.
# ======================================================================
# person_in_charge: olivier.boiteau at edf.fr
DEBUT(CODE=_F(NOM='FETI001B', NIV_PUB_WEB='INTERNET'), DEBUG=_F(SDVERI='NON'))

CTRAC=DEFI_FONCTION(NOM_PARA='EPSI',
                    VALE=(0.004,4.0,0.006,5.0,0.009,5.5,0.02,6.0,),
                    PROL_DROITE='LINEAIRE',);

MATER=DEFI_MATERIAU(ELAS=_F(E=1000.0,
                         NU=0.3,),
                 TRACTION=_F(SIGM=CTRAC,),);
MAIL=LIRE_MAILLAGE(FORMAT='MED', )

MODM=AFFE_MODELE(MAILLAGE=MAIL,
           AFFE=(_F(GROUP_MA = 'STRU',PHENOMENE = 'MECANIQUE',
                    MODELISATION = 'D_PLAN',   ),
                 _F(GROUP_MA = 'RES',
                    MODELISATION = '2D_DIS_T',PHENOMENE='MECANIQUE'),))

CHCAR=AFFE_CARA_ELEM( MODELE=MODM,
                      DISCRET_2D=_F(GROUP_MA='RES',CARA = 'K_T_N',
                                    VALE = (1000.,0.,1000.,),),)
CHMAT=AFFE_MATERIAU(MAILLAGE=MAIL,
                    AFFE=_F(TOUT='OUI',MATER=MATER),)

RAMPE=DEFI_FONCTION(NOM_PARA='INST',
                    VALE=(0.0,0.0,
                          10.0,10.0),
                    PROL_DROITE='CONSTANT',
                    PROL_GAUCHE='LINEAIRE',)
CH1=AFFE_CHAR_MECA(MODELE=MODM,
                    PRES_REP=(_F(GROUP_MA='DDLI',PRES = 10.,),
                              _F(GROUP_MA='DDLI1',PRES = 3.,),),)

SDFETI=DEFI_PART_OPS(NOM='SD',
                     MODELE=MODM,
                     INFO=1,
                     DEFI=(_F(GROUP_MA = 'FETI1', GROUP_MA_BORD = 'B1',),
                           _F(GROUP_MA = 'FETI2', GROUP_MA_BORD = 'B2',),
                           _F(GROUP_MA = 'FETI3', GROUP_MA_BORD = 'B3',),
                           _F(GROUP_MA = 'FETI4', GROUP_MA_BORD = 'B4',),
                           ),
                     EXCIT=(_F(CHARGE=CH1,),),
                    );
INSTNL=DEFI_LIST_REEL(DEBUT=0.0,
                      INTERVALLE=(_F(JUSQU_A=1.,
                                     NOMBRE=1,),
                                  _F(JUSQU_A=1.1,
                                     NOMBRE=2,),),);
RESU=STAT_NON_LINE(MODELE=MODM,
                   CARA_ELEM=CHCAR,
                   CHAM_MATER=CHMAT,
                   SOLVEUR=_F(METHODE='FETI',
                              PARTITION=SDFETI,
                              RESI_RELA=1.E-8,
                              NMAX_ITER=30,
                              NB_REORTHO_DD=30,
                              NB_REORTHO_INST=10,),
                    EXCIT=(_F(CHARGE=CH1,FONC_MULT=RAMPE,),),
                    NEWTON=(_F(REAC_INCR=0,
                                PREDICTION='TANGENTE',
                                MATRICE='TANGENTE',
                                PAS_MINI_ELAS=0.0,
                                REAC_ITER=0,
                                REAC_ITER_ELAS=0)),
                    CONVERGENCE=(_F(RESI_GLOB_RELA=1.E-6,
                                     ARRET='OUI',
                                     ITER_GLOB_ELAS=20,
                                     ITER_GLOB_MAXI=20)),
                   INCREMENT=_F( LIST_INST = INSTNL),
                   COMP_INCR=(_F(RELATION='ELAS',GROUP_MA = 'RES',),
                              _F(RELATION='VMIS_ISOT_TRAC',GROUP_MA = 'STRU'))
                                  )

RESU=CALC_CHAMP(reuse=RESU,CONTRAINTE=('SIGM_ELNO'),RESULTAT=RESU)

RESU=CALC_CHAMP(reuse =RESU,
                 CONTRAINTE='SIGM_NOEU',
                 RESULTAT=RESU,);
TEST_RESU(RESU=(_F(NUME_ORDRE=1,
                   RESULTAT=RESU,
                   NOM_CHAM='SIGM_NOEU',
                   NOEUD='N1',
                   NOM_CMP='SIXX',
                   VALE_CALC=-1.0939590429045001,
                   CRITERE='RELATIF',
                   ),
                _F(NUME_ORDRE=1,
                   RESULTAT=RESU,
                   NOM_CHAM='SIGM_NOEU',
                   NOEUD='N1',
                   NOM_CMP='SIYY',
                   VALE_CALC=-0.40406237298960002,
                   CRITERE='RELATIF',
                   ),
                _F(NUME_ORDRE=1,
                   RESULTAT=RESU,
                   NOM_CHAM='SIGM_NOEU',
                   NOEUD='N1',
                   NOM_CMP='SIXY',
                   VALE_CALC=-0.52088575232875001,
                   CRITERE='RELATIF',
                   ),
                _F(NUME_ORDRE=1,
                   RESULTAT=RESU,
                   NOM_CHAM='DEPL',
                   NOEUD='N1',
                   NOM_CMP='DX',
                   VALE_CALC=3.6215077277015999E-3,
                   CRITERE='RELATIF',
                   ),
                _F(NUME_ORDRE=1,
                   RESULTAT=RESU,
                   NOM_CHAM='DEPL',
                   NOEUD='N1',
                   NOM_CMP='DY',
                   VALE_CALC=2.1308125736433999E-3,
                   CRITERE='RELATIF',
                   ),
                _F(NUME_ORDRE=3,
                   RESULTAT=RESU,
                   NOM_CHAM='SIGM_NOEU',
                   NOEUD='N1',
                   NOM_CMP='SIXX',
                   VALE_CALC=-1.1973971270242001,
                   CRITERE='RELATIF',
                   ),
                _F(NUME_ORDRE=3,
                   RESULTAT=RESU,
                   NOM_CHAM='SIGM_NOEU',
                   NOEUD='N1',
                   NOM_CMP='SIYY',
                   VALE_CALC=-0.44908814113084,
                   CRITERE='RELATIF',
                   ),
                _F(NUME_ORDRE=3,
                   RESULTAT=RESU,
                   NOM_CHAM='SIGM_NOEU',
                   NOEUD='N1',
                   NOM_CMP='SIXY',
                   VALE_CALC=-0.57707145856232001,
                   CRITERE='RELATIF',
                   ),
                _F(NUME_ORDRE=3,
                   RESULTAT=RESU,
                   NOM_CHAM='DEPL',
                   NOEUD='N1',
                   NOM_CMP='DX',
                   VALE_CALC=3.9800910711177001E-3,
                   CRITERE='RELATIF',
                   ),
                _F(NUME_ORDRE=3,
                   RESULTAT=RESU,
                   NOM_CHAM='DEPL',
                   NOEUD='N1',
                   NOM_CMP='DY',
                   VALE_CALC=2.347656550885E-3,
                   CRITERE='RELATIF',
                   ),
                ),
          )

TEST_RESU(RESU=(_F(NUME_ORDRE=1,
                   RESULTAT=RESU,
                   NOM_CHAM='SIGM_NOEU',
                   NOEUD='N3',
                   NOM_CMP='SIXX',
                   VALE_CALC=-1.4498580680155999,
                   CRITERE='RELATIF',
                   ),
                _F(NUME_ORDRE=1,
                   RESULTAT=RESU,
                   NOM_CHAM='SIGM_NOEU',
                   NOEUD='N3',
                   NOM_CMP='SIYY',
                   VALE_CALC=-0.35320514070202003,
                   CRITERE='RELATIF',
                   ),
                _F(NUME_ORDRE=1,
                   RESULTAT=RESU,
                   NOM_CHAM='SIGM_NOEU',
                   NOEUD='N3',
                   NOM_CMP='SIXY',
                   VALE_CALC=-0.93082831094912999,
                   CRITERE='RELATIF',
                   ),
                _F(NUME_ORDRE=1,
                   RESULTAT=RESU,
                   NOM_CHAM='DEPL',
                   NOEUD='N3',
                   NOM_CMP='DX',
                   VALE_CALC=5.8898582500189998E-3,
                   CRITERE='RELATIF',
                   ),
                _F(NUME_ORDRE=1,
                   RESULTAT=RESU,
                   NOM_CHAM='DEPL',
                   NOEUD='N3',
                   NOM_CMP='DY',
                   VALE_CALC=3.4467604924733998E-3,
                   CRITERE='RELATIF',
                   ),
                _F(NUME_ORDRE=3,
                   RESULTAT=RESU,
                   NOM_CHAM='SIGM_NOEU',
                   NOEUD='N3',
                   NOM_CMP='SIXX',
                   VALE_CALC=-1.5921062231059,
                   CRITERE='RELATIF',
                   ),
                _F(NUME_ORDRE=3,
                   RESULTAT=RESU,
                   NOM_CHAM='SIGM_NOEU',
                   NOEUD='N3',
                   NOM_CMP='SIYY',
                   VALE_CALC=-0.39248900212082,
                   CRITERE='RELATIF',
                   ),
                _F(NUME_ORDRE=3,
                   RESULTAT=RESU,
                   NOM_CHAM='SIGM_NOEU',
                   NOEUD='N3',
                   NOM_CMP='SIXY',
                   VALE_CALC=-1.0249836783224,
                   CRITERE='RELATIF',
                   ),
                _F(NUME_ORDRE=3,
                   RESULTAT=RESU,
                   NOM_CHAM='DEPL',
                   NOEUD='N3',
                   NOM_CMP='DX',
                   VALE_CALC=6.443907309234E-3,
                   CRITERE='RELATIF',
                   ),
                _F(NUME_ORDRE=3,
                   RESULTAT=RESU,
                   NOM_CHAM='DEPL',
                   NOEUD='N3',
                   NOM_CMP='DY',
                   VALE_CALC=3.8629659037627E-3,
                   CRITERE='RELATIF',
                   ),
                ),
          )

TEST_RESU(RESU=(_F(NUME_ORDRE=1,
                   RESULTAT=RESU,
                   NOM_CHAM='SIGM_NOEU',
                   NOEUD='N2',
                   NOM_CMP='SIXX',
                   VALE_CALC=-1.3603001172613001,
                   CRITERE='RELATIF',
                   ),
                _F(NUME_ORDRE=1,
                   RESULTAT=RESU,
                   NOM_CHAM='SIGM_NOEU',
                   NOEUD='N2',
                   NOM_CMP='SIYY',
                   VALE_CALC=-0.27933507983375999,
                   CRITERE='RELATIF',
                   ),
                _F(NUME_ORDRE=1,
                   RESULTAT=RESU,
                   NOM_CHAM='SIGM_NOEU',
                   NOEUD='N2',
                   NOM_CMP='SIXY',
                   VALE_CALC=-0.36016892579218002,
                   CRITERE='RELATIF',
                   ),
                _F(NUME_ORDRE=1,
                   RESULTAT=RESU,
                   NOM_CHAM='DEPL',
                   NOEUD='N2',
                   NOM_CMP='DX',
                   VALE_CALC=1.4567654440972E-3,
                   CRITERE='RELATIF',
                   ),
                _F(NUME_ORDRE=1,
                   RESULTAT=RESU,
                   NOM_CHAM='DEPL',
                   NOEUD='N2',
                   NOM_CMP='DY',
                   VALE_CALC=2.1316897737783E-4,
                   CRITERE='RELATIF',
                   ),
                _F(NUME_ORDRE=3,
                   RESULTAT=RESU,
                   NOM_CHAM='SIGM_NOEU',
                   NOEUD='N2',
                   NOM_CMP='SIXX',
                   VALE_CALC=-1.4863005427064999,
                   CRITERE='RELATIF',
                   ),
                _F(NUME_ORDRE=3,
                   RESULTAT=RESU,
                   NOM_CHAM='SIGM_NOEU',
                   NOEUD='N2',
                   NOM_CMP='SIYY',
                   VALE_CALC=-0.31068448618462002,
                   CRITERE='RELATIF',
                   ),
                _F(NUME_ORDRE=3,
                   RESULTAT=RESU,
                   NOM_CHAM='SIGM_NOEU',
                   NOEUD='N2',
                   NOM_CMP='SIXY',
                   VALE_CALC=-0.39914249245101002,
                   CRITERE='RELATIF',
                   ),
                _F(NUME_ORDRE=3,
                   RESULTAT=RESU,
                   NOM_CHAM='DEPL',
                   NOEUD='N2',
                   NOM_CMP='DX',
                   VALE_CALC=1.5906729101105E-3,
                   CRITERE='RELATIF',
                   ),
                _F(NUME_ORDRE=3,
                   RESULTAT=RESU,
                   NOM_CHAM='DEPL',
                   NOEUD='N2',
                   NOM_CMP='DY',
                   VALE_CALC=2.3834873248508999E-4,
                   CRITERE='RELATIF',
                   ),
                ),
          )

TEST_RESU(RESU=(_F(NUME_ORDRE=1,
                   RESULTAT=RESU,
                   NOM_CHAM='SIGM_NOEU',
                   NOEUD='N7',
                   NOM_CMP='SIXX',
                   VALE_CALC=-0.18508357151175001,
                   CRITERE='RELATIF',
                   ),
                _F(NUME_ORDRE=1,
                   RESULTAT=RESU,
                   NOM_CHAM='SIGM_NOEU',
                   NOEUD='N7',
                   NOM_CMP='SIYY',
                   VALE_CALC=-1.1429068791693,
                   CRITERE='RELATIF',
                   ),
                _F(NUME_ORDRE=1,
                   RESULTAT=RESU,
                   NOM_CHAM='SIGM_NOEU',
                   NOEUD='N7',
                   NOM_CMP='SIXY',
                   VALE_CALC=-0.44194880202074999,
                   CRITERE='RELATIF',
                   ),
                _F(NUME_ORDRE=1,
                   RESULTAT=RESU,
                   NOM_CHAM='DEPL',
                   NOEUD='N7',
                   NOM_CMP='DX',
                   VALE_CALC=5.2764220194829996E-3,
                   CRITERE='RELATIF',
                   ),
                _F(NUME_ORDRE=1,
                   RESULTAT=RESU,
                   NOM_CHAM='DEPL',
                   NOEUD='N7',
                   NOM_CMP='DY',
                   VALE_CALC=4.1363158313603996E-3,
                   CRITERE='RELATIF',
                   ),
                _F(NUME_ORDRE=3,
                   RESULTAT=RESU,
                   NOM_CHAM='SIGM_NOEU',
                   NOEUD='N7',
                   NOM_CMP='SIXX',
                   VALE_CALC=-0.20985882822008001,
                   CRITERE='RELATIF',
                   ),
                _F(NUME_ORDRE=3,
                   RESULTAT=RESU,
                   NOM_CHAM='SIGM_NOEU',
                   NOEUD='N7',
                   NOM_CMP='SIYY',
                   VALE_CALC=-1.2494391273856,
                   CRITERE='RELATIF',
                   ),
                _F(NUME_ORDRE=3,
                   RESULTAT=RESU,
                   NOM_CHAM='SIGM_NOEU',
                   NOEUD='N7',
                   NOM_CMP='SIXY',
                   VALE_CALC=-0.47778309797989998,
                   CRITERE='RELATIF',
                   ),
                _F(NUME_ORDRE=3,
                   RESULTAT=RESU,
                   NOM_CHAM='DEPL',
                   NOEUD='N7',
                   NOM_CMP='DX',
                   VALE_CALC=5.7923076239450996E-3,
                   CRITERE='RELATIF',
                   ),
                _F(NUME_ORDRE=3,
                   RESULTAT=RESU,
                   NOM_CHAM='DEPL',
                   NOEUD='N7',
                   NOM_CMP='DY',
                   VALE_CALC=4.5530490144035001E-3,
                   CRITERE='RELATIF',
                   ),
                ),
          )

FIN( )
#
