# MODIF  DATE 04/01/2012   AUTEUR SELLENET N.SELLENET 
# ======================================================================
# TITRE VALIDATION ARCHITECTURE PARTITIONNEMENT SCOTCH ET CALCUL FETI
# feti007a.para = tps_job 190 mem_job 512Mo ncpus 4 liste_test SI
#            CONFIGURATION MANAGEMENT OF EDF VERSION
# ======================================================================
# COPYRIGHT (C) 1991 - 2012  EDF R&D                  WWW.CODE-ASTER.ORG
# THIS PROGRAM IS FREE SOFTWARE; YOU CAN REDISTRIBUTE IT AND/OR MODIFY
# IT UNDER THE TERMS OF THE GNU GENERAL PUBLIC LICENSE AS PUBLISHED BY
# THE FREE SOFTWARE FOUNDATION; EITHER VERSION 2 OF THE LICENSE, OR
# (AT YOUR OPTION) ANY LATER VERSION.
#
# THIS PROGRAM IS DISTRIBUTED IN THE HOPE THAT IT WILL BE USEFUL, BUT
# WITHOUT ANY WARRANTY; WITHOUT EVEN THE IMPLIED WARRANTY OF
# MERCHANTABILITY OR FITNESS FOR A PARTICULAR PURPOSE. SEE THE GNU
# GENERAL PUBLIC LICENSE FOR MORE DETAILS.
#
# YOU SHOULD HAVE RECEIVED A COPY OF THE GNU GENERAL PUBLIC LICENSE
# ALONG WITH THIS PROGRAM; IF NOT, WRITE TO EDF R&D CODE_ASTER,
#    1 AVENUE DU GENERAL DE GAULLE, 92141 CLAMART CEDEX, FRANCE.
# ======================================================================
# ======================================================================
# CUBE 3D
# PARALLELE: VALEUR CONSEILLEE 4 PROCS.
# ======================================================================
# RESPONSABLE BOITEAU O.BOITEAU

DEBUT(CODE=_F(NOM='FETI007A',
              NIV_PUB_WEB='INTERNET',));

MAIL1=LIRE_MAILLAGE(FORMAT='MED',);

MATERI=DEFI_MATERIAU(ELAS=_F(E=180000.,
                             NU=0.30,
                             RHO=7700.,
                             ALPHA=15.E-6,),);

MODM=AFFE_MODELE(MAILLAGE=MAIL1,
                 AFFE=_F(TOUT='OUI',
                         PHENOMENE='MECANIQUE',
                         MODELISATION='3D',),);

MAIL1=MODI_MAILLAGE(reuse =MAIL1,
                    MAILLAGE=MAIL1,
                    ORIE_PEAU_3D=_F(GROUP_MA='PRESS',),);

CH1=AFFE_CHAR_MECA(MODELE=MODM,
                   PRES_REP=_F(GROUP_MA='PRESS',
                               PRES=-20000.,),);

CH2=AFFE_CHAR_MECA(MODELE=MODM,
                   DDL_IMPO=_F(GROUP_NO='DDLIMP',
                               DX=0.0,
                               DY=0.0,
                               DZ=0.0,),);

# Partitionnement avec verification de la connexite

SDFETI2=DEFI_PART_FETI(MODELE=MODM,
                       NB_PART=4,
                       EXCIT=(_F(CHARGE=CH1,),
                              _F(CHARGE=CH2,),),
                       METHODE='SCOTCH',
                       CORRECTION_CONNEX='OUI',
                       POIDS_MAILLES=_F(GROUP_MA='PRESS',
                                        POIDS=10,),
                       NOM_GROUP_MA='TOTO',
                       TRAITER_BORDS='NON',
                       INFO=1,);

# IMPR_RESU(UNITE=99,
#           RESU=_F(MAILLAGE=MAIL1,),);

# Partitionnement avec gestion des mailles de bords

SDFETI3=DEFI_PART_FETI(MODELE=MODM,
                      NB_PART=16,
                      EXCIT=(_F(CHARGE=CH1,),
                             _F(CHARGE=CH2,),),
                      METHODE='SCOTCH',
                      CORRECTION_CONNEX='NON',
#                      NOM_GROUP_MA='SD',
                      NOM_GROUP_MA='SDD',
                      TRAITER_BORDS='OUI',
                      INFO=1,);

# IMPR_RESU(UNITE=98,
#           RESU=_F(MAILLAGE=MAIL1,),);

# Partitionnement statique pour le test
SDFETI=DEFI_PART_OPS(INFO=1,
                    NOM='SD',
                    DEFI=(_F(GROUP_MA='SD0'),
                          _F(GROUP_MA='SD1'),
                          _F(GROUP_MA='SD2'),
                          _F(GROUP_MA='SD3'),
                          _F(GROUP_MA='SD4'),
                          _F(GROUP_MA='SD5'),
                          _F(GROUP_MA='SD6'),
                          _F(GROUP_MA='SD7'),
                          _F(GROUP_MA='SD8'),
                          _F(GROUP_MA='SD9'),
                          _F(GROUP_MA='SD10'),
                          _F(GROUP_MA='SD11'),
                          _F(GROUP_MA='SD12'),
                          _F(GROUP_MA='SD13'),
                          _F(GROUP_MA='SD14'),
                          _F(GROUP_MA='SD15')),
                    EXCIT=(_F(CHARGE=CH1),
                           _F(CHARGE=CH2)),
                    MODELE=MODM,
                    );


CHMAT=AFFE_MATERIAU(MAILLAGE=MAIL1,
                    AFFE=_F(TOUT='OUI',
                            MATER=MATERI,),);

RESU=MECA_STATIQUE(MODELE=MODM,
                   CHAM_MATER=CHMAT,
                   EXCIT=(_F(CHARGE=CH1,),
                          _F(CHARGE=CH2,),),
                   SOLVEUR=_F(METHODE='FETI',
                              PARTITION=SDFETI,
                              RESI_RELA=1.E-8,
                              NMAX_ITER=100,
                              NB_REORTHO_DD=100,
                              INFO_FETI='FFFFFFFFFFT',
                              NPREC=5,),
                   INFO=1,);

TEST_RESU(RESU=(_F(RESULTAT=RESU,
                   NUME_ORDRE=1,
                   NOM_CHAM='DEPL',
                   NOM_CMP='DX',
                   GROUP_NO='TEST1',
                   VALE=-1.62314296576e-20,
                   CRITERE='ABSOLU',
                   PRECISION=1e-08,
                   REFERENCE='NON_REGRESSION',),
                _F(RESULTAT=RESU,
                   NUME_ORDRE=1,
                   NOM_CHAM='DEPL',
                   NOM_CMP='DY',
                   GROUP_NO='TEST1',
                   VALE=-5.12372115618e-21,
                   CRITERE='ABSOLU',
                   PRECISION=1e-08,
                   REFERENCE='NON_REGRESSION',),
                _F(RESULTAT=RESU,
                   NUME_ORDRE=1,
                   NOM_CHAM='DEPL',
                   NOM_CMP='DZ',
                   GROUP_NO='TEST1',
                   VALE=-8.33302952505e-21,
                   CRITERE='ABSOLU',
                   PRECISION=1e-08,
                   REFERENCE='NON_REGRESSION',),
                _F(RESULTAT=RESU,
                   NUME_ORDRE=1,
                   NOM_CHAM='DEPL',
                   NOM_CMP='DX',
                   GROUP_NO='TEST2',
                   VALE=1.017919283e-21,
                   CRITERE='ABSOLU',
                   PRECISION=1e-08,
                   REFERENCE='NON_REGRESSION',),
                _F(RESULTAT=RESU,
                   NUME_ORDRE=1,
                   NOM_CHAM='DEPL',
                   NOM_CMP='DY',
                   GROUP_NO='TEST2',
                   VALE=-5.95205800337e-20,
                   CRITERE='ABSOLU',
                   PRECISION=1e-08,
                   REFERENCE='NON_REGRESSION',),
                _F(RESULTAT=RESU,
                   NUME_ORDRE=1,
                   NOM_CHAM='DEPL',
                   NOM_CMP='DZ',
                   GROUP_NO='TEST2',
                   VALE=4.60644267334e-21,
                   CRITERE='ABSOLU',
                   PRECISION=1e-08,
                   REFERENCE='NON_REGRESSION',),
                _F(RESULTAT=RESU,
                   NUME_ORDRE=1,
                   NOM_CHAM='DEPL',
                   NOM_CMP='DX',
                   GROUP_NO='TEST3',
                   VALE=-9.31185836964e-20,
                   CRITERE='ABSOLU',
                   PRECISION=1e-08,
                   REFERENCE='NON_REGRESSION',),
                _F(RESULTAT=RESU,
                   NUME_ORDRE=1,
                   NOM_CHAM='DEPL',
                   NOM_CMP='DY',
                   GROUP_NO='TEST3',
                   VALE=-1.26520464114e-20,
                   CRITERE='ABSOLU',
                   PRECISION=1e-08,
                   REFERENCE='NON_REGRESSION',),
                _F(RESULTAT=RESU,
                   NUME_ORDRE=1,
                   NOM_CHAM='DEPL',
                   NOM_CMP='DZ',
                   GROUP_NO='TEST3',
                   VALE=-4.16969577712e-20,
                   CRITERE='ABSOLU',
                   PRECISION=1e-08,
                   REFERENCE='NON_REGRESSION',),
                _F(RESULTAT=RESU,
                   NUME_ORDRE=1,
                   NOM_CHAM='DEPL',
                   NOM_CMP='DX',
                   GROUP_NO='TEST4',
                   VALE=0.0123261771964,
                   CRITERE='RELATIF',
                   PRECISION=0.001,
                   REFERENCE='NON_REGRESSION',),
                _F(RESULTAT=RESU,
                   NUME_ORDRE=1,
                   NOM_CHAM='DEPL',
                   NOM_CMP='DY',
                   GROUP_NO='TEST4',
                   VALE=6.95424198954e-05,
                   CRITERE='RELATIF',
                   PRECISION=0.015,
                   REFERENCE='NON_REGRESSION',),
                _F(RESULTAT=RESU,
                   NUME_ORDRE=1,
                   NOM_CHAM='DEPL',
                   NOM_CMP='DZ',
                   GROUP_NO='TEST4',
                   VALE=0.00489739084037,
                   CRITERE='RELATIF',
                   PRECISION=0.001,
                   REFERENCE='NON_REGRESSION',),
                _F(RESULTAT=RESU,
                   NUME_ORDRE=1,
                   NOM_CHAM='DEPL',
                   NOM_CMP='DX',
                   GROUP_NO='TEST5',
                   VALE=0.0123140551797,
                   CRITERE='RELATIF',
                   PRECISION=0.001,
                   REFERENCE='NON_REGRESSION',),
                _F(RESULTAT=RESU,
                   NUME_ORDRE=1,
                   NOM_CHAM='DEPL',
                   NOM_CMP='DY',
                   GROUP_NO='TEST5',
                   VALE=-0.0138151466905,
                   CRITERE='RELATIF',
                   PRECISION=0.001,
                   REFERENCE='NON_REGRESSION',),
                _F(RESULTAT=RESU,
                   NUME_ORDRE=1,
                   NOM_CHAM='DEPL',
                   NOM_CMP='DZ',
                   GROUP_NO='TEST5',
                   VALE=0.00889835825981,
                   CRITERE='RELATIF',
                   PRECISION=0.001,
                   REFERENCE='NON_REGRESSION',),
                _F(RESULTAT=RESU,
                   NUME_ORDRE=1,
                   NOM_CHAM='DEPL',
                   NOM_CMP='DX',
                   GROUP_NO='TEST6',
                   VALE=0.0224637129853,
                   CRITERE='RELATIF',
                   PRECISION=0.001,
                   REFERENCE='NON_REGRESSION',),
                _F(RESULTAT=RESU,
                   NUME_ORDRE=1,
                   NOM_CHAM='DEPL',
                   NOM_CMP='DY',
                   GROUP_NO='TEST6',
                   VALE=-0.00940852558955,
                   CRITERE='RELATIF',
                   PRECISION=0.001,
                   REFERENCE='NON_REGRESSION',),
                _F(RESULTAT=RESU,
                   NUME_ORDRE=1,
                   NOM_CHAM='DEPL',
                   NOM_CMP='DZ',
                   GROUP_NO='TEST6',
                   VALE=0.0109880189526,
                   CRITERE='RELATIF',
                   PRECISION=0.001,
                   REFERENCE='NON_REGRESSION',),),);

FIN();
