# TITRE FETI+STAT_NON_LINE AVEC MODES RIGIDES ET DIRICHLETS SIMPLES
# ======================================================================
# COPYRIGHT (C) 1991 - 2012  EDF R&D                  WWW.CODE-ASTER.ORG
# THIS PROGRAM IS FREE SOFTWARE; YOU CAN REDISTRIBUTE IT AND/OR MODIFY
# IT UNDER THE TERMS OF THE GNU GENERAL PUBLIC LICENSE AS PUBLISHED BY
# THE FREE SOFTWARE FOUNDATION; EITHER VERSION 2 OF THE LICENSE, OR
# (AT YOUR OPTION) ANY LATER VERSION.
#
# THIS PROGRAM IS DISTRIBUTED IN THE HOPE THAT IT WILL BE USEFUL, BUT
# WITHOUT ANY WARRANTY; WITHOUT EVEN THE IMPLIED WARRANTY OF
# MERCHANTABILITY OR FITNESS FOR A PARTICULAR PURPOSE. SEE THE GNU
# GENERAL PUBLIC LICENSE FOR MORE DETAILS.
#
# YOU SHOULD HAVE RECEIVED A COPY OF THE GNU GENERAL PUBLIC LICENSE
# ALONG WITH THIS PROGRAM; IF NOT, WRITE TO EDF R&D CODE_ASTER,
#    1 AVENUE DU GENERAL DE GAULLE, 92141 CLAMART CEDEX, FRANCE.
# ======================================================================
# ======================================================================
# PLAQUE 2D MODELISEE VIA 24 TRIA3 ET DECOUPEE EN 4 SOUS-DOMAINES
# HOMOGENES AVEC UN NOEUD CENTRAL DE MULTIPLICITE 4.
# TEST INFORMATIQUE DU SOLVEUR FETI-1 AVEC 6 MODE DE CORPS RIGIDES
# (SOUS-DOMAINES 2 ET 4 FLOTTANTS)
# DEUX DIRICHLETS SIMPLES IMPOSES VIA AFFE_CHAR_MECA.
# PARALLELE: VALEUR CONSEILLEE 2 PROCS.
# ======================================================================
# person_in_charge: olivier.boiteau at edf.fr
DEBUT(CODE=_F(NOM='FETI003D',NIV_PUB_WEB='INTERNET'),DEBUG=_F(SDVERI='NON'))

CTRAC=DEFI_FONCTION(NOM_PARA='EPSI',
                    VALE=(0.004,4.0,0.006,5.0,0.009,5.5,0.02,6.0,),
                    PROL_DROITE='LINEAIRE',);

MATER=DEFI_MATERIAU(ELAS=_F(E=1000.0,
                            NU=0.3,),
                            TRACTION=_F(SIGM=CTRAC,),);
MAIL=LIRE_MAILLAGE(FORMAT='MED', )

MODM=AFFE_MODELE(MAILLAGE=MAIL,
                 AFFE=(_F(GROUP_MA = 'STRU',PHENOMENE = 'MECANIQUE',
                          MODELISATION = 'D_PLAN',   ),
                 ))

CHMAT=AFFE_MATERIAU(MAILLAGE=MAIL,
                    AFFE=(_F(TOUT='OUI',MATER=MATER),))

RAMPE=DEFI_FONCTION(NOM_PARA='INST',
                    VALE=(0.0,0.0,
                          10.0,0.1),
                    PROL_DROITE='CONSTANT',
                    PROL_GAUCHE='LINEAIRE',)
CH1=AFFE_CHAR_MECA(MODELE=MODM,
                    PRES_REP=(_F(GROUP_MA=('DDLI1'),PRES = 2.,),),)

CH2=AFFE_CHAR_MECA(MODELE=MODM,
                    FACE_IMPO=(_F(MAILLE=('M25'),DY = -1.,),),)

CH3=AFFE_CHAR_MECA(MODELE=MODM,
                    DDL_IMPO=(_F( GROUP_NO=('DIRI1'),DX=0.0,),),)

CH4=AFFE_CHAR_MECA(MODELE=MODM,
                    DDL_IMPO=(_F( GROUP_NO=('DIRI13'),DX=2.0, DY=-3.0),),)

SDFETI = DEFI_PART_FETI(
                MODELE=MODM,
                NB_PART=4,
                EXCIT=(_F(CHARGE=CH1),
                       _F(CHARGE=CH2),
                       _F(CHARGE=CH3),
                       _F(CHARGE=CH4),),
                METHODE='SCOTCH',
                CORRECTION_CONNEX='NON',
                NOM_GROUP_MA='SD',
                INFO=1,
                TRAITER_BORDS='OUI',
                );

INSTNL=DEFI_LIST_REEL(DEBUT=0.0,
                      INTERVALLE=(_F(JUSQU_A=1.,
                                     NOMBRE=1,),
                                  _F(JUSQU_A=1.1,
                                     NOMBRE=2,),),);
RESU=STAT_NON_LINE(MODELE=MODM,
                   CHAM_MATER=CHMAT,
                   SOLVEUR=_F(METHODE='FETI',
                              PARTITION=SDFETI,
                              RESI_RELA=1.E-8,
                              NMAX_ITER=30,
                              NB_REORTHO_DD=30,
                              NB_REORTHO_INST=10,),
                    EXCIT=(_F(CHARGE=CH1,FONC_MULT=RAMPE,),
                           _F(CHARGE=CH2,FONC_MULT=RAMPE,),
                           _F(CHARGE=CH3,FONC_MULT=RAMPE,),
                           _F(CHARGE=CH4,FONC_MULT=RAMPE,),
                           ),
                    NEWTON=(_F(REAC_INCR=0,
                                PREDICTION='TANGENTE',
                                MATRICE='TANGENTE',
                                PAS_MINI_ELAS=0.0,
                                REAC_ITER=0,
                                REAC_ITER_ELAS=0)),
                    CONVERGENCE=(_F(RESI_GLOB_RELA=1.E-6,
                                     ARRET='OUI',
                                     ITER_GLOB_ELAS=20,
                                     ITER_GLOB_MAXI=20)),
                   INCREMENT=_F( LIST_INST = INSTNL),
                   COMP_INCR=(
                   _F(RELATION='VMIS_ISOT_TRAC',GROUP_MA = 'STRU')))

RESU=CALC_CHAMP(reuse=RESU,CONTRAINTE=('SIGM_ELNO'),RESULTAT=RESU)

RESU=CALC_CHAMP(reuse =RESU,
                 CONTRAINTE='SIGM_NOEU',
                 RESULTAT=RESU,);
TEST_RESU(RESU=(_F(NUME_ORDRE=1,
                   RESULTAT=RESU,
                   NOM_CHAM='SIGM_NOEU',
                   NOEUD='N1',
                   NOM_CMP='SIXX',
                   VALE_CALC=-5.0225848070488004,
                   CRITERE='RELATIF',
                   ),
                _F(NUME_ORDRE=1,
                   RESULTAT=RESU,
                   NOM_CHAM='SIGM_NOEU',
                   NOEUD='N1',
                   NOM_CMP='SIYY',
                   VALE_CALC=-1.0400331757843999,
                   CRITERE='RELATIF',
                   ),
                _F(NUME_ORDRE=1,
                   RESULTAT=RESU,
                   NOM_CHAM='SIGM_NOEU',
                   NOEUD='N1',
                   NOM_CMP='SIXY',
                   VALE_CALC=-0.20652243839527001,
                   CRITERE='RELATIF',
                   ),
                _F(NUME_ORDRE=1,
                   RESULTAT=RESU,
                   NOM_CHAM='DEPL',
                   NOEUD='N1',
                   NOM_CMP='DX',
                   VALE_CALC=0.010169981662064001,
                   CRITERE='RELATIF',
                   ),
                _F(NUME_ORDRE=1,
                   RESULTAT=RESU,
                   NOM_CHAM='DEPL',
                   NOEUD='N1',
                   NOM_CMP='DY',
                   VALE_CALC=-0.022694185230734,
                   CRITERE='RELATIF',
                   ),
                _F(NUME_ORDRE=3,
                   RESULTAT=RESU,
                   NOM_CHAM='SIGM_NOEU',
                   NOEUD='N1',
                   NOM_CMP='SIXX',
                   VALE_CALC=-5.3131378337711004,
                   CRITERE='RELATIF',
                   ),
                _F(NUME_ORDRE=3,
                   RESULTAT=RESU,
                   NOM_CHAM='SIGM_NOEU',
                   NOEUD='N1',
                   NOM_CMP='SIYY',
                   VALE_CALC=-1.1327522688367999,
                   CRITERE='RELATIF',
                   ),
                _F(NUME_ORDRE=3,
                   RESULTAT=RESU,
                   NOM_CHAM='SIGM_NOEU',
                   NOEUD='N1',
                   NOM_CMP='SIXY',
                   VALE_CALC=-0.24441122701796,
                   CRITERE='RELATIF',
                   ),
                _F(NUME_ORDRE=3,
                   RESULTAT=RESU,
                   NOM_CHAM='DEPL',
                   NOEUD='N1',
                   NOM_CMP='DX',
                   VALE_CALC=0.011178294567150001,
                   CRITERE='RELATIF',
                   ),
                _F(NUME_ORDRE=3,
                   RESULTAT=RESU,
                   NOM_CHAM='DEPL',
                   NOEUD='N1',
                   NOM_CMP='DY',
                   VALE_CALC=-0.024709357514673,
                   CRITERE='RELATIF',
                   ),
                ),
          )

TEST_RESU(RESU=(_F(NUME_ORDRE=1,
                   RESULTAT=RESU,
                   NOM_CHAM='SIGM_NOEU',
                   NOEUD='N3',
                   NOM_CMP='SIXX',
                   VALE_CALC=-0.26221652179197003,
                   CRITERE='RELATIF',
                   ),
                _F(NUME_ORDRE=1,
                   RESULTAT=RESU,
                   NOM_CHAM='SIGM_NOEU',
                   NOEUD='N3',
                   NOM_CMP='SIYY',
                   VALE_CALC=0.30710718169225998,
                   CRITERE='RELATIF',
                   ),
                _F(NUME_ORDRE=1,
                   RESULTAT=RESU,
                   NOM_CHAM='SIGM_NOEU',
                   NOEUD='N3',
                   NOM_CMP='SIXY',
                   VALE_CALC=-0.16031149841677,
                   CRITERE='RELATIF',
                   ),
                _F(NUME_ORDRE=1,
                   RESULTAT=RESU,
                   NOM_CHAM='DEPL',
                   NOEUD='N3',
                   NOM_CMP='DX',
                   VALE_CALC=0.020582321744173002,
                   CRITERE='RELATIF',
                   ),
                _F(NUME_ORDRE=1,
                   RESULTAT=RESU,
                   NOM_CHAM='DEPL',
                   NOEUD='N3',
                   NOM_CMP='DY',
                   VALE_CALC=-0.031165607598543001,
                   CRITERE='RELATIF',
                   ),
                _F(NUME_ORDRE=3,
                   RESULTAT=RESU,
                   NOM_CHAM='SIGM_NOEU',
                   NOEUD='N3',
                   NOM_CMP='SIXX',
                   VALE_CALC=-0.27404803459791,
                   CRITERE='RELATIF',
                   ),
                _F(NUME_ORDRE=3,
                   RESULTAT=RESU,
                   NOM_CHAM='SIGM_NOEU',
                   NOEUD='N3',
                   NOM_CMP='SIYY',
                   VALE_CALC=0.35806248679322,
                   CRITERE='RELATIF',
                   ),
                _F(NUME_ORDRE=3,
                   RESULTAT=RESU,
                   NOM_CHAM='SIGM_NOEU',
                   NOEUD='N3',
                   NOM_CMP='SIXY',
                   VALE_CALC=-0.18901249207206999,
                   CRITERE='RELATIF',
                   ),
                _F(NUME_ORDRE=3,
                   RESULTAT=RESU,
                   NOM_CHAM='DEPL',
                   NOEUD='N3',
                   NOM_CMP='DX',
                   VALE_CALC=0.022705669473884998,
                   CRITERE='RELATIF',
                   ),
                _F(NUME_ORDRE=3,
                   RESULTAT=RESU,
                   NOM_CHAM='DEPL',
                   NOEUD='N3',
                   NOM_CMP='DY',
                   VALE_CALC=-0.034106330678548,
                   CRITERE='RELATIF',
                   ),
                ),
          )

TEST_RESU(RESU=(_F(NUME_ORDRE=1,
                   RESULTAT=RESU,
                   NOM_CHAM='SIGM_NOEU',
                   NOEUD='N2',
                   NOM_CMP='SIXX',
                   VALE_CALC=-1.4961429881013,
                   CRITERE='RELATIF',
                   ),
                _F(NUME_ORDRE=1,
                   RESULTAT=RESU,
                   NOM_CHAM='SIGM_NOEU',
                   NOEUD='N2',
                   NOM_CMP='SIYY',
                   VALE_CALC=-0.22075830228716001,
                   CRITERE='RELATIF',
                   ),
                _F(NUME_ORDRE=1,
                   RESULTAT=RESU,
                   NOM_CHAM='SIGM_NOEU',
                   NOEUD='N2',
                   NOM_CMP='SIXY',
                   VALE_CALC=-1.0244358285909001,
                   CRITERE='RELATIF',
                   ),
                _F(NUME_ORDRE=1,
                   RESULTAT=RESU,
                   NOM_CHAM='DEPL',
                   NOEUD='N2',
                   NOM_CMP='DX',
                   VALE_CALC=0.018751736969559001,
                   CRITERE='RELATIF',
                   ),
                _F(NUME_ORDRE=1,
                   RESULTAT=RESU,
                   NOM_CHAM='DEPL',
                   NOEUD='N2',
                   NOM_CMP='DY',
                   VALE_CALC=-0.026980392976366001,
                   CRITERE='RELATIF',
                   ),
                _F(NUME_ORDRE=3,
                   RESULTAT=RESU,
                   NOM_CHAM='SIGM_NOEU',
                   NOEUD='N2',
                   NOM_CMP='SIXX',
                   VALE_CALC=-1.5134741935311,
                   CRITERE='RELATIF',
                   ),
                _F(NUME_ORDRE=3,
                   RESULTAT=RESU,
                   NOM_CHAM='SIGM_NOEU',
                   NOEUD='N2',
                   NOM_CMP='SIYY',
                   VALE_CALC=-0.22581709096630001,
                   CRITERE='RELATIF',
                   ),
                _F(NUME_ORDRE=3,
                   RESULTAT=RESU,
                   NOM_CHAM='SIGM_NOEU',
                   NOEUD='N2',
                   NOM_CMP='SIXY',
                   VALE_CALC=-1.0420320900860001,
                   CRITERE='RELATIF',
                   ),
                _F(NUME_ORDRE=3,
                   RESULTAT=RESU,
                   NOM_CHAM='DEPL',
                   NOEUD='N2',
                   NOM_CMP='DX',
                   VALE_CALC=0.020705277143679,
                   CRITERE='RELATIF',
                   ),
                _F(NUME_ORDRE=3,
                   RESULTAT=RESU,
                   NOM_CHAM='DEPL',
                   NOEUD='N2',
                   NOM_CMP='DY',
                   VALE_CALC=-0.030082379459794001,
                   CRITERE='RELATIF',
                   ),
                ),
          )

TEST_RESU(RESU=(_F(NUME_ORDRE=1,
                   RESULTAT=RESU,
                   NOM_CHAM='SIGM_NOEU',
                   NOEUD='N7',
                   NOM_CMP='SIXX',
                   VALE_CALC=-2.3665602712635998,
                   CRITERE='RELATIF',
                   ),
                _F(NUME_ORDRE=1,
                   RESULTAT=RESU,
                   NOM_CHAM='SIGM_NOEU',
                   NOEUD='N7',
                   NOM_CMP='SIYY',
                   VALE_CALC=-4.5456812354886003,
                   CRITERE='RELATIF',
                   ),
                _F(NUME_ORDRE=1,
                   RESULTAT=RESU,
                   NOM_CHAM='SIGM_NOEU',
                   NOEUD='N7',
                   NOM_CMP='SIXY',
                   VALE_CALC=-2.5506592688571001,
                   CRITERE='RELATIF',
                   ),
                _F(NUME_ORDRE=1,
                   RESULTAT=RESU,
                   NOM_CHAM='DEPL',
                   NOEUD='N7',
                   NOM_CMP='DX',
                   VALE_CALC=0.019034016142915,
                   CRITERE='RELATIF',
                   ),
                _F(NUME_ORDRE=1,
                   RESULTAT=RESU,
                   NOM_CHAM='DEPL',
                   NOEUD='N7',
                   NOM_CMP='DY',
                   VALE_CALC=-1.E-2,
                   CRITERE='RELATIF',
                   ),
                _F(NUME_ORDRE=3,
                   RESULTAT=RESU,
                   NOM_CHAM='SIGM_NOEU',
                   NOEUD='N7',
                   NOM_CMP='SIXX',
                   VALE_CALC=-2.5726931908152002,
                   CRITERE='RELATIF',
                   ),
                _F(NUME_ORDRE=3,
                   RESULTAT=RESU,
                   NOM_CHAM='SIGM_NOEU',
                   NOEUD='N7',
                   NOM_CMP='SIYY',
                   VALE_CALC=-4.7964402078566,
                   CRITERE='RELATIF',
                   ),
                _F(NUME_ORDRE=3,
                   RESULTAT=RESU,
                   NOM_CHAM='SIGM_NOEU',
                   NOEUD='N7',
                   NOM_CMP='SIXY',
                   VALE_CALC=-2.6327566399526998,
                   CRITERE='RELATIF',
                   ),
                _F(NUME_ORDRE=3,
                   RESULTAT=RESU,
                   NOM_CHAM='DEPL',
                   NOEUD='N7',
                   NOM_CMP='DX',
                   VALE_CALC=0.020651724440458,
                   CRITERE='RELATIF',
                   ),
                _F(NUME_ORDRE=3,
                   RESULTAT=RESU,
                   NOM_CHAM='DEPL',
                   NOEUD='N7',
                   NOM_CMP='DY',
                   VALE_CALC=-0.010999999999999999,
                   CRITERE='RELATIF',
                   ),
                ),
          )

FIN( )
