# TITRE VALIDATION ARCHITECTURE DE BASE D'UN CALCUL FETI AVEC MODES
# ======================================================================
# COPYRIGHT (C) 1991 - 2012  EDF R&D                  WWW.CODE-ASTER.ORG
# THIS PROGRAM IS FREE SOFTWARE; YOU CAN REDISTRIBUTE IT AND/OR MODIFY
# IT UNDER THE TERMS OF THE GNU GENERAL PUBLIC LICENSE AS PUBLISHED BY
# THE FREE SOFTWARE FOUNDATION; EITHER VERSION 2 OF THE LICENSE, OR
# (AT YOUR OPTION) ANY LATER VERSION.
#
# THIS PROGRAM IS DISTRIBUTED IN THE HOPE THAT IT WILL BE USEFUL, BUT
# WITHOUT ANY WARRANTY; WITHOUT EVEN THE IMPLIED WARRANTY OF
# MERCHANTABILITY OR FITNESS FOR A PARTICULAR PURPOSE. SEE THE GNU
# GENERAL PUBLIC LICENSE FOR MORE DETAILS.
#
# YOU SHOULD HAVE RECEIVED A COPY OF THE GNU GENERAL PUBLIC LICENSE
# ALONG WITH THIS PROGRAM; IF NOT, WRITE TO EDF R&D CODE_ASTER,
#    1 AVENUE DU GENERAL DE GAULLE, 92141 CLAMART CEDEX, FRANCE.
# ======================================================================
# DE CORPS RIGIDES
# ======================================================================
# PLAQUE 2D MODELISEE VIA 24 TRIA3 ET DECOUPEE EN 4 SOUS-DOMAINES
# HOMOGENES AVEC UN NOEUD CENTRAL DE MULTIPLICITE 4.
# TEST INFORMATIQUE DU SOLVEUR FETI-1 AVEC 6 MODE DE CORPS RIGIDES
# (SOUS-DOMAINES 2 ET 4 FLOTTANTS)
# PAS DE DIRICHLET IMPOSE, C'EST A DIRE PAS D'AFFE_CHAR_CINE/MECA. ON
#  BLOQUE VIA DEUX MAILLES POINTS PAR SOUS-DOMAINES.
# ======================================================================
# person_in_charge: olivier.boiteau at edf.fr
DEBUT(CODE=_F(NOM='FETI002A',NIV_PUB_WEB='INTERNET'),DEBUG=_F(SDVERI='NON'))

MATER=DEFI_MATERIAU(
           ELAS=_F(E = 180000., NU = 0.30, ALPHA = 15.E-6, RHO = 7700.,))

MAIL=LIRE_MAILLAGE(FORMAT='MED', )

MODM=AFFE_MODELE(MAILLAGE=MAIL,
                 AFFE=(_F(GROUP_MA = 'STRU',PHENOMENE = 'MECANIQUE',
                          MODELISATION = 'D_PLAN',   ),
                       _F(GROUP_MA = 'POISCR',
                          MODELISATION = '2D_DIS_T',PHENOMENE='MECANIQUE'),
                       _F(GROUP_MA = 'POIACR',
                          MODELISATION = '2D_DIS_T',PHENOMENE='MECANIQUE'),
                             ))

CHCAR=AFFE_CARA_ELEM( MODELE=MODM,
                      DISCRET_2D=(_F(GROUP_MA='POIACR',CARA = 'K_T_N',
                                     VALE = (0.,0.,0.,),),
                                  _F(GROUP_MA='POISCR',CARA = 'K_T_N',
                                     VALE = (180000.,0.,180000.,),),
                      ))

CHMAT=AFFE_MATERIAU(MAILLAGE=MAIL,
                    AFFE=(_F(TOUT='OUI',MATER=MATER),))

CH1=AFFE_CHAR_MECA(MODELE=MODM,
                    PRES_REP=(_F(GROUP_MA='DDLI',PRES = 1000.,),
                              _F(GROUP_MA='DDLI1',PRES = 2000.,),),)

SDFETI=DEFI_PART_OPS(NOM='SD',
                     MODELE=MODM,
                     INFO=1,
                     DEFI=(_F(GROUP_MA = 'FETI1', GROUP_MA_BORD = 'B1',),
                           _F(GROUP_MA = 'FETI2', GROUP_MA_BORD = 'B2',),
                           _F(GROUP_MA = 'FETI3', GROUP_MA_BORD = 'B3',),
                           _F(GROUP_MA = 'FETI4', GROUP_MA_BORD = 'B4',),
                           ),
                     EXCIT=(_F(CHARGE=CH1,),),
                    );

RESU=MECA_STATIQUE(MODELE=MODM,
                   CARA_ELEM=CHCAR,
                   CHAM_MATER=CHMAT,
                   SOLVEUR=_F(METHODE='FETI',
                             PARTITION=SDFETI,
                             RESI_RELA=1.E-10,
                             NMAX_ITER=20,
                             VERIF_SDFETI='OUI',
                             TEST_CONTINU=1.E-8,
                             NB_REORTHO_DD=20,
                             TYPE_REORTHO_DD='GSM',
                             PRE_COND='LUMPE',
                             SCALING='MULT',
                             ),
                   EXCIT=(_F(CHARGE=CH1,),),
                   INFO=1,
                        )

TEST_RESU(RESU=(_F(NUME_ORDRE=1,
                   RESULTAT=RESU,
                   NOM_CHAM='DEPL',
                   NOEUD='N1',
                   NOM_CMP='DX',
                   VALE_CALC=0.012353462593928,
                   CRITERE='RELATIF',
                   ),
                _F(NUME_ORDRE=1,
                   RESULTAT=RESU,
                   NOM_CHAM='DEPL',
                   NOEUD='N1',
                   NOM_CMP='DY',
                   VALE_CALC=0.023797078581618,
                   CRITERE='RELATIF',
                   ),
                _F(NUME_ORDRE=1,
                   RESULTAT=RESU,
                   NOM_CHAM='DEPL',
                   NOEUD='N2',
                   NOM_CMP='DX',
                   VALE_CALC=5.7657036712276E-3,
                   CRITERE='RELATIF',
                   ),
                _F(NUME_ORDRE=1,
                   RESULTAT=RESU,
                   NOM_CHAM='DEPL',
                   NOEUD='N2',
                   NOM_CMP='DY',
                   VALE_CALC=4.4879679586676997E-3,
                   CRITERE='RELATIF',
                   ),
                _F(NUME_ORDRE=1,
                   RESULTAT=RESU,
                   NOM_CHAM='DEPL',
                   NOEUD='N3',
                   NOM_CMP='DX',
                   VALE_CALC=0.015047559481237999,
                   CRITERE='RELATIF',
                   ),
                _F(NUME_ORDRE=1,
                   RESULTAT=RESU,
                   NOM_CHAM='DEPL',
                   NOEUD='N3',
                   NOM_CMP='DY',
                   VALE_CALC=0.029150537768757999,
                   CRITERE='RELATIF',
                   ),
                _F(NUME_ORDRE=1,
                   RESULTAT=RESU,
                   NOM_CHAM='DEPL',
                   NOEUD='N4',
                   NOM_CMP='DX',
                   VALE_CALC=0.026838012523561001,
                   CRITERE='RELATIF',
                   ),
                _F(NUME_ORDRE=1,
                   RESULTAT=RESU,
                   NOM_CHAM='DEPL',
                   NOEUD='N4',
                   NOM_CMP='DY',
                   VALE_CALC=0.027096583657856999,
                   CRITERE='RELATIF',
                   ),
                _F(NUME_ORDRE=1,
                   RESULTAT=RESU,
                   NOM_CHAM='DEPL',
                   NOEUD='N5',
                   NOM_CMP='DX',
                   VALE_CALC=0.034942222120299002,
                   CRITERE='RELATIF',
                   ),
                _F(NUME_ORDRE=1,
                   RESULTAT=RESU,
                   NOM_CHAM='DEPL',
                   NOEUD='N5',
                   NOM_CMP='DY',
                   VALE_CALC=0.023208869453904001,
                   CRITERE='RELATIF',
                   ),
                _F(NUME_ORDRE=1,
                   RESULTAT=RESU,
                   NOM_CHAM='DEPL',
                   NOEUD='N6',
                   NOM_CMP='DX',
                   VALE_CALC=0.059183937173932999,
                   CRITERE='RELATIF',
                   ),
                _F(NUME_ORDRE=1,
                   RESULTAT=RESU,
                   NOM_CHAM='DEPL',
                   NOEUD='N6',
                   NOM_CMP='DY',
                   VALE_CALC=0.03058634142813,
                   CRITERE='RELATIF',
                   ),
                _F(NUME_ORDRE=1,
                   RESULTAT=RESU,
                   NOM_CHAM='DEPL',
                   NOEUD='N7',
                   NOM_CMP='DX',
                   VALE_CALC=5.4806139321209998E-3,
                   CRITERE='RELATIF',
                   ),
                _F(NUME_ORDRE=1,
                   RESULTAT=RESU,
                   NOM_CHAM='DEPL',
                   NOEUD='N7',
                   NOM_CMP='DY',
                   VALE_CALC=2.5822325344242998E-3,
                   CRITERE='RELATIF',
                   ),
                _F(NUME_ORDRE=1,
                   RESULTAT=RESU,
                   NOM_CHAM='DEPL',
                   NOEUD='N8',
                   NOM_CMP='DX',
                   VALE_CALC=5.4890562740689004E-3,
                   CRITERE='RELATIF',
                   ),
                _F(NUME_ORDRE=1,
                   RESULTAT=RESU,
                   NOM_CHAM='DEPL',
                   NOEUD='N8',
                   NOM_CMP='DY',
                   VALE_CALC=0.019822004958099,
                   CRITERE='RELATIF',
                   ),
                _F(NUME_ORDRE=1,
                   RESULTAT=RESU,
                   NOM_CHAM='DEPL',
                   NOEUD='N9',
                   NOM_CMP='DX',
                   VALE_CALC=6.7185895247882004E-3,
                   CRITERE='RELATIF',
                   ),
                _F(NUME_ORDRE=1,
                   RESULTAT=RESU,
                   NOM_CHAM='DEPL',
                   NOEUD='N9',
                   NOM_CMP='DY',
                   VALE_CALC=0.024306516392503998,
                   CRITERE='RELATIF',
                   ),
                _F(NUME_ORDRE=1,
                   RESULTAT=RESU,
                   NOM_CHAM='DEPL',
                   NOEUD='N10',
                   NOM_CMP='DX',
                   VALE_CALC=0.012845839937264,
                   CRITERE='RELATIF',
                   ),
                _F(NUME_ORDRE=1,
                   RESULTAT=RESU,
                   NOM_CHAM='DEPL',
                   NOEUD='N10',
                   NOM_CMP='DY',
                   VALE_CALC=0.023423819640043999,
                   CRITERE='RELATIF',
                   ),
                _F(NUME_ORDRE=1,
                   RESULTAT=RESU,
                   NOM_CHAM='DEPL',
                   NOEUD='N11',
                   NOM_CMP='DX',
                   VALE_CALC=9.1276302725165001E-3,
                   CRITERE='RELATIF',
                   ),
                _F(NUME_ORDRE=1,
                   RESULTAT=RESU,
                   NOM_CHAM='DEPL',
                   NOEUD='N11',
                   NOM_CMP='DY',
                   VALE_CALC=0.025311998399849999,
                   CRITERE='RELATIF',
                   ),
                _F(NUME_ORDRE=1,
                   RESULTAT=RESU,
                   NOM_CHAM='DEPL',
                   NOEUD='N12',
                   NOM_CMP='DX',
                   VALE_CALC=9.921288195637E-3,
                   CRITERE='RELATIF',
                   ),
                _F(NUME_ORDRE=1,
                   RESULTAT=RESU,
                   NOM_CHAM='DEPL',
                   NOEUD='N12',
                   NOM_CMP='DY',
                   VALE_CALC=0.018543451197105001,
                   CRITERE='RELATIF',
                   ),
                _F(NUME_ORDRE=1,
                   RESULTAT=RESU,
                   NOM_CHAM='DEPL',
                   NOEUD='N13',
                   NOM_CMP='DX',
                   VALE_CALC=0.033875859005046,
                   CRITERE='RELATIF',
                   ),
                _F(NUME_ORDRE=1,
                   RESULTAT=RESU,
                   NOM_CHAM='DEPL',
                   NOEUD='N13',
                   NOM_CMP='DY',
                   VALE_CALC=0.030000669922822999,
                   CRITERE='RELATIF',
                   ),
                _F(NUME_ORDRE=1,
                   RESULTAT=RESU,
                   NOM_CHAM='DEPL',
                   NOEUD='N14',
                   NOM_CMP='DX',
                   VALE_CALC=8.4380098027325001E-3,
                   CRITERE='RELATIF',
                   ),
                _F(NUME_ORDRE=1,
                   RESULTAT=RESU,
                   NOM_CHAM='DEPL',
                   NOEUD='N14',
                   NOM_CMP='DY',
                   VALE_CALC=0.010409080516081,
                   CRITERE='RELATIF',
                   ),
                _F(NUME_ORDRE=1,
                   RESULTAT=RESU,
                   NOM_CHAM='DEPL',
                   NOEUD='N15',
                   NOM_CMP='DX',
                   VALE_CALC=8.8508386959823999E-3,
                   CRITERE='RELATIF',
                   ),
                _F(NUME_ORDRE=1,
                   RESULTAT=RESU,
                   NOM_CHAM='DEPL',
                   NOEUD='N15',
                   NOM_CMP='DY',
                   VALE_CALC=0.024469661433064002,
                   CRITERE='RELATIF',
                   ),
                _F(NUME_ORDRE=1,
                   RESULTAT=RESU,
                   NOM_CHAM='DEPL',
                   NOEUD='N16',
                   NOM_CMP='DX',
                   VALE_CALC=9.1562495773779007E-3,
                   CRITERE='RELATIF',
                   ),
                _F(NUME_ORDRE=1,
                   RESULTAT=RESU,
                   NOM_CHAM='DEPL',
                   NOEUD='N16',
                   NOM_CMP='DY',
                   VALE_CALC=0.023207636508829,
                   CRITERE='RELATIF',
                   ),
                _F(NUME_ORDRE=1,
                   RESULTAT=RESU,
                   NOM_CHAM='DEPL',
                   NOEUD='N17',
                   NOM_CMP='DX',
                   VALE_CALC=0.021963538424736001,
                   CRITERE='RELATIF',
                   ),
                _F(NUME_ORDRE=1,
                   RESULTAT=RESU,
                   NOM_CHAM='DEPL',
                   NOEUD='N17',
                   NOM_CMP='DY',
                   VALE_CALC=0.028172488689294999,
                   CRITERE='RELATIF',
                   ),
                _F(NUME_ORDRE=1,
                   RESULTAT=RESU,
                   NOM_CHAM='DEPL',
                   NOEUD='N18',
                   NOM_CMP='DX',
                   VALE_CALC=0.013649005927252,
                   CRITERE='RELATIF',
                   ),
                _F(NUME_ORDRE=1,
                   RESULTAT=RESU,
                   NOM_CHAM='DEPL',
                   NOEUD='N18',
                   NOM_CMP='DY',
                   VALE_CALC=7.5207189908274999E-3,
                   CRITERE='RELATIF',
                   ),
                _F(NUME_ORDRE=1,
                   RESULTAT=RESU,
                   NOM_CHAM='DEPL',
                   NOEUD='N19',
                   NOM_CMP='DX',
                   VALE_CALC=0.049431430766579999,
                   CRITERE='RELATIF',
                   ),
                _F(NUME_ORDRE=1,
                   RESULTAT=RESU,
                   NOM_CHAM='DEPL',
                   NOEUD='N19',
                   NOM_CMP='DY',
                   VALE_CALC=0.028252995546437999,
                   CRITERE='RELATIF',
                   ),
                ),
          )

FIN( )
#
