# TITRE FETI+STAT_NON_LINE ET DIRICHLETS A L'INTERFACE
# ======================================================================
# COPYRIGHT (C) 1991 - 2012  EDF R&D                  WWW.CODE-ASTER.ORG
# THIS PROGRAM IS FREE SOFTWARE; YOU CAN REDISTRIBUTE IT AND/OR MODIFY
# IT UNDER THE TERMS OF THE GNU GENERAL PUBLIC LICENSE AS PUBLISHED BY
# THE FREE SOFTWARE FOUNDATION; EITHER VERSION 2 OF THE LICENSE, OR
# (AT YOUR OPTION) ANY LATER VERSION.
#
# THIS PROGRAM IS DISTRIBUTED IN THE HOPE THAT IT WILL BE USEFUL, BUT
# WITHOUT ANY WARRANTY; WITHOUT EVEN THE IMPLIED WARRANTY OF
# MERCHANTABILITY OR FITNESS FOR A PARTICULAR PURPOSE. SEE THE GNU
# GENERAL PUBLIC LICENSE FOR MORE DETAILS.
#
# YOU SHOULD HAVE RECEIVED A COPY OF THE GNU GENERAL PUBLIC LICENSE
# ALONG WITH THIS PROGRAM; IF NOT, WRITE TO EDF R&D CODE_ASTER,
#    1 AVENUE DU GENERAL DE GAULLE, 92141 CLAMART CEDEX, FRANCE.
# ======================================================================
# ======================================================================
# PLAQUE 2D MODELISEE VIA 24 TRIA3 ET DECOUPEE EN 4 SOUS-DOMAINES
# HOMOGENES AVEC UN NOEUD CENTRAL DE MULTIPLICITE 4.
# TEST INFORMATIQUE DU SOLVEUR FETI-1 AVEC
# TROIS DIRICHLETS SIMPLES DONT UN INTERSECTANT L'INTERFACE (DDL_IMPO/CH3)
# ET UN AUTRE LA TOUCHANT (FACE_IMPO/CH2)
# PARALLELE: VALEUR CONSEILLEE 2 PROCS.
# ======================================================================
# person_in_charge: olivier.boiteau at edf.fr

DEBUT(CODE=_F(NOM='FETI005B',NIV_PUB_WEB='INTERNET'),DEBUG=_F(SDVERI='NON'))


CTRAC=DEFI_FONCTION(NOM_PARA='EPSI',
                    VALE=(0.004,4.0,0.006,5.0,0.009,5.5,0.02,6.0,),
                    PROL_DROITE='LINEAIRE',);
MATER=DEFI_MATERIAU(ELAS=_F(E=1000.0,
                         NU=0.3,),
                 TRACTION=_F(SIGM=CTRAC,),);
MAIL=LIRE_MAILLAGE(FORMAT='MED', )

MODM=AFFE_MODELE(MAILLAGE=MAIL,
                 AFFE=(_F(GROUP_MA = 'STRU',PHENOMENE = 'MECANIQUE',
                          MODELISATION = 'D_PLAN',   ),))

CHMAT=AFFE_MATERIAU(MAILLAGE=MAIL,
                    AFFE=(_F(TOUT='OUI',MATER=MATER),))
RAMPE=DEFI_FONCTION(NOM_PARA='INST',
                    VALE=(0.0,0.0,
                          10.0,0.1),
                    PROL_DROITE='CONSTANT',
                    PROL_GAUCHE='LINEAIRE',)
CH1=AFFE_CHAR_MECA(MODELE=MODM,
                    PRES_REP=(_F(GROUP_MA=('DDLI1'),PRES = 20.,),),)

CH2=AFFE_CHAR_MECA(MODELE=MODM,
                    FACE_IMPO=(_F(MAILLE=('M25','M26'),DY = -1.,),),)

CH3=AFFE_CHAR_MECA(MODELE=MODM,
                    DDL_IMPO=(_F( GROUP_NO=('DIRI1'),DX=0.0,),),)

CH4=AFFE_CHAR_MECA(MODELE=MODM,
                    DDL_IMPO=(_F( GROUP_NO=('DIRI13'),DX=2.0, DY=-3.0),),)

SDFETI=DEFI_PART_OPS(NOM='SD',
                     MODELE=MODM,
                     INFO=1,
                     DEFI=(_F(GROUP_MA = 'FETI1', ),
                           _F(GROUP_MA = 'FETI2', ),
                           _F(GROUP_MA = 'FETI3', GROUP_MA_BORD = 'B5',),
                           _F(GROUP_MA = 'FETI4', GROUP_MA_BORD = 'B6',),
                           ),
                     EXCIT=(_F(CHARGE=CH1),
                            _F(CHARGE=CH2),
                            _F(CHARGE=CH3),
                            _F(CHARGE=CH4),),
                    );


INSTNL=DEFI_LIST_REEL(DEBUT=0.0,
                      INTERVALLE=(_F(JUSQU_A=1.,
                                     NOMBRE=1,),
                                  _F(JUSQU_A=1.1,
                                     NOMBRE=2,),),);
RESU=STAT_NON_LINE(MODELE=MODM,
                   CHAM_MATER=CHMAT,
               SOLVEUR=_F(METHODE='FETI',
                           PARTITION=SDFETI,
                           RESI_RELA=1.E-8,
                           NMAX_ITER=30,
                           NB_REORTHO_DD=30,
                           NB_REORTHO_INST=10,
                           ),
                   EXCIT=(
                          _F(CHARGE=CH1,FONC_MULT=RAMPE,),
                          _F(CHARGE=CH2,FONC_MULT=RAMPE,),
                          _F(CHARGE=CH3,FONC_MULT=RAMPE,),
                          _F(CHARGE=CH4,FONC_MULT=RAMPE,),
                          ),
                    NEWTON=(_F(REAC_INCR=0,
                                PREDICTION='TANGENTE',
                                MATRICE='TANGENTE',
                                PAS_MINI_ELAS=0.0,
                                REAC_ITER=0,
                                REAC_ITER_ELAS=0)),
                     CONVERGENCE=(_F(RESI_GLOB_RELA=1.E-6,
                                     ARRET='OUI',
                                     ITER_GLOB_ELAS=20,
                                     ITER_GLOB_MAXI=20)),
                   INFO=1,
                   INCREMENT=_F( LIST_INST = INSTNL),
                   COMP_INCR=(_F(RELATION='VMIS_ISOT_TRAC',GROUP_MA = 'STRU'))
                                  )
RESU=CALC_CHAMP(reuse=RESU,CONTRAINTE=('SIGM_ELNO'),RESULTAT=RESU)

RESU=CALC_CHAMP(reuse =RESU,
                 CONTRAINTE='SIGM_NOEU',
                 RESULTAT=RESU,);

TEST_RESU(RESU=(_F(NUME_ORDRE=1,
                   RESULTAT=RESU,
                   NOM_CHAM='SIGM_NOEU',
                   NOEUD='N1',
                   NOM_CMP='SIXX',
                   VALE_CALC=-4.8268366400350002,
                   CRITERE='RELATIF',
                   ),
                _F(NUME_ORDRE=1,
                   RESULTAT=RESU,
                   NOM_CHAM='SIGM_NOEU',
                   NOEUD='N1',
                   NOM_CMP='SIYY',
                   VALE_CALC=-1.0230395172363,
                   CRITERE='RELATIF',
                   ),
                _F(NUME_ORDRE=1,
                   RESULTAT=RESU,
                   NOM_CHAM='SIGM_NOEU',
                   NOEUD='N1',
                   NOM_CMP='SIXY',
                   VALE_CALC=-0.37265658657276002,
                   CRITERE='RELATIF',
                   ),
                _F(NUME_ORDRE=1,
                   RESULTAT=RESU,
                   NOM_CHAM='DEPL',
                   NOEUD='N1',
                   NOM_CMP='DX',
                   VALE_CALC=0.010392743755392999,
                   CRITERE='RELATIF',
                   ),
                _F(NUME_ORDRE=1,
                   RESULTAT=RESU,
                   NOM_CHAM='DEPL',
                   NOEUD='N1',
                   NOM_CMP='DY',
                   VALE_CALC=-0.022932732338239999,
                   CRITERE='RELATIF',
                   ),
                _F(NUME_ORDRE=3,
                   RESULTAT=RESU,
                   NOM_CHAM='SIGM_NOEU',
                   NOEUD='N1',
                   NOM_CMP='SIXX',
                   VALE_CALC=-5.1066761467133004,
                   CRITERE='RELATIF',
                   ),
                _F(NUME_ORDRE=3,
                   RESULTAT=RESU,
                   NOM_CHAM='SIGM_NOEU',
                   NOEUD='N1',
                   NOM_CMP='SIYY',
                   VALE_CALC=-1.1214808257486999,
                   CRITERE='RELATIF',
                   ),
                _F(NUME_ORDRE=3,
                   RESULTAT=RESU,
                   NOM_CHAM='SIGM_NOEU',
                   NOEUD='N1',
                   NOM_CMP='SIXY',
                   VALE_CALC=-0.41177365657164999,
                   CRITERE='RELATIF',
                   ),
                _F(NUME_ORDRE=3,
                   RESULTAT=RESU,
                   NOM_CHAM='DEPL',
                   NOEUD='N1',
                   NOM_CMP='DX',
                   VALE_CALC=0.01138247183463,
                   CRITERE='RELATIF',
                   ),
                _F(NUME_ORDRE=3,
                   RESULTAT=RESU,
                   NOM_CHAM='DEPL',
                   NOEUD='N1',
                   NOM_CMP='DY',
                   VALE_CALC=-0.025042487145281001,
                   CRITERE='RELATIF',
                   ),
                ),
          )

TEST_RESU(RESU=(_F(NUME_ORDRE=1,
                   RESULTAT=RESU,
                   NOM_CHAM='SIGM_NOEU',
                   NOEUD='N3',
                   NOM_CMP='SIXX',
                   VALE_CALC=-1.1506764935659,
                   CRITERE='RELATIF',
                   ),
                _F(NUME_ORDRE=1,
                   RESULTAT=RESU,
                   NOM_CHAM='SIGM_NOEU',
                   NOEUD='N3',
                   NOM_CMP='SIYY',
                   VALE_CALC=-1.516425241708,
                   CRITERE='RELATIF',
                   ),
                _F(NUME_ORDRE=1,
                   RESULTAT=RESU,
                   NOM_CHAM='SIGM_NOEU',
                   NOEUD='N3',
                   NOM_CMP='SIXY',
                   VALE_CALC=-0.28067241225563999,
                   CRITERE='RELATIF',
                   ),
                _F(NUME_ORDRE=1,
                   RESULTAT=RESU,
                   NOM_CHAM='DEPL',
                   NOEUD='N3',
                   NOM_CMP='DX',
                   VALE_CALC=0.02,
                   CRITERE='RELATIF',
                   ),
                _F(NUME_ORDRE=1,
                   RESULTAT=RESU,
                   NOM_CHAM='DEPL',
                   NOEUD='N3',
                   NOM_CMP='DY',
                   VALE_CALC=-0.029999999999999999,
                   CRITERE='RELATIF',
                   ),
                _F(NUME_ORDRE=3,
                   RESULTAT=RESU,
                   NOM_CHAM='SIGM_NOEU',
                   NOEUD='N3',
                   NOM_CMP='SIXX',
                   VALE_CALC=-1.2628158997309,
                   CRITERE='RELATIF',
                   ),
                _F(NUME_ORDRE=3,
                   RESULTAT=RESU,
                   NOM_CHAM='SIGM_NOEU',
                   NOEUD='N3',
                   NOM_CMP='SIYY',
                   VALE_CALC=-1.6258542165356,
                   CRITERE='RELATIF',
                   ),
                _F(NUME_ORDRE=3,
                   RESULTAT=RESU,
                   NOM_CHAM='SIGM_NOEU',
                   NOEUD='N3',
                   NOM_CMP='SIXY',
                   VALE_CALC=-0.31014754729855998,
                   CRITERE='RELATIF',
                   ),
                _F(NUME_ORDRE=3,
                   RESULTAT=RESU,
                   NOM_CHAM='DEPL',
                   NOEUD='N3',
                   NOM_CMP='DX',
                   VALE_CALC=0.021999999999999999,
                   CRITERE='RELATIF',
                   ),
                _F(NUME_ORDRE=3,
                   RESULTAT=RESU,
                   NOM_CHAM='DEPL',
                   NOEUD='N3',
                   NOM_CMP='DY',
                   VALE_CALC=-0.033000000000000002,
                   CRITERE='RELATIF',
                   ),
                ),
          )

TEST_RESU(RESU=(_F(NUME_ORDRE=1,
                   RESULTAT=RESU,
                   NOM_CHAM='SIGM_NOEU',
                   NOEUD='N2',
                   NOM_CMP='SIXX',
                   VALE_CALC=-1.4730803077309,
                   CRITERE='RELATIF',
                   ),
                _F(NUME_ORDRE=1,
                   RESULTAT=RESU,
                   NOM_CHAM='SIGM_NOEU',
                   NOEUD='N2',
                   NOM_CMP='SIYY',
                   VALE_CALC=0.1989278227813,
                   CRITERE='RELATIF',
                   ),
                _F(NUME_ORDRE=1,
                   RESULTAT=RESU,
                   NOM_CHAM='SIGM_NOEU',
                   NOEUD='N2',
                   NOM_CMP='SIXY',
                   VALE_CALC=-0.91435914517465,
                   CRITERE='RELATIF',
                   ),
                _F(NUME_ORDRE=1,
                   RESULTAT=RESU,
                   NOM_CHAM='DEPL',
                   NOEUD='N2',
                   NOM_CMP='DX',
                   VALE_CALC=0.017672006259398,
                   CRITERE='RELATIF',
                   ),
                _F(NUME_ORDRE=1,
                   RESULTAT=RESU,
                   NOM_CHAM='DEPL',
                   NOEUD='N2',
                   NOM_CMP='DY',
                   VALE_CALC=-0.031030056370729,
                   CRITERE='RELATIF',
                   ),
                _F(NUME_ORDRE=3,
                   RESULTAT=RESU,
                   NOM_CHAM='SIGM_NOEU',
                   NOEUD='N2',
                   NOM_CMP='SIXX',
                   VALE_CALC=-1.4885640455483999,
                   CRITERE='RELATIF',
                   ),
                _F(NUME_ORDRE=3,
                   RESULTAT=RESU,
                   NOM_CHAM='SIGM_NOEU',
                   NOEUD='N2',
                   NOM_CMP='SIYY',
                   VALE_CALC=0.25689507214115997,
                   CRITERE='RELATIF',
                   ),
                _F(NUME_ORDRE=3,
                   RESULTAT=RESU,
                   NOM_CHAM='SIGM_NOEU',
                   NOEUD='N2',
                   NOM_CMP='SIXY',
                   VALE_CALC=-0.91897609801665003,
                   CRITERE='RELATIF',
                   ),
                _F(NUME_ORDRE=3,
                   RESULTAT=RESU,
                   NOM_CHAM='DEPL',
                   NOEUD='N2',
                   NOM_CMP='DX',
                   VALE_CALC=0.019461291349517001,
                   CRITERE='RELATIF',
                   ),
                _F(NUME_ORDRE=3,
                   RESULTAT=RESU,
                   NOM_CHAM='DEPL',
                   NOEUD='N2',
                   NOM_CMP='DY',
                   VALE_CALC=-0.034708171619845997,
                   CRITERE='RELATIF',
                   ),
                ),
          )

TEST_RESU(RESU=(_F(NUME_ORDRE=1,
                   RESULTAT=RESU,
                   NOM_CHAM='SIGM_NOEU',
                   NOEUD='N7',
                   NOM_CMP='SIXX',
                   VALE_CALC=-1.5219149629336,
                   CRITERE='RELATIF',
                   ),
                _F(NUME_ORDRE=1,
                   RESULTAT=RESU,
                   NOM_CHAM='SIGM_NOEU',
                   NOEUD='N7',
                   NOM_CMP='SIYY',
                   VALE_CALC=-4.2559940254606996,
                   CRITERE='RELATIF',
                   ),
                _F(NUME_ORDRE=1,
                   RESULTAT=RESU,
                   NOM_CHAM='SIGM_NOEU',
                   NOEUD='N7',
                   NOM_CMP='SIXY',
                   VALE_CALC=-1.8269810067756,
                   CRITERE='RELATIF',
                   ),
                _F(NUME_ORDRE=1,
                   RESULTAT=RESU,
                   NOM_CHAM='DEPL',
                   NOEUD='N7',
                   NOM_CMP='DX',
                   VALE_CALC=0.018935408017541001,
                   CRITERE='RELATIF',
                   ),
                _F(NUME_ORDRE=1,
                   RESULTAT=RESU,
                   NOM_CHAM='DEPL',
                   NOEUD='N7',
                   NOM_CMP='DY',
                   VALE_CALC=-1.E-2,
                   CRITERE='RELATIF',
                   ),
                _F(NUME_ORDRE=3,
                   RESULTAT=RESU,
                   NOM_CHAM='SIGM_NOEU',
                   NOEUD='N7',
                   NOM_CMP='SIXX',
                   VALE_CALC=-1.6415405803778,
                   CRITERE='RELATIF',
                   ),
                _F(NUME_ORDRE=3,
                   RESULTAT=RESU,
                   NOM_CHAM='SIGM_NOEU',
                   NOEUD='N7',
                   NOM_CMP='SIYY',
                   VALE_CALC=-4.5184937537468004,
                   CRITERE='RELATIF',
                   ),
                _F(NUME_ORDRE=3,
                   RESULTAT=RESU,
                   NOM_CHAM='SIGM_NOEU',
                   NOEUD='N7',
                   NOM_CMP='SIXY',
                   VALE_CALC=-1.8566086482882,
                   CRITERE='RELATIF',
                   ),
                _F(NUME_ORDRE=3,
                   RESULTAT=RESU,
                   NOM_CHAM='DEPL',
                   NOEUD='N7',
                   NOM_CMP='DX',
                   VALE_CALC=0.020608949817889001,
                   CRITERE='RELATIF',
                   ),
                _F(NUME_ORDRE=3,
                   RESULTAT=RESU,
                   NOM_CHAM='DEPL',
                   NOEUD='N7',
                   NOM_CMP='DY',
                   VALE_CALC=-0.010999999999999999,
                   CRITERE='RELATIF',
                   ),
                ),
          )

FIN( )
#
