# TITRE FETI+STAT_NON_LINE AVEC MODES RIGIDES ET LIAISON_DDL
#            CONFIGURATION MANAGEMENT OF EDF VERSION
# ======================================================================
# COPYRIGHT (C) 1991 - 2012  EDF R&D                  WWW.CODE-ASTER.ORG
# THIS PROGRAM IS FREE SOFTWARE; YOU CAN REDISTRIBUTE IT AND/OR MODIFY
# IT UNDER THE TERMS OF THE GNU GENERAL PUBLIC LICENSE AS PUBLISHED BY
# THE FREE SOFTWARE FOUNDATION; EITHER VERSION 2 OF THE LICENSE, OR
# (AT YOUR OPTION) ANY LATER VERSION.
#
# THIS PROGRAM IS DISTRIBUTED IN THE HOPE THAT IT WILL BE USEFUL, BUT
# WITHOUT ANY WARRANTY; WITHOUT EVEN THE IMPLIED WARRANTY OF
# MERCHANTABILITY OR FITNESS FOR A PARTICULAR PURPOSE. SEE THE GNU
# GENERAL PUBLIC LICENSE FOR MORE DETAILS.
#
# YOU SHOULD HAVE RECEIVED A COPY OF THE GNU GENERAL PUBLIC LICENSE
# ALONG WITH THIS PROGRAM; IF NOT, WRITE TO EDF R&D CODE_ASTER,
#    1 AVENUE DU GENERAL DE GAULLE, 92141 CLAMART CEDEX, FRANCE.
# ======================================================================
# ======================================================================
# PLAQUE 2D MODELISEE VIA 24 TRIA3 ET DECOUPEE EN 4 SOUS-DOMAINES
# HOMOGENES AVEC UN NOEUD CENTRAL DE MULTIPLICITE 4.
# TEST INFORMATIQUE DU SOLVEUR FETI-1 AVEC 5 MODE DE CORPS RIGIDES
# (TOUS LES SOUS-DOMAINES PARTIELLEMENT FLOTTANTS)
# TROIS DIRICHLET SIMPLE HOMOGENE (DDL_IMPO SUR SOUS-DOMAINES 1, 3 ET 4)
# ET UN DIRICHLET GENERALISE INHOMOGENE (LIAISON_DDL) SUR SD 2
# PARALLELE: VALEUR CONSEILLEE 2 PROCS.
# ======================================================================
# person_in_charge: olivier.boiteau at edf.fr

DEBUT(CODE=_F(NOM='FETI004B',NIV_PUB_WEB='INTERNET'),DEBUG=_F(SDVERI='NON'))

CTRAC=DEFI_FONCTION(NOM_PARA='EPSI',
                    VALE=(0.004,4.0,0.006,5.0,0.009,5.5,0.02,6.0,),
                    PROL_DROITE='LINEAIRE',);

MATER=DEFI_MATERIAU(ELAS=_F(E=1000.0,
                         NU=0.3,),
                 TRACTION=_F(SIGM=CTRAC,),);
MAIL=LIRE_MAILLAGE(FORMAT='MED',)

MODM=AFFE_MODELE(MAILLAGE=MAIL,
                 AFFE=(_F(GROUP_MA = 'STRU',PHENOMENE = 'MECANIQUE',
                          MODELISATION = 'D_PLAN',   ),))
CHMAT=AFFE_MATERIAU(MAILLAGE=MAIL,
                    AFFE=(_F(TOUT='OUI',MATER=MATER),))
RAMPE=DEFI_FONCTION(NOM_PARA='INST',
                    VALE=(0.0,0.0,
                          10.0,0.1),
                    PROL_DROITE='CONSTANT',
                    PROL_GAUCHE='LINEAIRE',)
CH1=AFFE_CHAR_MECA(MODELE=MODM,
                    PRES_REP=(_F(GROUP_MA='DDLI1',PRES = 2.,),),)
CH2=AFFE_CHAR_MECA(MODELE=MODM,
                    LIAISON_DDL=(_F(GROUP_NO='DIRI2',DDL=('DX','DX'),
                    COEF_MULT=(3.,-5.),COEF_IMPO=7.),),)
CH3=AFFE_CHAR_MECA(MODELE=MODM,
                    DDL_IMPO=(_F(GROUP_NO=('DIRI13'),DX=0.0,DY=0.0,),),)
SDFETI=DEFI_PART_OPS(NOM='SD',
                     MODELE=MODM,
                     INFO=1,
                     EXCIT=(_F(CHARGE=CH1),
                            _F(CHARGE=CH2),
                            _F(CHARGE=CH3)),
                     DEFI=(_F(GROUP_MA = 'FETI1', ),
                           _F(GROUP_MA = 'FETI2', ),
                           _F(GROUP_MA = 'FETI3', GROUP_MA_BORD = 'B5',),
                           _F(GROUP_MA = 'FETI4', GROUP_MA_BORD = 'B6',),
                           ),)

INSTNL=DEFI_LIST_REEL(DEBUT=0.0,
                      INTERVALLE=(_F(JUSQU_A=1.,
                                     NOMBRE=1,),
                                  _F(JUSQU_A=1.1,
                                     NOMBRE=2,),),);

RESU=STAT_NON_LINE(MODELE=MODM,
                   CHAM_MATER=CHMAT,
                   SOLVEUR=_F(METHODE='FETI',
                            PARTITION=SDFETI,
                            RESI_RELA=1.E-8,
                            NMAX_ITER=30,
                            NB_REORTHO_DD=30,
                            NB_REORTHO_INST=10,
                            ),
                   EXCIT=(
                          _F(CHARGE=CH1,FONC_MULT=RAMPE,),
                          _F(CHARGE=CH2,FONC_MULT=RAMPE,),
                          _F(CHARGE=CH3,FONC_MULT=RAMPE,),
                          ),
                    NEWTON=(_F(REAC_INCR=0,
                                PREDICTION='TANGENTE',
                                MATRICE='TANGENTE',
                                PAS_MINI_ELAS=0.0,
                                REAC_ITER=0,
                                REAC_ITER_ELAS=0)),
                     CONVERGENCE=(_F(RESI_GLOB_RELA=1.E-6,
                                     ARRET='OUI',
                                     ITER_GLOB_ELAS=20,
                                     ITER_GLOB_MAXI=20)),
                   INFO=1,
                   INCREMENT=_F( LIST_INST = INSTNL),
                   COMP_INCR=(_F(RELATION='VMIS_ISOT_TRAC',GROUP_MA = 'STRU'))
                                  )
RESU=CALC_CHAMP(reuse=RESU,CONTRAINTE=('SIGM_ELNO'),RESULTAT=RESU)

RESU=CALC_CHAMP(reuse =RESU,
                 CONTRAINTE='SIGM_NOEU',
                 RESULTAT=RESU,);

TEST_RESU(RESU=(_F(NUME_ORDRE=1,
                   RESULTAT=RESU,
                   NOM_CHAM='SIGM_NOEU',
                   NOEUD='N1',
                   NOM_CMP='SIXX',
                   VALE_CALC=0.53674878937484005,
                   CRITERE='RELATIF',
                   ),
                _F(NUME_ORDRE=1,
                   RESULTAT=RESU,
                   NOM_CHAM='SIGM_NOEU',
                   NOEUD='N1',
                   NOM_CMP='SIYY',
                   VALE_CALC=-1.150614210084,
                   CRITERE='RELATIF',
                   ),
                _F(NUME_ORDRE=1,
                   RESULTAT=RESU,
                   NOM_CHAM='SIGM_NOEU',
                   NOEUD='N1',
                   NOM_CMP='SIXY',
                   VALE_CALC=0.073497081734967995,
                   CRITERE='RELATIF',
                   ),
                _F(NUME_ORDRE=1,
                   RESULTAT=RESU,
                   NOM_CHAM='DEPL',
                   NOEUD='N1',
                   NOM_CMP='DX',
                   VALE_CALC=-1.962500631307E-3,
                   CRITERE='RELATIF',
                   ),
                _F(NUME_ORDRE=1,
                   RESULTAT=RESU,
                   NOM_CHAM='DEPL',
                   NOEUD='N1',
                   NOM_CMP='DY',
                   VALE_CALC=-1.4163498861384E-3,
                   CRITERE='RELATIF',
                   ),
                _F(NUME_ORDRE=3,
                   RESULTAT=RESU,
                   NOM_CHAM='SIGM_NOEU',
                   NOEUD='N1',
                   NOM_CMP='SIXX',
                   VALE_CALC=0.55670138476321995,
                   CRITERE='RELATIF',
                   ),
                _F(NUME_ORDRE=3,
                   RESULTAT=RESU,
                   NOM_CHAM='SIGM_NOEU',
                   NOEUD='N1',
                   NOM_CMP='SIYY',
                   VALE_CALC=-1.2021890689579,
                   CRITERE='RELATIF',
                   ),
                _F(NUME_ORDRE=3,
                   RESULTAT=RESU,
                   NOM_CHAM='SIGM_NOEU',
                   NOEUD='N1',
                   NOM_CMP='SIXY',
                   VALE_CALC=0.082107939584104006,
                   CRITERE='RELATIF',
                   ),
                _F(NUME_ORDRE=3,
                   RESULTAT=RESU,
                   NOM_CHAM='DEPL',
                   NOEUD='N1',
                   NOM_CMP='DX',
                   VALE_CALC=-2.0341103862208999E-3,
                   CRITERE='RELATIF',
                   ),
                _F(NUME_ORDRE=3,
                   RESULTAT=RESU,
                   NOM_CHAM='DEPL',
                   NOEUD='N1',
                   NOM_CMP='DY',
                   VALE_CALC=-1.4905499742491001E-3,
                   CRITERE='RELATIF',
                   ),
                ),
          )

TEST_RESU(RESU=(_F(NUME_ORDRE=1,
                   RESULTAT=RESU,
                   NOM_CHAM='SIGM_NOEU',
                   NOEUD='N3',
                   NOM_CMP='SIXX',
                   VALE_CALC=-0.080900758291215,
                   CRITERE='RELATIF',
                   ),
                _F(NUME_ORDRE=1,
                   RESULTAT=RESU,
                   NOM_CHAM='SIGM_NOEU',
                   NOEUD='N3',
                   NOM_CMP='SIYY',
                   VALE_CALC=-0.18471091552373001,
                   CRITERE='RELATIF',
                   ),
                _F(NUME_ORDRE=1,
                   RESULTAT=RESU,
                   NOM_CHAM='SIGM_NOEU',
                   NOEUD='N3',
                   NOM_CMP='SIXY',
                   VALE_CALC=-0.44689568362866999,
                   CRITERE='RELATIF',
                   ),
                _F(NUME_ORDRE=1,
                   RESULTAT=RESU,
                   NOM_CHAM='DEPL',
                   NOEUD='N3',
                   NOM_CMP='DX',
                   VALE_CALC=-8.3314861881512005E-4,
                   CRITERE='RELATIF',
                   ),
                _F(NUME_ORDRE=1,
                   RESULTAT=RESU,
                   NOM_CHAM='DEPL',
                   NOEUD='N3',
                   NOM_CMP='DY',
                   VALE_CALC=-2.6817906739554E-05,
                   CRITERE='RELATIF',
                   ),
                _F(NUME_ORDRE=3,
                   RESULTAT=RESU,
                   NOM_CHAM='SIGM_NOEU',
                   NOEUD='N3',
                   NOM_CMP='SIXX',
                   VALE_CALC=-0.083101687410495007,
                   CRITERE='RELATIF',
                   ),
                _F(NUME_ORDRE=3,
                   RESULTAT=RESU,
                   NOM_CHAM='SIGM_NOEU',
                   NOEUD='N3',
                   NOM_CMP='SIYY',
                   VALE_CALC=-0.18363010590379999,
                   CRITERE='RELATIF',
                   ),
                _F(NUME_ORDRE=3,
                   RESULTAT=RESU,
                   NOM_CHAM='SIGM_NOEU',
                   NOEUD='N3',
                   NOM_CMP='SIXY',
                   VALE_CALC=-0.46668624265342001,
                   CRITERE='RELATIF',
                   ),
                _F(NUME_ORDRE=3,
                   RESULTAT=RESU,
                   NOM_CHAM='DEPL',
                   NOEUD='N3',
                   NOM_CMP='DX',
                   VALE_CALC=-8.6207443765663999E-4,
                   CRITERE='RELATIF',
                   ),
                _F(NUME_ORDRE=3,
                   RESULTAT=RESU,
                   NOM_CHAM='DEPL',
                   NOEUD='N3',
                   NOM_CMP='DY',
                   VALE_CALC=-2.7569926761010999E-06,
                   CRITERE='RELATIF',
                   ),
                ),
          )

TEST_RESU(RESU=(_F(NUME_ORDRE=1,
                   RESULTAT=RESU,
                   NOM_CHAM='SIGM_NOEU',
                   NOEUD='N2',
                   NOM_CMP='SIXX',
                   VALE_CALC=-0.052197627489682999,
                   CRITERE='RELATIF',
                   ),
                _F(NUME_ORDRE=1,
                   RESULTAT=RESU,
                   NOM_CHAM='SIGM_NOEU',
                   NOEUD='N2',
                   NOM_CMP='SIYY',
                   VALE_CALC=-0.051353088960689998,
                   CRITERE='RELATIF',
                   ),
                _F(NUME_ORDRE=1,
                   RESULTAT=RESU,
                   NOM_CHAM='SIGM_NOEU',
                   NOEUD='N2',
                   NOM_CMP='SIXY',
                   VALE_CALC=-0.041626203629043998,
                   CRITERE='RELATIF',
                   ),
                _F(NUME_ORDRE=1,
                   RESULTAT=RESU,
                   NOM_CHAM='DEPL',
                   NOEUD='N2',
                   NOM_CMP='DX',
                   VALE_CALC=3.2003822987199999E-06,
                   CRITERE='RELATIF',
                   ),
                _F(NUME_ORDRE=1,
                   RESULTAT=RESU,
                   NOM_CHAM='DEPL',
                   NOEUD='N2',
                   NOM_CMP='DY',
                   VALE_CALC=1.7613067856875E-4,
                   CRITERE='RELATIF',
                   ),
                _F(NUME_ORDRE=3,
                   RESULTAT=RESU,
                   NOM_CHAM='SIGM_NOEU',
                   NOEUD='N2',
                   NOM_CMP='SIXX',
                   VALE_CALC=-0.054239011750673,
                   CRITERE='RELATIF',
                   ),
                _F(NUME_ORDRE=3,
                   RESULTAT=RESU,
                   NOM_CHAM='SIGM_NOEU',
                   NOEUD='N2',
                   NOM_CMP='SIYY',
                   VALE_CALC=-0.056011066696191998,
                   CRITERE='RELATIF',
                   ),
                _F(NUME_ORDRE=3,
                   RESULTAT=RESU,
                   NOM_CHAM='SIGM_NOEU',
                   NOEUD='N2',
                   NOM_CMP='SIXY',
                   VALE_CALC=-0.044148543455589002,
                   CRITERE='RELATIF',
                   ),
                _F(NUME_ORDRE=3,
                   RESULTAT=RESU,
                   NOM_CHAM='DEPL',
                   NOEUD='N2',
                   NOM_CMP='DX',
                   VALE_CALC=4.0296254499578001E-06,
                   CRITERE='RELATIF',
                   ),
                _F(NUME_ORDRE=3,
                   RESULTAT=RESU,
                   NOM_CHAM='DEPL',
                   NOEUD='N2',
                   NOM_CMP='DY',
                   VALE_CALC=1.7182223180402999E-4,
                   CRITERE='RELATIF',
                   ),
                ),
          )

TEST_RESU(RESU=(_F(NUME_ORDRE=1,
                   RESULTAT=RESU,
                   NOM_CHAM='SIGM_NOEU',
                   NOEUD='N7',
                   NOM_CMP='SIXX',
                   VALE_CALC=-7.5287671339400999E-3,
                   CRITERE='RELATIF',
                   ),
                _F(NUME_ORDRE=1,
                   RESULTAT=RESU,
                   NOM_CHAM='SIGM_NOEU',
                   NOEUD='N7',
                   NOM_CMP='SIYY',
                   VALE_CALC=0.59008462319711996,
                   CRITERE='RELATIF',
                   ),
                _F(NUME_ORDRE=1,
                   RESULTAT=RESU,
                   NOM_CHAM='SIGM_NOEU',
                   NOEUD='N7',
                   NOM_CMP='SIXY',
                   VALE_CALC=0.1094257251948,
                   CRITERE='RELATIF',
                   ),
                _F(NUME_ORDRE=1,
                   RESULTAT=RESU,
                   NOM_CHAM='DEPL',
                   NOEUD='N7',
                   NOM_CMP='DX',
                   VALE_CALC=2.7055249894430999E-4,
                   CRITERE='RELATIF',
                   ),
                _F(NUME_ORDRE=1,
                   RESULTAT=RESU,
                   NOM_CHAM='DEPL',
                   NOEUD='N7',
                   NOM_CMP='DY',
                   VALE_CALC=-1.3720974694032E-3,
                   CRITERE='RELATIF',
                   ),
                _F(NUME_ORDRE=3,
                   RESULTAT=RESU,
                   NOM_CHAM='SIGM_NOEU',
                   NOEUD='N7',
                   NOM_CMP='SIXX',
                   VALE_CALC=-8.7676767134336007E-3,
                   CRITERE='RELATIF',
                   ),
                _F(NUME_ORDRE=3,
                   RESULTAT=RESU,
                   NOM_CHAM='SIGM_NOEU',
                   NOEUD='N7',
                   NOM_CMP='SIYY',
                   VALE_CALC=0.61121944931606997,
                   CRITERE='RELATIF',
                   ),
                _F(NUME_ORDRE=3,
                   RESULTAT=RESU,
                   NOM_CHAM='SIGM_NOEU',
                   NOEUD='N7',
                   NOM_CMP='SIXY',
                   VALE_CALC=0.1134776387466,
                   CRITERE='RELATIF',
                   ),
                _F(NUME_ORDRE=3,
                   RESULTAT=RESU,
                   NOM_CHAM='DEPL',
                   NOEUD='N7',
                   NOM_CMP='DX',
                   VALE_CALC=2.8543979572408001E-4,
                   CRITERE='RELATIF',
                   ),
                _F(NUME_ORDRE=3,
                   RESULTAT=RESU,
                   NOM_CHAM='DEPL',
                   NOEUD='N7',
                   NOM_CMP='DY',
                   VALE_CALC=-1.3961760083000001E-3,
                   CRITERE='RELATIF',
                   ),
                ),
          )

FIN( )
