# MODIF  DATE 13/01/2011   AUTEUR PELLET J.PELLET 
# RESPONSABLE JMBHH01 J.M.PROIX
# TITRE ENONCE FORMATION PLAQUE TROUEE EN TRACTION EN ELASTICITE
# forma03a.para = tps_job 60 mem_job 64Mo ncpus 1 liste_test R
#            CONFIGURATION MANAGEMENT OF EDF VERSION
# ======================================================================
# COPYRIGHT (C) 1991 - 2011  EDF R&D                  WWW.CODE-ASTER.ORG
# THIS PROGRAM IS FREE SOFTWARE; YOU CAN REDISTRIBUTE IT AND/OR MODIFY
# IT UNDER THE TERMS OF THE GNU GENERAL PUBLIC LICENSE AS PUBLISHED BY
# THE FREE SOFTWARE FOUNDATION; EITHER VERSION 2 OF THE LICENSE, OR
# (AT YOUR OPTION) ANY LATER VERSION.
#
# THIS PROGRAM IS DISTRIBUTED IN THE HOPE THAT IT WILL BE USEFUL, BUT
# WITHOUT ANY WARRANTY; WITHOUT EVEN THE IMPLIED WARRANTY OF
# MERCHANTABILITY OR FITNESS FOR A PARTICULAR PURPOSE. SEE THE GNU
# GENERAL PUBLIC LICENSE FOR MORE DETAILS.
#
# YOU SHOULD HAVE RECEIVED A COPY OF THE GNU GENERAL PUBLIC LICENSE
# ALONG WITH THIS PROGRAM; IF NOT, WRITE TO EDF R&D CODE_ASTER,
#    1 AVENUE DU GENERAL DE GAULLE, 92141 CLAMART CEDEX, FRANCE.
# ======================================================================

DEBUT(CODE=_F(NOM='FORMA03A',
              NIV_PUB_WEB='INTERNET',
              VISU_EFICAS='OUI',),);

MA=DEFI_MATERIAU(ELAS=_F(E=200000.0,
                         NU=0.3,),);

MAIL=LIRE_MAILLAGE(FORMAT='MED',);

MODE=AFFE_MODELE(MAILLAGE=MAIL,
                 AFFE=_F(TOUT='OUI',
                         PHENOMENE='MECANIQUE',
                         MODELISATION='C_PLAN',),);

MAIL=MODI_MAILLAGE(reuse =MAIL,
                   MAILLAGE=MAIL,
                   ORIE_PEAU_2D=_F(GROUP_MA='haut',),);

MATE=AFFE_MATERIAU(MAILLAGE=MAIL,
                   AFFE=_F(TOUT='OUI',
                           MATER=MA,),);

CHAR=AFFE_CHAR_MECA(MODELE=MODE,
                    DDL_IMPO=(_F(GROUP_MA='bas',
                                 DY=0.0,),
                              _F(GROUP_MA='gauche',
                                 DX=0.0,),),
                    PRES_REP=_F(GROUP_MA='haut',
                                PRES=-100.0,),);

RESU=MECA_STATIQUE(MODELE=MODE,
                   CHAM_MATER=MATE,
                   EXCIT=_F(CHARGE=CHAR,),);

RESU=CALC_ELEM(reuse =RESU,


               RESULTAT=RESU,
               OPTION=('SIGM_ELNO_DEPL','EQUI_ELNO_SIGM','EQUI_ELGA_SIGM','SIEF_ELNO',),

);

RESU=CALC_NO(reuse =RESU,
             RESULTAT=RESU,
             OPTION=('SIGM_NOEU_DEPL','EQUI_NOEU_SIGM','SIEF_NOEU',),);

IMPR_RESU(FORMAT='MED',
          UNITE=80,
          RESU=_F(MAILLAGE=MAIL,
                  RESULTAT=RESU,
                  NOM_CHAM=('SIGM_NOEU_DEPL','EQUI_NOEU_SIGM','DEPL','EQUI_ELGA_SIGM','SIEF_NOEU',),),);

TEST_RESU(RESU=_F(RESULTAT=RESU,
                  NUME_ORDRE=1,
                  NOM_CHAM='SIEF_NOEU',
                  NOM_CMP='SIYY',
                  GROUP_NO='B',
                  VALE=300.0,
                  CRITERE='RELATIF',
                  PRECISION=0.03,
                  REFERENCE='ANALYTIQUE',),);

FIN();
