# TITRE 'TP DYNAMIQUE NON LINEAIRE' - PLASCTICITE EN DYNAMIQUE
# ======================================================================
# COPYRIGHT (C) 1991 - 2015  EDF R&D                  WWW.CODE-ASTER.ORG
# THIS PROGRAM IS FREE SOFTWARE; YOU CAN REDISTRIBUTE IT AND/OR MODIFY
# IT UNDER THE TERMS OF THE GNU GENERAL PUBLIC LICENSE AS PUBLISHED BY
# THE FREE SOFTWARE FOUNDATION; EITHER VERSION 2 OF THE LICENSE, OR
# (AT YOUR OPTION) ANY LATER VERSION.
#
# THIS PROGRAM IS DISTRIBUTED IN THE HOPE THAT IT WILL BE USEFUL, BUT
# WITHOUT ANY WARRANTY; WITHOUT EVEN THE IMPLIED WARRANTY OF
# MERCHANTABILITY OR FITNESS FOR A PARTICULAR PURPOSE. SEE THE GNU
# GENERAL PUBLIC LICENSE FOR MORE DETAILS.
#
# YOU SHOULD HAVE RECEIVED A COPY OF THE GNU GENERAL PUBLIC LICENSE
# ALONG WITH THIS PROGRAM; IF NOT, WRITE TO EDF R&D CODE_ASTER,
#    1 AVENUE DU GENERAL DE GAULLE, 92141 CLAMART CEDEX, FRANCE.
# ======================================================================
DEBUT(CODE=_F(NIV_PUB_WEB='INTERNET'),DEBUG=_F(SDVERI='NON'))
# SDVERI='NON' car la verification est trop couteuse en CPU

tfin = 0.1;

pa = 0.002;

fc = 15.0;

om = ((2.0 * pi) * fc);

E = 200.E9;

rho = 8000.0;

nu = 0.3;


LISTR=DEFI_LIST_REEL(DEBUT=0.,
                     INTERVALLE=_F(JUSQU_A=tfin,
                                   PAS=(1.0 * pa),),);

MAIL=LIRE_MAILLAGE(UNITE=20,
                   FORMAT='MED',);

MODELE=AFFE_MODELE(MAILLAGE=MAIL,
                   AFFE=_F(GROUP_MA='VOL',
                           PHENOMENE='MECANIQUE',
                           MODELISATION='3D',),);

MAT=DEFI_MATERIAU(ELAS=_F(E=E,
                          NU=nu,
                          RHO=rho,),
                  ECRO_LINE=_F(D_SIGM_EPSI=(E / 100.0),
                               SY=200.E6,),);

CHMAT=AFFE_MATERIAU(MAILLAGE=MAIL,
                    AFFE=_F(GROUP_MA='VOL',
                            MATER=MAT,),);

TAMAS=POST_ELEM(MASS_INER=_F(TOUT='OUI',),
                MODELE=MODELE,
                CHAM_MATER=CHMAT,);

IMPR_TABLE(TABLE=TAMAS,);

BLOCAGE=AFFE_CHAR_MECA(MODELE=MODELE,
                       DDL_IMPO=_F(GROUP_MA='ENCAS',
                                   LIAISON='ENCASTRE',),);

ASSEMBLAGE(MODELE=MODELE,
           CHAM_MATER=CHMAT,
           CHARGE=BLOCAGE,
           NUME_DDL=CO('NUMEDDL'),
           MATR_ASSE=(_F(MATRICE=CO('RIGIDITE'),
                         OPTION='RIGI_MECA',),
                      _F(MATRICE=CO('MASSE'),
                         OPTION='MASS_MECA',),),);

MODES=CALC_MODES(MATR_RIGI=RIGIDITE,
                 OPTION='BANDE',
                 CALC_FREQ=_F(FREQ=(0,50.0,),
                              ),
                 MATR_MASS=MASSE,
                 )

MODES=NORM_MODE(reuse =MODES,
                MODE=MODES,
                NORME='MASS_GENE',);

MODEE=EXTR_MODE(FILTRE_MODE=_F(MODE=MODES,
                               FREQ_MIN=0.0,
                               FREQ_MAX=100.0,),
                IMPRESSION=_F(CUMUL='OUI',),);

MODEF=EXTR_MODE(FILTRE_MODE=_F(MODE=MODES,
                               FREQ_MIN=0.0,
                               FREQ_MAX=(4.0 * fc),),
                IMPRESSION=_F(CUMUL='OUI',),);

GRAV=AFFE_CHAR_MECA(MODELE=MODELE,
                    PESANTEUR=_F(GRAVITE=300.,
                                 DIRECTION=(-1.,0,1,),),);

PESELEM=CALC_VECT_ELEM(OPTION='CHAR_MECA',
                       CHARGE=GRAV,
                       CHAM_MATER=CHMAT,);

PESA=ASSE_VECTEUR(VECT_ELEM=PESELEM,
                  NUME_DDL=NUMEDDL,);

PROJ_BASE(BASE=MODEF,
          STOCKAGE='DIAG',
          MATR_ASSE_GENE=(_F(MATRICE=CO('MASPRO'),
                             MATR_ASSE=MASSE,),
                          _F(MATRICE=CO('RIGPRO'),
                             MATR_ASSE=RIGIDITE,),),
          VECT_ASSE_GENE=_F(VECTEUR=CO('PESPRO'),
                            VECT_ASSE=PESA,),);

CORGRA=MACRO_ELAS_MULT(MODELE=MODELE,
                       CHAM_MATER=CHMAT,
                       CHAR_MECA_GLOBAL=BLOCAGE,
                       CAS_CHARGE=_F(NOM_CAS='grav',
                                     CHAR_MECA=GRAV,),);

sinom = FORMULE(VALE='sin(om*INST)',
                NOM_PARA='INST',);

dsinom = FORMULE(VALE='om*cos(om*INST)',
                 NOM_PARA='INST',);

d2sinom = FORMULE(VALE='-om**2*sin(om*INST)',
                  NOM_PARA='INST',);

TRANGENE=DYNA_TRAN_MODAL(SCHEMA_TEMPS=_F(SCHEMA='NEWMARK',),
                         MATR_MASS=MASPRO,
                         MATR_RIGI=RIGPRO,
                         VITE_ROTA=0.0,
                         INCREMENT=_F(PAS=pa,
                                      INST_FIN=tfin,),
                         EXCIT=_F(VECT_ASSE_GENE=PESPRO,
                                  FONC_MULT=sinom,
                                  CORR_STAT='OUI',
                                  D_FONC_DT=dsinom,
                                  D_FONC_DT2=d2sinom,),
                         MODE_CORR=CORGRA,);

MODEX=DEFI_BASE_MODALE(RITZ=(_F(MODE_MECA=MODEF,),
                             _F(MODE_INTF=CORGRA,),),
                       NUME_REF=NUMEDDL,);

PROJ_BASE(BASE=MODEX,
          STOCKAGE='PLEIN',
          MATR_ASSE_GENE=(_F(MATRICE=CO('MASPRX'),
                             MATR_ASSE=MASSE,),
                          _F(MATRICE=CO('RIGPRX'),
                             MATR_ASSE=RIGIDITE,),),
          VECT_ASSE_GENE=_F(VECTEUR=CO('PESPRX'),
                            VECT_ASSE=PESA,),);

TRANXENE=DYNA_TRAN_MODAL(SCHEMA_TEMPS=_F(SCHEMA='NEWMARK',),
                         MATR_MASS=MASPRX,
                         MATR_RIGI=RIGPRX,
                         VITE_ROTA=0.0,
                         INCREMENT=_F(PAS=pa,
                                      INST_FIN=tfin,),
                         EXCIT=_F(VECT_ASSE_GENE=PESPRX,
                                  FONC_MULT=sinom,),);

DEPLPDZ=RECU_FONCTION(RESU_GENE=TRANGENE,
                      NOM_CHAM='DEPL',
                      NOM_CMP='DZ',
                      GROUP_NO='P',);

DEPLPDZc=RECU_FONCTION(RESU_GENE=TRANGENE,
                       NOM_CHAM='DEPL',
                       NOM_CMP='DZ',
                       GROUP_NO='P',
                       CORR_STAT='OUI',);

DEPLPDZx=RECU_FONCTION(RESU_GENE=TRANXENE,
                       NOM_CHAM='DEPL',
                       NOM_CMP='DZ',
                       GROUP_NO='P',);

DEPLPDX=RECU_FONCTION(RESU_GENE=TRANGENE,
                      NOM_CHAM='DEPL',
                      NOM_CMP='DX',
                      GROUP_NO='P',);

DEPLPDXc=RECU_FONCTION(RESU_GENE=TRANGENE,
                       NOM_CHAM='DEPL',
                       NOM_CMP='DX',
                       GROUP_NO='P',
                       CORR_STAT='OUI',);

DEPLPDXx=RECU_FONCTION(RESU_GENE=TRANXENE,
                       NOM_CHAM='DEPL',
                       NOM_CMP='DX',
                       GROUP_NO='P',);

TRANSD=DYNA_LINE_TRAN(MATR_MASS=MASSE,
                      MATR_RIGI=RIGIDITE,
                      SCHEMA_TEMPS=_F(SCHEMA='NEWMARK',),
                      EXCIT=_F(VECT_ASSE=PESA,
                               FONC_MULT=sinom,),
                      INCREMENT=_F(LIST_INST=LISTR,),);

DEPLPDZd=RECU_FONCTION(RESULTAT=TRANSD,
                       NOM_CHAM='DEPL',
                       NOM_CMP='DZ',
                       GROUP_NO='P',);

DEPLPDXd=RECU_FONCTION(RESULTAT=TRANSD,
                       NOM_CHAM='DEPL',
                       NOM_CMP='DX',
                       GROUP_NO='P',);

IMPR_FONCTION(FORMAT='XMGRACE',
              UNITE=30,
              COURBE=(_F(FONCTION=DEPLPDX,
                         MARQUEUR=0,),
                      _F(FONCTION=DEPLPDXx,
                         MARQUEUR=0,),
                      _F(FONCTION=DEPLPDXc,
                         MARQUEUR=0,),
                      _F(FONCTION=DEPLPDXd,
                         MARQUEUR=0,),),);

TRANSI=REST_GENE_PHYS(RESU_GENE=TRANGENE,
                      NOM_CHAM='DEPL',);

TRANSI=CALC_CHAMP(reuse =TRANSI,
                  MODELE=MODELE,
                  CHAM_MATER=CHMAT,
                  RESULTAT=TRANSI,
                  CONTRAINTE=('SIEF_ELGA','SIGM_ELNO',),);

TRANSI=CALC_CHAMP(reuse =TRANSI,
                  RESULTAT=TRANSI,
                  EXCIT=_F(CHARGE=GRAV,
                           FONC_MULT=sinom,),
                  CONTRAINTE='SIGM_NOEU',
                  CRITERES='SIEQ_NOEU',);

VMISO=RECU_FONCTION(RESULTAT=TRANSI,
                    NOM_CHAM='SIEQ_NOEU',
                    NOM_CMP='VMIS',
                    GROUP_NO='O',);

IMPR_FONCTION(FORMAT='XMGRACE',
              UNITE=31,
              COURBE=_F(FONCTION=VMISO,),);

LIS=DEFI_LIST_INST(DEFI_LIST=_F(METHODE='MANUEL',
                                LIST_INST=LISTR,),
                   ECHEC=_F(SUBD_NIVEAU=5,
                            SUBD_PAS_MINI=1e-5,
                            SUBD_METHODE='MANUEL',),);

DYNADNL=DYNA_NON_LINE(MODELE=MODELE,
                      CHAM_MATER=CHMAT,
                      EXCIT=(_F(CHARGE=BLOCAGE,),
                             _F(CHARGE=GRAV,
                                FONC_MULT=sinom,),),
                      COMPORTEMENT=_F(RELATION='VMIS_CINE_LINE',
                                      DEFORMATION='PETIT',
                                      TOUT='OUI',),
                      INCREMENT=_F(LIST_INST=LIS,),
                      SCHEMA_TEMPS=_F(SCHEMA='NEWMARK',
                                      FORMULATION='DEPLACEMENT',),
                      NEWTON=_F(),
                      CONVERGENCE=_F(ITER_GLOB_MAXI=30,
                                     
                                     ARRET='OUI',),);

DEPLPDZn=RECU_FONCTION(RESULTAT=DYNADNL,
                       NOM_CHAM='DEPL',
                       NOM_CMP='DZ',
                       GROUP_NO='P',);

IMPR_FONCTION(FORMAT='XMGRACE',
              COURBE=(_F(FONCTION=DEPLPDZ,
                         MARQUEUR=0,),
                      _F(FONCTION=DEPLPDZn,
                         MARQUEUR=0,),
                      _F(FONCTION=DEPLPDZx,
                         MARQUEUR=0,),
                      _F(FONCTION=DEPLPDZc,
                         MARQUEUR=0,),
                      _F(FONCTION=DEPLPDZd,
                         MARQUEUR=0,),),);


TEST_FONCTION(VALEUR=(_F(
                         FONCTION=DEPLPDZn,
                         VALE_PARA=0.05,
                         VALE_CALC=0.14511664
                      )))


FIN();
