# MODIF  DATE 10/10/2012   AUTEUR COURTOIS M.COURTOIS 
# TITRE TP DYNAMIQUE LINEAIRE
# forma12d.para = tps_job 180 mem_job 512Mo ncpus 1 liste_test S
#            CONFIGURATION MANAGEMENT OF EDF VERSION
# ======================================================================
# COPYRIGHT (C) 1991 - 2012  EDF R&D                  WWW.CODE-ASTER.ORG
# THIS PROGRAM IS FREE SOFTWARE; YOU CAN REDISTRIBUTE IT AND/OR MODIFY
# IT UNDER THE TERMS OF THE GNU GENERAL PUBLIC LICENSE AS PUBLISHED BY
# THE FREE SOFTWARE FOUNDATION; EITHER VERSION 2 OF THE LICENSE, OR
# (AT YOUR OPTION) ANY LATER VERSION.
#
# THIS PROGRAM IS DISTRIBUTED IN THE HOPE THAT IT WILL BE USEFUL, BUT
# WITHOUT ANY WARRANTY; WITHOUT EVEN THE IMPLIED WARRANTY OF
# MERCHANTABILITY OR FITNESS FOR A PARTICULAR PURPOSE. SEE THE GNU
# GENERAL PUBLIC LICENSE FOR MORE DETAILS.
#
# YOU SHOULD HAVE RECEIVED A COPY OF THE GNU GENERAL PUBLIC LICENSE
# ALONG WITH THIS PROGRAM; IF NOT, WRITE TO EDF R&D CODE_ASTER,
#    1 AVENUE DU GENERAL DE GAULLE, 92141 CLAMART CEDEX, FRANCE.
# ======================================================================
# RESPONSABLE BOYERE E.BOYERE
#-----------------------------------------------------------------------
#

DEBUT(CODE=_F(NOM='FORMA12D',NIV_PUB_WEB='INTERNET'),DEBUG=_F(SDVERI='OUI'))

MAIL=LIRE_MAILLAGE(UNITE=20,
                   FORMAT='MED',);

MODELE=AFFE_MODELE(MAILLAGE=MAIL,
                   AFFE=_F(TOUT='OUI',
                           PHENOMENE='MECANIQUE',
                           MODELISATION='3D',),);

BA=DEFI_MATERIAU(ELAS=_F(E=2E10,
                         NU=.2,
                         RHO=2500.0,),);

CHMAT=AFFE_MATERIAU(MAILLAGE=MAIL,
                    AFFE=_F(TOUT='OUI',
                            MATER=BA,),);

BLOCAGE=AFFE_CHAR_MECA(MODELE=MODELE,
                       DDL_IMPO=_F(GROUP_MA='Enca',
                                   DX=0.0,
                                   DY=0.0,
                                   DZ=0.0,),);

MACRO_MATR_ASSE(MODELE=MODELE,
                CHAM_MATER=CHMAT,
                CHARGE=BLOCAGE,
                NUME_DDL=CO('NUMEDDL'),
                MATR_ASSE=(_F(MATRICE=CO('RIGIDITE'),
                              OPTION='RIGI_MECA',),
                           _F(MATRICE=CO('MASSE'),
                              OPTION='MASS_MECA',),),);

MODES=MODE_ITER_SIMULT(MATR_RIGI=RIGIDITE,
                       MATR_MASS=MASSE,
                       CALC_FREQ=_F(OPTION='PLUS_PETITE',
                                    NMAX_FREQ=20,),);


omega = 25.0;

ex = 0.3;

mb = 500.0;

Balourd = ((mb * (((2 * pi) * omega) ** 2)) * ex);

r = 0.5;

surf = (pi * (r ** 2));


FOSA=AFFE_CHAR_MECA(MODELE=MODELE,
                    PRES_REP=_F(GROUP_MA='Moteur',
                                PRES=(Balourd / surf),),);


FOEL=CALC_VECT_ELEM(OPTION='CHAR_MECA',
                    CHARGE=FOSA,);

FOAS=ASSE_VECTEUR(VECT_ELEM=FOEL,
                  NUME_DDL=NUMEDDL,);

MOSTRA=MACRO_ELAS_MULT(MODELE=MODELE,
                       CHAM_MATER=CHMAT,
                       CHAR_MECA_GLOBAL=BLOCAGE,
                       CAS_CHARGE=_F(NOM_CAS='momo',
                                     TYPE_MODE='TOUS',
                                     CHAR_MECA=FOSA,),);

PROJ_BASE(BASE=MODES,
                STOCKAGE='DIAG',
                MATR_ASSE_GENE=(_F(MATRICE=CO('MAGENE'),
                                   MATR_ASSE=MASSE,),
                                _F(MATRICE=CO('GEGENE'),
                                   MATR_ASSE=RIGIDITE,),),
                VECT_ASSE_GENE=_F(VECTEUR=CO('FOGENE'),
                                  VECT_ASSE=FOAS,),);

sin25 = FORMULE(VALE='sin(2*pi*omega *INST)',
                NOM_PARA='INST',);

dsin25 = FORMULE(VALE='2*pi*omega*cos(2*pi*omega*INST)',
                 NOM_PARA='INST',);

d2sin25 = FORMULE(VALE='-(2*pi*omega)**2*sin(2*pi*omega*INST)',
                  NOM_PARA='INST',);

DYNACORR=DYNA_VIBRA(TYPE_CALCUL='TRAN',BASE_CALCUL='GENE',
                         MATR_MASS=MAGENE,
                         MATR_RIGI=GEGENE,
                         MODE_CORR=MOSTRA,
                         SCHEMA_TEMPS=_F(SCHEMA='EULER',),
                         INCREMENT=_F(INST_FIN=1.0,
                                      PAS=1.E-4,),
                         EXCIT=_F(VECT_ASSE_GENE=FOGENE,
                                  FONC_MULT=sin25,
                                  CORR_STAT='OUI',
                                  D_FONC_DT=dsin25,
                                  D_FONC_DT2=d2sin25,),);

DYNASAN=DYNA_VIBRA(TYPE_CALCUL='TRAN',BASE_CALCUL='GENE',
                        MATR_MASS=MAGENE,
                        MATR_RIGI=GEGENE,
#                        MODE_CORR=MOSTRA,
                        SCHEMA_TEMPS=_F(SCHEMA='EULER',),
                        INCREMENT=_F(INST_FIN=1.0,
                                     PAS=1.E-4,),
                        EXCIT=_F(VECT_ASSE_GENE=FOGENE,
                                 FONC_MULT=sin25,),);


DEPMOCO=RECU_FONCTION(RESU_GENE=DYNACORR,
                      NOM_CHAM='DEPL',
                      NOM_CMP='DZ',
                      GROUP_NO='Mom',
                      CORR_STAT='OUI',);

DEPMOSA=RECU_FONCTION(RESU_GENE=DYNASAN,
                      NOM_CHAM='DEPL',
                      NOM_CMP='DZ',
                      GROUP_NO='Mom',);


IMPR_FONCTION(FORMAT='XMGRACE',
              UNITE=29,
              COURBE=(_F(FONCTION=DEPMOCO,
                         MARQUEUR=0,),
                      _F(FONCTION=DEPMOSA,
                         MARQUEUR=0,),))

TEST_FONCTION(VALEUR=(_F(VALE_CALC=3.4478489999999998E-4,
                         TOLE_MACHINE=1.E-3,
                         VALE_PARA=0.91000000000000003,
                         FONCTION=DEPMOCO,
                         ),
                      _F(VALE_CALC=1.8118029999999999E-4,
                         TOLE_MACHINE=1.E-3,
                         VALE_PARA=0.91000000000000003,
                         FONCTION=DEPMOSA,
                         ),
                      ),
              )

FIN();






