# MODIF  DATE 03/11/2004   AUTEUR MCOURTOI M.COURTOIS 
# RESPONSABLE JMBHH01 J.M.PROIX
# TITRE ENONCE TP2 FORMATION THERMOPLASTICITE PLAQUE TROUEE EN TRACTION
#            CONFIGURATION MANAGEMENT OF EDF VERSION
# ======================================================================
# COPYRIGHT (C) 1991 - 2002  EDF R&D                  WWW.CODE-ASTER.ORG
# THIS PROGRAM IS FREE SOFTWARE; YOU CAN REDISTRIBUTE IT AND/OR MODIFY  
# IT UNDER THE TERMS OF THE GNU GENERAL PUBLIC LICENSE AS PUBLISHED BY  
# THE FREE SOFTWARE FOUNDATION; EITHER VERSION 2 OF THE LICENSE, OR     
# (AT YOUR OPTION) ANY LATER VERSION.                                                    
#                                                                       
# THIS PROGRAM IS DISTRIBUTED IN THE HOPE THAT IT WILL BE USEFUL, BUT   
# WITHOUT ANY WARRANTY; WITHOUT EVEN THE IMPLIED WARRANTY OF            
# MERCHANTABILITY OR FITNESS FOR A PARTICULAR PURPOSE. SEE THE GNU      
# GENERAL PUBLIC LICENSE FOR MORE DETAILS.                              
#                                                                       
# YOU SHOULD HAVE RECEIVED A COPY OF THE GNU GENERAL PUBLIC LICENSE     
# ALONG WITH THIS PROGRAM; IF NOT, WRITE TO EDF R&D CODE_ASTER,         
#    1 AVENUE DU GENERAL DE GAULLE, 92141 CLAMART CEDEX, FRANCE.        
# ======================================================================

DEBUT(CODE=_F(NOM='FORMA03A',
              NIV_PUB_WEB='INTERNET',),);

PRE_GIBI();

M=LIRE_MAILLAGE(VERI_MAIL=_F(),);

# PLAQUE TROUEE : CONTRAINTES PLANES

MO=AFFE_MODELE(MAILLAGE=M,
               VERIF='MAILLE',
               AFFE=_F(TOUT='OUI',
                       PHENOMENE='MECANIQUE',
                       MODELISATION='C_PLAN',),);
# COURBE DE TRACTION

CTRAC=DEFI_FONCTION(NOM_PARA='EPSI',
                    VALE=(0.004,4.0,0.006,5.0,0.009,5.5,0.02,6.0,),
                    PROL_DROITE='CONSTANT',);

MA=DEFI_MATERIAU(ELAS=_F(E=1000.0,
                         NU=0.3,),
                 TRACTION=_F(SIGM=CTRAC,),);

CM=AFFE_MATERIAU(MAILLAGE=M,
                 AFFE=_F(TOUT='OUI',
                         MATER=MA,),);
# CONDITIONS DE SYMETRIE (QUART DE PLAQUE)

CH1=AFFE_CHAR_MECA(MODELE=MO,
                   FACE_IMPO=(_F(GROUP_MA=('LBC','LCD',),
                                 DY=0.0,),
                              _F(GROUP_MA=('LGH','LHI','LIA',),
                                 DX=0.0,),),);
# TRACTION REPARTIE SUR LE HAUT

CH2=AFFE_CHAR_MECA(MODELE=MO,
                   FORCE_CONTOUR=_F(GROUP_MA='LFG',
                                    FY=1.0,),);
# L INSTANT EST EGAL A LA VALEUR DE LA TRACTION SUR LFG

F_DEPL=DEFI_FONCTION(NOM_PARA='INST',
                     VALE=(0.0,0.0,10.0,10.0,),);
# DISCRETISATION EN TEMPS

L_INST=DEFI_LIST_REEL(DEBUT=0.0,
                      INTERVALLE=(_F(JUSQU_A=1,
                                     NOMBRE=1,),
                                  _F(JUSQU_A=5.4,
                                     NOMBRE=22,),
                                  _F(JUSQU_A=6.0,
                                     NOMBRE=60,),),);
# PREMIER CALCUL : ON RESTE ELASTIQUE

RESUNL=STAT_NON_LINE(MODELE=MO,
                     CHAM_MATER=CM,
                     EXCIT=(_F(CHARGE=CH1,),
                            _F(CHARGE=CH2,
                               FONC_MULT=F_DEPL,),),
                     COMP_INCR=_F(RELATION='VMIS_ISOT_TRAC',),
                     INCREMENT=_F(LIST_INST=L_INST,
                                  INST_FIN=1.0,),);
# CALCUL SANS SOUCI JUSQU'A 5.4 MPA
# SUBDIVISION DU PAS DE TEMPS
# LE NOMBRE D'ITERATIONS POUR CONVERGER AUGMENTE

RESUNL=STAT_NON_LINE(reuse =RESUNL,
                     MODELE=MO,
                     CHAM_MATER=CM,
                     EXCIT=(_F(CHARGE=CH1,),
                            _F(CHARGE=CH2,
                               FONC_MULT=F_DEPL,),),
                     COMP_INCR=_F(RELATION='VMIS_ISOT_TRAC',),
                     ETAT_INIT=_F(EVOL_NOLI=RESUNL,),
                     INCREMENT=_F(LIST_INST=L_INST,
                                  INST_FIN=5.4,
                                  SUBD_PAS=4,
                                  SUBD_PAS_MINI=0.0001,),
                     NEWTON=_F(REAC_ITER=1,),
                     ARCHIVAGE=_F(LIST_INST=L_INST,),);
# AU DELA DE 5.4 : METTRE UN COMMENTAIRE NON CONVERGENCE A 5.42 MPA
# ON DEPASSE SANS DOUTE LA CHARGE LIMITE
# ON PEUT LE VOIR EN COMMENTANT INST_FIN=5.4
#
# INTERPOLATION DES CONTRAINTES ET VARIABLE INTERNES AUX NOEUDS

RESUNL=CALC_ELEM(reuse =RESUNL,
                 OPTION=('SIEF_ELNO_ELGA','VARI_ELNO_ELGA','EQUI_ELGA_SIGM',),
                 RESULTAT=RESUNL,);
# DEPOUILLEMENTS DES RESULTATS
# VALEURS MAXI DES CONTRAINTES EQUIVALENTES ET DES VARIABLES INTERNES

IMPR_RESU(MODELE=MO,
          RESU=(_F(RESULTAT=RESUNL,
                   NOM_CHAM='EQUI_ELGA_SIGM',
                   VALE_MAX='OUI',),
                _F(RESULTAT=RESUNL,
                   NOM_CHAM='VARI_ELGA',
                   VALE_MAX='OUI',),),);

RESUNL=CALC_NO(reuse =RESUNL,
               RESULTAT=RESUNL,
               OPTION='SIEF_NOEU_ELGA',);

TEST_RESU(RESU=(_F(RESULTAT=RESUNL,
                   INST=1.0,
                   NOM_CHAM='SIEF_NOEU_ELGA',
                   NOM_CMP='SIYY',
                   GROUP_NO='B',
                   VALE=3.0,
                   PRECISION=0.01,
                   REFERENCE='ANALYTIQUE',),
                _F(RESULTAT=RESUNL,
                   INST=1.0,
                   NOM_CHAM='SIEF_NOEU_ELGA',
                   NOM_CMP='SIXX',
                   GROUP_NO='A',
                   VALE=-1.0,
                   PRECISION=0.03,
                   REFERENCE='ANALYTIQUE',),
                _F(RESULTAT=RESUNL,
                   INST=5.4,
                   NOM_CHAM='SIEF_NOEU_ELGA',
                   NOM_CMP='SIYY',
                   GROUP_NO='G',
                   VALE=5.4,
                   REFERENCE='ANALYTIQUE',),),);

FIN();
