# TITRE TP DYNAMIQUE TRANSITOIRE - ANALYSE MODALE
# ======================================================================
# COPYRIGHT (C) 1991 - 2015  EDF R&D                  WWW.CODE-ASTER.ORG
# THIS PROGRAM IS FREE SOFTWARE; YOU CAN REDISTRIBUTE IT AND/OR MODIFY
# IT UNDER THE TERMS OF THE GNU GENERAL PUBLIC LICENSE AS PUBLISHED BY
# THE FREE SOFTWARE FOUNDATION; EITHER VERSION 2 OF THE LICENSE, OR
# (AT YOUR OPTION) ANY LATER VERSION.
#
# THIS PROGRAM IS DISTRIBUTED IN THE HOPE THAT IT WILL BE USEFUL, BUT
# WITHOUT ANY WARRANTY; WITHOUT EVEN THE IMPLIED WARRANTY OF
# MERCHANTABILITY OR FITNESS FOR A PARTICULAR PURPOSE. SEE THE GNU
# GENERAL PUBLIC LICENSE FOR MORE DETAILS.
#
# YOU SHOULD HAVE RECEIVED A COPY OF THE GNU GENERAL PUBLIC LICENSE
# ALONG WITH THIS PROGRAM; IF NOT, WRITE TO EDF R&D CODE_ASTER,
#    1 AVENUE DU GENERAL DE GAULLE, 92141 CLAMART CEDEX, FRANCE.
# ======================================================================
# person_in_charge: emmanuel.boyere at edf.fr
#


DEBUT(CODE=_F(NIV_PUB_WEB='INTERNET'),DEBUG=_F(SDVERI='OUI'))

E = 200.E9;

rho = 8000.0;

nu = 0.3;


MAIL=LIRE_MAILLAGE(UNITE=20,
                   FORMAT='MED',);

MODELE=AFFE_MODELE(MAILLAGE=MAIL,
                   AFFE=_F(GROUP_MA='VOL',
                           PHENOMENE='MECANIQUE',
                           MODELISATION='3D',),);

MAT=DEFI_MATERIAU(ELAS=_F(E=E,
                          NU=nu,
                          RHO=rho,),)

CHMAT=AFFE_MATERIAU(MAILLAGE=MAIL,
                    AFFE=_F(GROUP_MA='VOL',
                            MATER=MAT,),);

TAMAS=POST_ELEM(MASS_INER=_F(TOUT='OUI',),
                MODELE=MODELE,
                CHAM_MATER=CHMAT,);

IMPR_TABLE(TABLE=TAMAS,);

BLOCAGE=AFFE_CHAR_MECA(MODELE=MODELE,
                       DDL_IMPO=_F(GROUP_MA='ENCAS',
                                   LIAISON='ENCASTRE',),);

ASSEMBLAGE(MODELE=MODELE,
           CHAM_MATER=CHMAT,
           CHARGE=BLOCAGE,
           NUME_DDL=CO('NUMEDDL'),
           MATR_ASSE=(_F(MATRICE=CO('RIGIDITE'),
                         OPTION='RIGI_MECA',),
                      _F(MATRICE=CO('MASSE'),
                         OPTION='MASS_MECA',),),);

MODES=CALC_MODES(MATR_RIGI=RIGIDITE,
                 OPTION='BANDE',
                 CALC_FREQ=_F(FREQ=(0,50.0,),
                              ),
                 MATR_MASS=MASSE,
                 )

MODES=NORM_MODE(reuse =MODES,
                MODE=MODES,
                NORME='MASS_GENE',);

IMPR_RESU(FORMAT='MED',
          UNITE=80,
          RESU=_F(RESULTAT=MODES,),);

TEST_RESU(RESU=(_F(NUME_ORDRE=1,
                   PARA='FREQ',
                   RESULTAT=MODES,
                   VALE_CALC=6.28873 ),
                _F(NUME_ORDRE=2,
                   PARA='FREQ',
                   RESULTAT=MODES,
                   VALE_CALC=15.352871942104),
                _F(NUME_ORDRE=3,
                   PARA='FREQ',
                   RESULTAT=MODES,
                   VALE_CALC=3.85486E+01 ),
                _F(NUME_ORDRE=4,
                   PARA='FREQ',
                   RESULTAT=MODES,
                   VALE_CALC=4.90722E+01 ),
                ),
          )

FIN();
