# MODIF  DATE 18/03/2003   AUTEUR VABHHTS J.PELLET 
# RESPONSABLE sellali N.SELLALI
# TITRE ENONCE DU TP3D DE LA FORMATION POST TRAITEMENT
#            CONFIGURATION MANAGEMENT OF EDF VERSION
# ======================================================================
# COPYRIGHT (C) 1991 - 2002  EDF R&D                  WWW.CODE-ASTER.ORG
# THIS PROGRAM IS FREE SOFTWARE; YOU CAN REDISTRIBUTE IT AND/OR MODIFY
# IT UNDER THE TERMS OF THE GNU GENERAL PUBLIC LICENSE AS PUBLISHED BY
# THE FREE SOFTWARE FOUNDATION; EITHER VERSION 2 OF THE LICENSE, OR
# (AT YOUR OPTION) ANY LATER VERSION.
#
# THIS PROGRAM IS DISTRIBUTED IN THE HOPE THAT IT WILL BE USEFUL, BUT
# WITHOUT ANY WARRANTY; WITHOUT EVEN THE IMPLIED WARRANTY OF
# MERCHANTABILITY OR FITNESS FOR A PARTICULAR PURPOSE. SEE THE GNU
# GENERAL PUBLIC LICENSE FOR MORE DETAILS.
#
# YOU SHOULD HAVE RECEIVED A COPY OF THE GNU GENERAL PUBLIC LICENSE
# ALONG WITH THIS PROGRAM; IF NOT, WRITE TO EDF R&D CODE_ASTER,
#    1 AVENUE DU GENERAL DE GAULLE, 92141 CLAMART CEDEX, FRANCE.
# ======================================================================

DEBUT(CODE=_F(NOM='FORMA08A',NIV_PUB_WEB='INTERNET'),);

PRE_GIBI();

MAIL=LIRE_MAILLAGE(VERI_MAIL=_F(VERIF='NON'),);

DEFI_GROUP(reuse =MAIL,
                MAILLAGE=MAIL,
                CREA_GROUP_NO=(_F(GROUP_MA='ENCAST',),
                               _F(GROUP_MA='SYMETRIE',),
                               _F(GROUP_MA='EFOND',),
                               _F(GROUP_MA='SURFINT',),
                               _F(GROUP_MA='SURFEXT',),),);

MODMECA=AFFE_MODELE(MAILLAGE=MAIL,
                    AFFE=_F(TOUT='OUI',
                            PHENOMENE='MECANIQUE',
                            MODELISATION='3D',),);


ACIER=DEFI_MATERIAU(ELAS=_F(E=2.04E11,
                            NU=0.3,
                            ALPHA=1.092E-05,),);

CHMAT=AFFE_MATERIAU(MAILLAGE=MAIL,
                    AFFE=_F(TOUT='OUI',
                            MATER=ACIER,),);

MODI_MAILLAGE(reuse =MAIL,
                   MAILLAGE=MAIL,
                   ORIE_PEAU_3D=(_F(GROUP_MA='SURFINT',),
                                 _F(GROUP_MA='EFOND',),),
                   MODELE=MODMECA,);

REXT=DEFI_VALEUR(R8=0.2,);
EPTUB=DEFI_VALEUR(R8=0.02,);
FYTOT=DEFI_VALEUR(R8=100000.0,);

RINT=DEFI_VALEUR(R8=EVAL("""REXT-EPTUB"""),);

SINT=DEFI_VALEUR(R8=EVAL("""PI*(RINT*RINT)"""),);

SEXT=DEFI_VALEUR(R8=EVAL("""PI*(REXT*REXT)"""),);

SFON=DEFI_VALEUR(R8=EVAL("""SEXT-SINT"""),);

FYREP=DEFI_VALEUR(R8=EVAL("""FYTOT/SFON"""),);


CHARGF=AFFE_CHAR_MECA(MODELE=MODMECA,
                      DDL_IMPO=(_F(GROUP_NO='ENCAST',
                                   DX=0.0,
                                   DY=0.0,
                                   DZ=0.0,),
                                _F(GROUP_NO='SYMETRIE',
                                   DZ=0.0,),),
                      FORCE_FACE=_F(GROUP_MA='EFOND',
                                    FY=FYREP,),);


RESU=MECA_STATIQUE(MODELE=MODMECA,
                    CHAM_MATER=CHMAT,
                     EXCIT=_F(CHARGE=CHARGF,),
                     );

CALC_ELEM( reuse= RESU ,RESULTAT= RESU , MODELE=MODMECA,
                    CHAM_MATER=CHMAT,
                     EXCIT=_F(CHARGE=CHARGF,),
                     OPTION='SIGM_ELNO_DEPL',);



TABDEP1=POST_RELEVE_T(ACTION=_F(INTITULE='DEPB1',
                                GROUP_NO='EFOND',
                                RESULTAT=RESU,
                                NOM_CHAM='DEPL',
                                TOUT_CMP='OUI',
                                OPERATION='MOYENNE',),);


TEST_TABLE(TABLE=TABDEP1,
           FILTRE=_F(NOM_PARA='QUANTITE',
                     VALE_K='MOMENT_0',),
           NOM_PARA='DX',
           VALE=-0.0290667935107,
           PRECISION=1.E-4,
           REFERENCE='NON_REGRESSION',);

TEST_TABLE(TABLE=TABDEP1,
           FILTRE=_F(NOM_PARA='QUANTITE',
                     VALE_K='MOMENT_0',),
           NOM_PARA='DY',
           VALE=0.106543262917,
           PRECISION=1.E-4,
           REFERENCE='NON_REGRESSION',);


FIN();
