# MODIF  DATE 05/03/2012   AUTEUR PELLET J.PELLET 
# RESPONSABLE ABBAS M.ABBAS
# TITRE ENONCE FORMATION PLAQUE TROUEE EN TRACTION EN ELASTICITE
# forma03a.para = tps_job 60 mem_job 64Mo ncpus 1 liste_test R
#            CONFIGURATION MANAGEMENT OF EDF VERSION
# ======================================================================
# COPYRIGHT (C) 1991 - 2012  EDF R&D                  WWW.CODE-ASTER.ORG
# THIS PROGRAM IS FREE SOFTWARE; YOU CAN REDISTRIBUTE IT AND/OR MODIFY
# IT UNDER THE TERMS OF THE GNU GENERAL PUBLIC LICENSE AS PUBLISHED BY
# THE FREE SOFTWARE FOUNDATION; EITHER VERSION 2 OF THE LICENSE, OR
# (AT YOUR OPTION) ANY LATER VERSION.
#
# THIS PROGRAM IS DISTRIBUTED IN THE HOPE THAT IT WILL BE USEFUL, BUT
# WITHOUT ANY WARRANTY; WITHOUT EVEN THE IMPLIED WARRANTY OF
# MERCHANTABILITY OR FITNESS FOR A PARTICULAR PURPOSE. SEE THE GNU
# GENERAL PUBLIC LICENSE FOR MORE DETAILS.
#
# YOU SHOULD HAVE RECEIVED A COPY OF THE GNU GENERAL PUBLIC LICENSE
# ALONG WITH THIS PROGRAM; IF NOT, WRITE TO EDF R&D CODE_ASTER,
#    1 AVENUE DU GENERAL DE GAULLE, 92141 CLAMART CEDEX, FRANCE.
# ======================================================================

DEBUT(CODE=_F(NOM='FORMA03A',
              NIV_PUB_WEB='INTERNET',
VISU_EFICAS='OUI',),DEBUG=_F(SDVERI='OUI'))


# LECTURE DU MAILLAGE
MAIL=LIRE_MAILLAGE(FORMAT='MED',);

MAIL=MODI_MAILLAGE(reuse =MAIL,
                   MAILLAGE=MAIL,
                   ORIE_PEAU_2D=_F(GROUP_MA='haut',),);

# AFFECTATION DU MODELE (CONTRAINTES PLANES)
MODE=AFFE_MODELE(MAILLAGE=MAIL,
                 AFFE=_F(TOUT='OUI',
                         PHENOMENE='MECANIQUE',
                         MODELISATION='C_PLAN',),);

# DEFINITION DU MATERIAU
ACIER=DEFI_MATERIAU(ELAS=_F(E=200000.0,
                    NU=0.3,),);

CHMATE=AFFE_MATERIAU(MAILLAGE=MAIL,
                     AFFE=_F(TOUT='OUI',
                           MATER=ACIER,),);

# CONDITIONS DE SYMETRIE
CHSYME=AFFE_CHAR_CINE(MODELE=MODE,
                      MECA_IMPO=(_F(GROUP_MA='bas',
                                 DY=0.0,),
                                 _F(GROUP_MA='gauche',
                                 DX=0.0,),),
                                );

# CHARGEMENT EN FORCE
CHFORC=AFFE_CHAR_MECA(MODELE=MODE,
                      FORCE_CONTOUR=_F(GROUP_MA='haut',
                                       FY=1.,),);


# RAMPE APPLICATION CHARGEMENT
RAMPE=DEFI_FONCTION(NOM_PARA='INST',VALE=(0.0,0.0,
                           1000.,1000.,
                           ),);

# DISCRETISATION EN TEMPS
L_INST=DEFI_LIST_REEL(DEBUT=0.0,
                      INTERVALLE=_F(JUSQU_A=10.0,NOMBRE=1,),);
DEFLIST =DEFI_LIST_INST(DEFI_LIST=_F(LIST_INST = L_INST,),)


# CALCUL
RESU=STAT_NON_LINE(MODELE=MODE,
                   CHAM_MATER=CHMATE,
                   EXCIT=(_F(CHARGE=CHSYME,),
                          _F(CHARGE=CHFORC,
                             FONC_MULT=RAMPE,),),
                   COMP_INCR=_F(RELATION='ELAS',),
                   INCREMENT=_F(LIST_INST=DEFLIST,INST_FIN=10.),);

# INTERPOLATION DES CONTRAINTES AUX NOEUDS
RESU=CALC_ELEM(reuse =RESU,
               RESULTAT=RESU,
               OPTION=('SIGM_ELNO',),);

RESU=CALC_CHAMP(reuse =RESU,
             RESULTAT=RESU,
             CONTRAINTE='SIGM_NOEU');

# INTERPOLATION DES CONTRAINTES EQUIVALENTES AUX NOEUDS
RESU=CALC_ELEM(reuse =RESU,
               RESULTAT=RESU,
               OPTION=('SIEQ_ELGA','SIEQ_ELNO'),);

RESU=CALC_CHAMP(reuse =RESU,
             RESULTAT=RESU,
             CRITERES='SIEQ_NOEU');

# IMPRESSION DES RESULTATS
IMPR_RESU(FORMAT='MED',
          RESU=_F(RESULTAT=RESU,),);


TEST_RESU(RESU=_F(RESULTAT=RESU,
                  NUME_ORDRE=1,
                  NOM_CHAM='SIGM_NOEU',
                  NOM_CMP='SIYY',
                  GROUP_NO='B',
                  VALE=30.0,
                  CRITERE='RELATIF',
                  PRECISION=0.01,
                  REFERENCE='ANALYTIQUE',),);

TEST_RESU(RESU=_F(RESULTAT=RESU,
                  NUME_ORDRE=1,
                  NOM_CHAM='SIGM_NOEU',
                  NOM_CMP='SIXX',
                  GROUP_NO='A',
                  VALE=-10.0,
                  CRITERE='RELATIF',
                  PRECISION=0.02,
                  REFERENCE='ANALYTIQUE',),);

TEST_RESU(RESU=_F(RESULTAT=RESU,
                  NUME_ORDRE=1,
                  NOM_CHAM='SIGM_NOEU',
                  NOM_CMP='SIYY',
                  GROUP_NO='B',
                  VALE=29.809234113416,
                  CRITERE='RELATIF',
                  PRECISION=1.E-8,
                  REFERENCE='NON_REGRESSION',),);

TEST_RESU(RESU=_F(RESULTAT=RESU,
                  NUME_ORDRE=1,
                  NOM_CHAM='SIGM_NOEU',
                  NOM_CMP='SIXX',
                  GROUP_NO='A',
                  VALE=-9.8213909205095,
                  CRITERE='RELATIF',
                  PRECISION=1.E-8,
                  REFERENCE='NON_REGRESSION',),);


FIN();
