# MODIF  DATE 15/11/2004   AUTEUR MCOURTOI M.COURTOIS 
# TITRE TP DYNAMIQUE TRANSITOIRE
#            CONFIGURATION MANAGEMENT OF EDF VERSION
# ======================================================================
# COPYRIGHT (C) 1991 - 2004  EDF R&D                  WWW.CODE-ASTER.ORG
# THIS PROGRAM IS FREE SOFTWARE; YOU CAN REDISTRIBUTE IT AND/OR MODIFY  
# IT UNDER THE TERMS OF THE GNU GENERAL PUBLIC LICENSE AS PUBLISHED BY  
# THE FREE SOFTWARE FOUNDATION; EITHER VERSION 2 OF THE LICENSE, OR     
# (AT YOUR OPTION) ANY LATER VERSION.                                                    
#                                                                       
# THIS PROGRAM IS DISTRIBUTED IN THE HOPE THAT IT WILL BE USEFUL, BUT   
# WITHOUT ANY WARRANTY; WITHOUT EVEN THE IMPLIED WARRANTY OF            
# MERCHANTABILITY OR FITNESS FOR A PARTICULAR PURPOSE. SEE THE GNU      
# GENERAL PUBLIC LICENSE FOR MORE DETAILS.                              
#                                                                       
# YOU SHOULD HAVE RECEIVED A COPY OF THE GNU GENERAL PUBLIC LICENSE     
# ALONG WITH THIS PROGRAM; IF NOT, WRITE TO EDF R&D CODE_ASTER,         
#    1 AVENUE DU GENERAL DE GAULLE, 92141 CLAMART CEDEX, FRANCE.        
# ======================================================================
# RESPONSABLE BOYERE E.BOYERE
#
# RQ: SUITE DU TPAM1, PREMIER TP D'ANALYSE MODALE
#-------------------------------------------------------------------
#
#
#
#


DEBUT(CODE=_F(NOM ='FORMA12A',NIV_PUB_WEB='INTERNET'))

MA=LIRE_MAILLAGE();

MA=DEFI_GROUP(reuse =MA,
              MAILLAGE=MA,
              CREA_GROUP_MA=_F(NOM='TOUT',
                               TOUT='OUI',),);

MO=AFFE_MODELE(MAILLAGE=MA,
               AFFE=_F(TOUT='OUI',
                       PHENOMENE='MECANIQUE',
                       MODELISATION='POU_D_E',),);

CARELEM=AFFE_CARA_ELEM(MODELE=MO,
                       POUTRE=_F(GROUP_MA='TOUT',
                                 SECTION='RECTANGLE',
                                 CARA=('HY','HZ',),
                                 VALE=(0.050000000000000003,0.050000000000000003,),),);

MAT=DEFI_MATERIAU(ELAS=_F(E=2.10000000000E11,
                          NU=0.29999999999999999,
                          RHO=7800.0,),);

CHMAT=AFFE_MATERIAU(MAILLAGE=MA,
                    AFFE=_F(TOUT='OUI',
                            MATER=MAT,),);

CH1=AFFE_CHAR_MECA(MODELE=MO,
                   DDL_IMPO=_F(NOEUD='A',
                               DX=0.0,
                               DY=0.0,
                               DZ=0.0,
                               DRX=0.0,
                               DRY=0.0,
                               DRZ=0.0,),);
# ------------------------------------------------------------------
# MODELISATION
# CALCUL DES MATRICES ELEMENTAIRES DE RIGIDITE ET DE MASSE
#
#
#
#


MELR1=CALC_MATR_ELEM(OPTION='RIGI_MECA',
                     MODELE=MO,
                     CHAM_MATER=CHMAT,
                     CARA_ELEM=CARELEM,
                     CHARGE=CH1,);

MELM1=CALC_MATR_ELEM(OPTION='MASS_MECA',
                     MODELE=MO,
                     CHAM_MATER=CHMAT,
                     CARA_ELEM=CARELEM,
                     CHARGE=CH1,);
# NUMEROTATION
#
#
#
#


NUM1=NUME_DDL(MATR_RIGI=MELR1,);
# ASSEMBLAGE DES MATRICES DE RIGIDITE ET DE MASSE
#
#
#
#


MATASSR1=ASSE_MATRICE(MATR_ELEM=MELR1,
                      NUME_DDL=NUM1,);

MATASSM1=ASSE_MATRICE(MATR_ELEM=MELM1,
                      NUME_DDL=NUM1,);
#--------------------------------------------------------------------
# ANALYSE MODALE
#
#
#
#


FREQ=MODE_ITER_SIMULT(MATR_A=MATASSR1,
                      MATR_B=MATASSM1,
                      METHODE='SORENSEN',
                      CALC_FREQ=_F(OPTION='PLUS_PETITE',
                                   NMAX_FREQ=11,),
                      TITRE='1/ METHODE DE SORENSEN',);

# TEST_RESU UNIQUEMENT POUR FAIRE CAS TEST
TEST_RESU(RESU=(_F(RESULTAT=FREQ,
                   NUME_ORDRE=1,
                   PARA='FREQ',
                   VALE=167.638,
                   PRECISION=1e-05,
                   REFERENCE='NON_REGRESSION',
                   VERSION='7.3.19',)))



EXCIT=AFFE_CHAR_MECA(MODELE=MO,
                     FORCE_NODALE=_F(NOEUD='B',
                                     FY=1.E6,),);

EVOLF = FORMULE(NOM_PARA='INST',VALE='sin(121*INST)');

LINST=DEFI_LIST_REEL(DEBUT=0.0,
                     INTERVALLE=_F(JUSQU_A=0.02,
                                   PAS=9.9999999999999995E-07,),);

FELEM=CALC_VECT_ELEM(OPTION='CHAR_MECA',
                     CHARGE=EXCIT,
                     CARA_ELEM=CARELEM,);

FASSE=ASSE_VECTEUR(VECT_ELEM=FELEM,
                   NUME_DDL=NUM1,);

MACRO_PROJ_BASE(BASE=FREQ,
                NB_VECT=5,
                MATR_ASSE_GENE=(_F(MATRICE=CO('MASSGENE'),
                                   MATR_ASSE=MATASSM1,),
                                _F(MATRICE=CO('RIGIGENE'),
                                   MATR_ASSE=MATASSR1,),),
                VECT_ASSE_GENE=_F(VECTEUR=CO('FEGENE'),
                                  VECT_ASSE=FASSE,),);

DYNAMO=DYNA_TRAN_MODAL(MASS_GENE=MASSGENE,
                       RIGI_GENE=RIGIGENE,
                       AMOR_REDUIT=(0.02,0.02,0.03,0.04,0.05),
                       INCREMENT=_F(INST_INIT=0.0,
                                    INST_FIN=0.02,
                                    PAS=9.9999999999999995E-07,),
                       EXCIT=_F(VECT_GENE=FEGENE,
                                FONC_MULT=EVOLF,),);

DEPYB=RECU_FONCTION(RESU_GENE=DYNAMO,
                    NOM_CHAM='DEPL',
                    LIST_INST=LINST,
                    PRECISION=9.9999999999999995E-08,
                    NOM_CMP='DY',
                    NOEUD='B',);

DYNATR=DYNA_LINE_TRAN(MATR_MASS=MATASSM1,
                      MATR_RIGI=MATASSR1,
                      NEWMARK=_F(),
                      AMOR_MODAL=_F(
                                    MODE_MECA = FREQ,
                                    AMOR_REDUIT = ( 0.02,0.02,0.03,0.04,0.05 ),
                                        ),
                      EXCIT=_F(VECT_ASSE=FASSE,
                               FONC_MULT=EVOLF,),
                      INCREMENT=_F(LIST_INST=LINST,),);

DTYB=RECU_FONCTION(RESULTAT=DYNATR,
                   NOM_CHAM='DEPL',
                   LIST_INST=LINST,
                   PRECISION=9.9999999999999995E-08,
                   NOM_CMP='DY',
                   NOEUD='B',);

IMPR_FONCTION(
            TITRE='COMPARAISON DYNA_TRAN_MODAL/DYNA_LINE_TRAN',
            FORMAT='XMGRACE',
            UNITE=29,
            COURBE=(_F(FONCTION=DEPYB,
                       LEGENDE='MODAL'),
                    _F(FONCTION=DTYB,
                       LEGENDE='DIRECT'),),)

FIN();
