# MODIF  DATE 06/07/2004   AUTEUR CIBHHLV L.VIVAN 
# RESPONSABLE PABHHHH N.TARDIEU
#
#
DEBUT(CODE=_F(NOM='FORMA01F',
              NIV_PUB_WEB='INTERNET',),);
# TITRE TRAVAUX PRATIQUES FORMATION DE BASE 
#            CONFIGURATION MANAGEMENT OF EDF VERSION
# ======================================================================
# COPYRIGHT (C) 1991 - 2001  EDF R&D                  WWW.CODE-ASTER.ORG
# THIS PROGRAM IS FREE SOFTWARE; YOU CAN REDISTRIBUTE IT AND/OR MODIFY
# IT UNDER THE TERMS OF THE GNU GENERAL PUBLIC LICENSE AS PUBLISHED BY
# THE FREE SOFTWARE FOUNDATION; EITHER VERSION 2 OF THE LICENSE, OR   
# (AT YOUR OPTION) ANY LATER VERSION.                                 
#
# THIS PROGRAM IS DISTRIBUTED IN THE HOPE THAT IT WILL BE USEFUL, BUT 
# WITHOUT ANY WARRANTY; WITHOUT EVEN THE IMPLIED WARRANTY OF          
# MERCHANTABILITY OR FITNESS FOR A PARTICULAR PURPOSE. SEE THE GNU    
# GENERAL PUBLIC LICENSE FOR MORE DETAILS.                            
#
# YOU SHOULD HAVE RECEIVED A COPY OF THE GNU GENERAL PUBLIC LICENSE   
# ALONG WITH THIS PROGRAM; IF NOT, WRITE TO EDF R&D CODE_ASTER,       
#    1 AVENUE DU GENERAL DE GAULLE, 92141 CLAMART CEDEX, FRANCE.      
# ======================================================================
#        GEOMETRIE COMPORTANT UN COUDE
#     MODELISATION PAR DES ELEMENTS COQUES DKT
#            PRODUIT PAR GMSH
#     ----------------------------------------
#
#  GM30 <=> TUYAU
#  GM28 <=> EFOND
#  GM31 <=> A1
#  GM27 <=> ENCAST
#  GM29 <=> SYMETRIE
#


PRE_GMSH();

MAIL=LIRE_MAILLAGE();
# RENOMMAGE DES GROUPES
#


MAIL=DEFI_GROUP(reuse =MAIL,
                MAILLAGE=MAIL,
                CREA_GROUP_MA=(_F(NOM='TUYAU',
                                  GROUP_MA='GM30',),
                               _F(NOM='ENCAST',
                                  GROUP_MA='GM27',),
                               _F(NOM='SYMETRIE',
                                  GROUP_MA='GM29',),
                               _F(NOM='EFOND',
                                  GROUP_MA='GM28',),),);
#
# DEFINITION DES ELEMENTS FINIS UTILISES
#
#
#


MODMECA=AFFE_MODELE(MAILLAGE=MAIL,
                    AFFE=_F(GROUP_MA=('TUYAU','EFOND',),
                            PHENOMENE='MECANIQUE',
                            MODELISATION='DKT',),);
# ORIENTATION DES NORMALES AUX COQUES RENTRANTES DANS LE TUYAU
#
#


MAIL=DEFI_GROUP(reuse =MAIL,
                MAILLAGE=MAIL,
                CREA_GROUP_NO=_F(GROUP_MA='GM31',
                                 NOM='A1',),);

MAIL=MODI_MAILLAGE(reuse =MAIL,
                   MAILLAGE=MAIL,
                   ORIE_NORM_COQUE=_F(GROUP_MA='TUYAU',
                                      VECT_NORM=(1.0,0.0,0.0,),
                                      GROUP_NO='A1',),
                   MODELE=MODMECA,);
# DEFINITION DU MATERIAU UTILISE
#
#
#


ACIER=DEFI_MATERIAU(ELAS=_F(E=204000000000.0,
                            NU=0.3,),);

CHMAT=AFFE_MATERIAU(MAILLAGE=MAIL,
                    AFFE=_F(TOUT='OUI',
                            MATER=ACIER,),);
#
# CARACTERISTIQUES DES COQUES
#
#
#


CARA_COQ=AFFE_CARA_ELEM(MODELE=MODMECA,
                        COQUE=_F(GROUP_MA=('TUYAU','EFOND',),
                                 EPAIS=0.02,
                                 ANGL_REP=(0.0,-90.0,),),);
#
# DEFINITION DES CONDITIONS AUX LIMITES
#    ENCASTREMENT SUR LA SECTION ENCAST
#
#
#


BLOQUAGE=AFFE_CHAR_MECA(MODELE=MODMECA,
                        DDL_IMPO=(_F(GROUP_MA='ENCAST',
                                     DX=0.0,
                                     DY=0.0,
                                     DZ=0.0,
                                     DRX=0.0,
                                     DRY=0.0,
                                     DRZ=0.0,),
                                  _F(GROUP_MA='SYMETRIE',
                                     DZ=0.0,
                                     DRX=0.0,
                                     DRY=0.0,),),);
#
# DEFINITION DES CHARGEMENTS
#    CHARGEMENT 1 : FY=100KN (FX,FZ,MX,MY,MZ NULS)
#    CHARGEMENT 2 : PRESSION INTERNE DE 15 MPA ET EFFET DE FOND
#
#
#

FYTOT = 100000.0;

EPTUB = 0.02;

REXT = 0.2;


RMOY=REXT-(EPTUB/2);

FYREP=FYTOT/2./pi/RMOY;

RINT=RMOY-(EPTUB/2);

SINT=pi*(RINT*RINT);
#
# 2*PI*R*FY = 100 KN
#
#
#


CHARG1=AFFE_CHAR_MECA(MODELE=MODMECA,
                      FORCE_ARETE=_F(GROUP_MA='EFOND',
                                     FY=FYREP,),);
#
# 2*PI*R*FX = PINT * SINT ;
#
#

PINT = 15000000.0;


PRES=PINT*RINT/RMOY;

CHARG2=AFFE_CHAR_MECA(MODELE=MODMECA,
                      FORCE_COQUE=_F(GROUP_MA='TUYAU',
                                     PRES=PRES,),);

RESU1=MECA_STATIQUE(MODELE=MODMECA,
                    CHAM_MATER=CHMAT,
                    CARA_ELEM=CARA_COQ,
                    EXCIT=(_F(CHARGE=BLOQUAGE,),
                           _F(CHARGE=CHARG1,),),);

RESU1=CALC_ELEM(reuse =RESU1,
                MODELE=MODMECA,
                CHAM_MATER=CHMAT,
                CARA_ELEM=CARA_COQ,
                OPTION='SIGM_ELNO_DEPL',
                RESULTAT=RESU1,);
#
#
#


RESU2=MECA_STATIQUE(MODELE=MODMECA,
                    CHAM_MATER=CHMAT,
                    CARA_ELEM=CARA_COQ,
                    EXCIT=(_F(CHARGE=BLOQUAGE,),
                           _F(CHARGE=CHARG2,),),);

RESU2=CALC_ELEM(reuse =RESU2,
                MODELE=MODMECA,
                CHAM_MATER=CHMAT,
                CARA_ELEM=CARA_COQ,
                OPTION='SIGM_ELNO_DEPL',
                RESULTAT=RESU2,
                NIVE_COUCHE='SUP',);

RESU2=CALC_ELEM(reuse =RESU2,
                MODELE=MODMECA,
                CHAM_MATER=CHMAT,
                CARA_ELEM=CARA_COQ,
                OPTION='EQUI_ELNO_SIGM',
                RESULTAT=RESU2,);

IMPR_RESU(MODELE=MODMECA,
          RESU=(_F(RESULTAT=RESU1,
                   NOM_CHAM='DEPL',
                   GROUP_MA='EFOND',),
                _F(RESULTAT=RESU2,
                   NOM_CHAM='DEPL',
                   GROUP_MA='EFOND',),),);

MAIL=DEFI_GROUP(reuse =MAIL,
                MAILLAGE=MAIL,
                CREA_GROUP_NO=(_F(GROUP_MA='EFOND',),
                               _F(OPTION='PLAN',
                                  NOM='PEXT',
                                  POINT=(3.6,3.6,0.0,),
                                  VECT_NORMALE=(0.0,1.0,0.0,),
                                  PRECISION=0.001,),
                               _F(INTERSEC=('EFOND','PEXT',),
                                  NOM='PB',),),);

TABDEP1=POST_RELEVE_T(ACTION=_F(INTITULE='DEPB1',
                                GROUP_NO='PB',
                                RESULTAT=RESU1,
                                NOM_CHAM='DEPL',
                                TOUT_CMP='OUI',
                                OPERATION='EXTRACTION',),);

TABDEP2=POST_RELEVE_T(ACTION=_F(INTITULE='DEPB2',
                                GROUP_NO='PB',
                                RESULTAT=RESU2,
                                NOM_CHAM='DEPL',
                                TOUT_CMP='OUI',
                                OPERATION='EXTRACTION',),);

IMPR_TABLE(TABLE=TABDEP1,);

IMPR_TABLE(TABLE=TABDEP2,);

TEST_TABLE(TABLE=TABDEP1,
           NOM_PARA='DX',
           VALE=-0.028912,
           PRECISION=0.0001,
           REFERENCE='NON_REGRESSION',
           VERSION='6.3.20',);

TEST_TABLE(TABLE=TABDEP1,
           NOM_PARA='DY',
           VALE=0.105284,
           PRECISION=0.0001,
           REFERENCE='NON_REGRESSION',
           VERSION='6.3.20',);

TEST_TABLE(TABLE=TABDEP1,
           NOM_PARA='DRZ',
           VALE=0.032422,
           PRECISION=0.0001,
           REFERENCE='NON_REGRESSION',
           VERSION='6.3.20',);

TEST_TABLE(TABLE=TABDEP2,
           NOM_PARA='DX',
           VALE=-0.28897,
           PRECISION=0.0001,
           REFERENCE='NON_REGRESSION',
           VERSION='6.3.20',);

TEST_TABLE(TABLE=TABDEP2,
           NOM_PARA='DY',
           VALE=0.46543,
           PRECISION=0.0001,
           REFERENCE='NON_REGRESSION',
           VERSION='6.3.20',);

TEST_TABLE(TABLE=TABDEP2,
           NOM_PARA='DRZ',
           VALE=0.12965,
           PRECISION=0.0001,
           REFERENCE='NON_REGRESSION',
           VERSION='6.3.20',);

RESU1=CALC_NO(reuse =RESU1,
              RESULTAT=RESU1,
              OPTION='FORC_NODA',
              MODELE=MODMECA,
              CHAM_MATER=CHMAT,
              CARA_ELEM=CARA_COQ,);

MAIL=DEFI_GROUP(reuse =MAIL,
                MAILLAGE=MAIL,
                CREA_GROUP_NO=_F(GROUP_MA='ENCAST',),);

REAC=POST_RELEVE_T(ACTION=_F(INTITULE='REAC',
                             GROUP_NO='ENCAST',
                             RESULTAT=RESU1,
                             NOM_CHAM='FORC_NODA',
                             RESULTANTE=('DX','DY','DZ',),
                             MOMENT=('DRX','DRY','DRZ',),
                             POINT=(0.0,0.0,0.0,),
                             OPERATION='EXTRACTION',),);

FAPP=POST_RELEVE_T(ACTION=_F(INTITULE='REAC',
                             GROUP_NO='EFOND',
                             RESULTAT=RESU1,
                             NOM_CHAM='FORC_NODA',
                             RESULTANTE=('DX','DY','DZ',),
                             MOMENT=('DRX','DRY','DRZ',),
                             POINT=(3.6,3.6,0.0,),
                             OPERATION='EXTRACTION',),);

IMPR_TABLE(TABLE=REAC,);

IMPR_TABLE(TABLE=FAPP,);

IMPR_RESU(MODELE=MODMECA,FORMAT='GMSH',VERSION=1.2,UNITE=30,
          RESU=(_F(RESULTAT=RESU1,
                   NOM_CHAM='DEPL',),
                _F(RESULTAT=RESU1,
                   NOM_CHAM='SIGM_ELNO_DEPL',
                   NOM_CMP=('SIXX','SIYY'),),),);

FIN();
#
