# person_in_charge: josselin.delmas at edf.fr
# TITRE PLAQUE TROUEE EN TRACTION EN ELASTICITE - ADAPTATION DE MAILLAGE DANS UNE BOUCLE
#            CONFIGURATION MANAGEMENT OF EDF VERSION
# ======================================================================
# COPYRIGHT (C) 1991 - 2012  EDF R&D                  WWW.CODE-ASTER.ORG
# THIS PROGRAM IS FREE SOFTWARE; YOU CAN REDISTRIBUTE IT AND/OR MODIFY
# IT UNDER THE TERMS OF THE GNU GENERAL PUBLIC LICENSE AS PUBLISHED BY
# THE FREE SOFTWARE FOUNDATION; EITHER VERSION 2 OF THE LICENSE, OR
# (AT YOUR OPTION) ANY LATER VERSION.
#
# THIS PROGRAM IS DISTRIBUTED IN THE HOPE THAT IT WILL BE USEFUL, BUT
# WITHOUT ANY WARRANTY; WITHOUT EVEN THE IMPLIED WARRANTY OF
# MERCHANTABILITY OR FITNESS FOR A PARTICULAR PURPOSE. SEE THE GNU
# GENERAL PUBLIC LICENSE FOR MORE DETAILS.
#
# YOU SHOULD HAVE RECEIVED A COPY OF THE GNU GENERAL PUBLIC LICENSE
# ALONG WITH THIS PROGRAM; IF NOT, WRITE TO EDF R&D CODE_ASTER,
#    1 AVENUE DU GENERAL DE GAULLE, 92141 CLAMART CEDEX, FRANCE.
# ======================================================================

DEBUT(CODE=_F(NOM='FORMA01C',
              NIV_PUB_WEB='INTERNET',
              VISU_EFICAS='NON',),
      DEBUG=_F(SDVERI='OUI'))

MA=DEFI_MATERIAU(ELAS=_F(E=200000.0,
                         NU=0.3,),);
nbadap = 3
MAIL=[None]*(nbadap+1)
MODE=[None]*(nbadap+1)
MATE=[None]*(nbadap+1)
CHAR=[None]*(nbadap+1)
RESU=[None]*(nbadap+1)

MAIL[1]=LIRE_MAILLAGE(FORMAT='MED',);

MAILTR=LIRE_MAILLAGE(FORMAT='MED',UNITE=21,);

for k in range(1,nbadap+1):

  MODE[k]=AFFE_MODELE(MAILLAGE=MAIL[k],
                      AFFE=_F(TOUT='OUI',
                              PHENOMENE='MECANIQUE',
                              MODELISATION='C_PLAN',),);

  if k==1:

    MAIL[k]=MODI_MAILLAGE(reuse =MAIL[k],
                          MAILLAGE=MAIL[k],
                          ORIE_PEAU_2D=_F(GROUP_MA='haut',),);

  MATE[k]=AFFE_MATERIAU(MAILLAGE=MAIL[k],
                        AFFE=_F(TOUT='OUI',
                                MATER=MA,),);

  CHAR[k]=AFFE_CHAR_MECA(MODELE=MODE[k],
                         DDL_IMPO=(_F(GROUP_MA='bas',
                                      DY=0.0,),
                                   _F(GROUP_MA='gauche',
                                      DX=0.0,),),
                          PRES_REP=_F(GROUP_MA='haut',
                                      PRES=-100.0,),);

  RESU[k]=MECA_STATIQUE(MODELE=MODE[k],
                        CHAM_MATER=MATE[k],
                        EXCIT=_F(CHARGE=CHAR[k],),);

  RESU[k]=CALC_CHAMP(reuse =RESU[k],
                     RESULTAT=RESU[k],
                     CONTRAINTE=('SIGM_ELNO','SIGM_NOEU',),
                     CRITERES=('SIEQ_ELNO','SIEQ_ELGA','SIEQ_NOEU'),);

  nomfic="MED_%d" %k

  DEFI_FICHIER (UNITE=80+k,FICHIER=nomfic);

  IMPR_RESU(FORMAT='MED',
            UNITE=80+k,
            RESU=_F(MAILLAGE=MAIL[k],
                    RESULTAT=RESU[k],
                    NOM_CHAM=('DEPL','SIGM_NOEU','SIEQ_NOEU','SIEQ_ELGA',),),);

  DEFI_FICHIER(ACTION='LIBERER',UNITE=80+k,)
  
  RESU[k]=CALC_ERREUR(reuse =RESU[k],
                      RESULTAT=RESU[k],
                      OPTION='ERME_ELEM',);

  if k == nbadap :
    break

  MAIL[k+1]=CO('MAIL_%d' % (k+1))

  MACR_ADAP_MAIL(MAILLAGE_N=MAIL[k],
                 MAILLAGE_NP1=MAIL[k+1],
                 ADAPTATION='RAFFINEMENT',
                 RESULTAT_N=RESU[k],
                 MAILLAGE_FRONTIERE=MAILTR,
                 GROUP_MA_FRONT='trou',
                 NOM_CHAM='ERME_ELEM',
                 NOM_CMP='ERREST',
                 CRIT_RAFF_PE=0.1,);

TEST_RESU(RESU=(_F(NUME_ORDRE=1,
                   GROUP_NO='B',
                   REFERENCE='ANALYTIQUE',
                   RESULTAT=RESU_1,
                   NOM_CHAM='SIGM_NOEU',
                   NOM_CMP='SIYY',
                   VALE_CALC=289.521225522,
                   VALE_REFE=303.0,
                   CRITERE='RELATIF',
                   PRECISION=0.050000000000000003,),
                _F(NUME_ORDRE=1,
                   GROUP_NO='B',
                   RESULTAT=RESU_1,
                   NOM_CHAM='SIGM_NOEU',
                   NOM_CMP='SIYY',
                   VALE_CALC=289.52122500000002,
                   TOLE_MACHINE=9.9999999999999995E-08,
                   CRITERE='RELATIF',
                   ),
                ),
          )

TEST_RESU(RESU=(_F(NUME_ORDRE=1,
                   GROUP_NO='A',
                   REFERENCE='ANALYTIQUE',
                   RESULTAT=RESU_1,
                   NOM_CHAM='SIGM_NOEU',
                   NOM_CMP='SIXX',
                   VALE_CALC=-85.881414506,
                   VALE_REFE=-100.0,
                   CRITERE='RELATIF',
                   PRECISION=0.14999999999999999,),
                _F(NUME_ORDRE=1,
                   GROUP_NO='A',
                   RESULTAT=RESU_1,
                   NOM_CHAM='SIGM_NOEU',
                   NOM_CMP='SIXX',
                   VALE_CALC=-85.881414500000005,
                   TOLE_MACHINE=9.9999999999999995E-08,
                   CRITERE='RELATIF',
                   ),
                ),
          )

TEST_RESU(RESU=(_F(NUME_ORDRE=1,
                   GROUP_NO='B',
                   REFERENCE='ANALYTIQUE',
                   RESULTAT=RESU_2,
                   NOM_CHAM='SIGM_NOEU',
                   NOM_CMP='SIYY',
                   VALE_CALC=300.263066117,
                   VALE_REFE=303.0,
                   CRITERE='RELATIF',
                   PRECISION=1.E-2,),
                _F(NUME_ORDRE=1,
                   GROUP_NO='B',
                   RESULTAT=RESU_2,
                   NOM_CHAM='SIGM_NOEU',
                   NOM_CMP='SIYY',
                   VALE_CALC=300.26306599999998,
                   TOLE_MACHINE=9.9999999999999995E-08,
                   CRITERE='RELATIF',
                   ),
                ),
          )

TEST_RESU(RESU=(_F(NUME_ORDRE=1,
                   GROUP_NO='A',
                   REFERENCE='ANALYTIQUE',
                   RESULTAT=RESU_2,
                   NOM_CHAM='SIGM_NOEU',
                   NOM_CMP='SIXX',
                   VALE_CALC=-98.090113017,
                   VALE_REFE=-100.0,
                   CRITERE='RELATIF',
                   PRECISION=0.02,),
                _F(NUME_ORDRE=1,
                   GROUP_NO='A',
                   RESULTAT=RESU_2,
                   NOM_CHAM='SIGM_NOEU',
                   NOM_CMP='SIXX',
                   VALE_CALC=-98.090113000000002,
                   TOLE_MACHINE=9.9999999999999995E-08,
                   CRITERE='RELATIF',
                   ),
                ),
          )

TEST_RESU(RESU=(_F(NUME_ORDRE=1,
                   GROUP_NO='B',
                   REFERENCE='ANALYTIQUE',
                   RESULTAT=RESU_3,
                   NOM_CHAM='SIGM_NOEU',
                   NOM_CMP='SIYY',
                   VALE_CALC=300.260478698,
                   VALE_REFE=303.0,
                   CRITERE='RELATIF',
                   PRECISION=1.E-2,),
                _F(NUME_ORDRE=1,
                   GROUP_NO='B',
                   RESULTAT=RESU_3,
                   NOM_CHAM='SIGM_NOEU',
                   NOM_CMP='SIYY',
                   VALE_CALC=300.26047799999998,
                   TOLE_MACHINE=9.9999999999999995E-08,
                   CRITERE='RELATIF',
                   ),
                ),
          )

TEST_RESU(RESU=(_F(NUME_ORDRE=1,
                   GROUP_NO='A',
                   REFERENCE='ANALYTIQUE',
                   RESULTAT=RESU_3,
                   NOM_CHAM='SIGM_NOEU',
                   NOM_CMP='SIXX',
                   VALE_CALC=-98.236590752,
                   VALE_REFE=-100.0,
                   CRITERE='RELATIF',
                   PRECISION=0.02,),
                _F(NUME_ORDRE=1,
                   GROUP_NO='A',
                   RESULTAT=RESU_3,
                   NOM_CHAM='SIGM_NOEU',
                   NOM_CMP='SIXX',
                   VALE_CALC=-98.236590699999994,
                   TOLE_MACHINE=9.9999999999999995E-08,
                   CRITERE='RELATIF',
                   ),
                ),
          )

FIN();
