# TITRE FORMATION AVANCEE CONTACT DE HERTZ
#            CONFIGURATION MANAGEMENT OF EDF VERSION
# ======================================================================
# COPYRIGHT (C) 1991 - 2012  EDF R&D                  WWW.CODE-ASTER.ORG
# THIS PROGRAM IS FREE SOFTWARE; YOU CAN REDISTRIBUTE IT AND/OR MODIFY
# IT UNDER THE TERMS OF THE GNU GENERAL PUBLIC LICENSE AS PUBLISHED BY
# THE FREE SOFTWARE FOUNDATION; EITHER VERSION 2 OF THE LICENSE, OR
# (AT YOUR OPTION) ANY LATER VERSION.
#
# THIS PROGRAM IS DISTRIBUTED IN THE HOPE THAT IT WILL BE USEFUL, BUT
# WITHOUT ANY WARRANTY; WITHOUT EVEN THE IMPLIED WARRANTY OF
# MERCHANTABILITY OR FITNESS FOR A PARTICULAR PURPOSE. SEE THE GNU
# GENERAL PUBLIC LICENSE FOR MORE DETAILS.
#
# YOU SHOULD HAVE RECEIVED A COPY OF THE GNU GENERAL PUBLIC LICENSE
# ALONG WITH THIS PROGRAM; IF NOT, WRITE TO EDF R&D CODE_ASTER,
#    1 AVENUE DU GENERAL DE GAULLE, 92141 CLAMART CEDEX, FRANCE.
# ======================================================================

DEBUT(CODE=_F(NOM='FORMA04A',NIV_PUB_WEB='INTERNET'),DEBUG=_F(SDVERI='OUI'))

# -- Parametres du calcul

E  =  20000.
nu =  0.3
h  =  2.
R  =  50.

# -- Lecture du maillage et affectation du modele, des chargements

MA=LIRE_MAILLAGE(FORMAT='MED',);

MA=MODI_MAILLAGE(reuse =MA,
                 MAILLAGE=MA,
                 ORIE_PEAU_2D=_F(GROUP_MA=('CONT1','CONT2',),),);

MAT=DEFI_MATERIAU(ELAS=_F(E=E,
                          NU=nu,),);

CHMAT=AFFE_MATERIAU(MAILLAGE=MA,
                    AFFE=_F(GROUP_MA=('SPH_HAU','SPH_BAS',),
                            MATER=MAT,),);

MO=AFFE_MODELE(MAILLAGE=MA,
               AFFE=_F(GROUP_MA=('SPH_HAU','SPH_BAS',),
                       PHENOMENE='MECANIQUE',
                       MODELISATION='AXIS',),);

CL=AFFE_CHAR_MECA(MODELE=MO,
                  DDL_IMPO=(_F(GROUP_MA='A1A2',
                               DX=0,),
                            _F(GROUP_MA='A2B2',
                               DY=-h,),
                            _F(GROUP_MA='A1B1',
                               DY=h,),),);

RAMPE=DEFI_FONCTION(NOM_PARA='INST',VALE=(0,0,
                          1,1,
                          ),);

# -- Definition du contact

CONT=DEFI_CONTACT(MODELE=MO,
                  FORMULATION='DISCRETE',
                  ZONE=_F(GROUP_MA_MAIT='CONT2',
                          GROUP_MA_ESCL='CONT1',
                          ALGO_CONT='CONTRAINTE',),);

TPS=DEFI_LIST_REEL(DEBUT=0,
                   INTERVALLE=_F(JUSQU_A=1,
                                 NOMBRE=20,),);

STNL=STAT_NON_LINE(MODELE=MO,
                   CHAM_MATER=CHMAT,
                   EXCIT=_F(CHARGE=CL,
                            FONC_MULT=RAMPE,),
                   CONTACT=CONT,
                   COMP_INCR=_F(RELATION='ELAS',),
                   INCREMENT=_F(LIST_INST=TPS,),
                   SOLVEUR=_F(SYME='OUI',),);

# -- Post-traitement

STNL=CALC_CHAMP(reuse=STNL,RESULTAT=STNL,CRITERES=('SIEQ_ELGA','SIEQ_ELNO'),CONTRAINTE=('SIEF_ELNO'))


STNL=CALC_CHAMP(reuse =STNL,
             RESULTAT=STNL,
             CONTRAINTE='SIEF_NOEU',CRITERES='SIEQ_NOEU');

# -- Groupe de noeuds oriente depuis le centre de la zone de contact esclave

MA=DEFI_GROUP(reuse =MA,
              MAILLAGE=MA,
              CREA_GROUP_NO=_F(OPTION='NOEUD_ORDO',
                               NOM='CONT_ord',
                               GROUP_MA='CONT1',
                               GROUP_NO_ORIG='C1',),);

# -- Pression de contact extraite sur le bord oriente

SIYY_abs=POST_RELEVE_T(ACTION=_F(OPERATION='EXTRACTION',
                                 INTITULE='SIYY en fonction de ABSC_CURV',
                                 RESULTAT=STNL,
                                 NOM_CHAM='SIEF_NOEU',
                                 INST=1.0,
                                 GROUP_NO='CONT_ord',
                                 NOM_CMP='SIYY',),);

IMPR_TABLE(TABLE=SIYY_abs,);

# -- Trace de la pression et de la solution analytique

SIYY_f=RECU_FONCTION(TABLE=SIYY_abs,
                     PARA_X='ABSC_CURV',
                     PARA_Y='SIYY',);

V_ABSC=DEFI_LIST_REEL(DEBUT=0,
                      INTERVALLE=_F(JUSQU_A=10,
                                    NOMBRE=100,),);


# -- Pression de hertz et demi-largeur de contact

p0 = -E/(pi*(1.0-nu*nu))*sqrt(2.0*2.0*h/R)
a  = sqrt(R*h)

PRES = FORMULE(VALE='p0*sqrt(1.0-(x/a)*(x/a))',
               NOM_PARA='x',);

PRES_sol=CALC_FONC_INTERP(FONCTION=PRES,
                          LIST_PARA=V_ABSC,
                          NOM_PARA='x',);

# -- Validation des resultats

TEST_RESU(RESU=_F(GROUP_NO='C1',
                  INST=1.0,
                  REFERENCE='ANALYTIQUE',
                  RESULTAT=STNL,
                  NOM_CHAM='SIEF_NOEU',
                  NOM_CMP='SIYY',
                  VALE_CALC=-2.77354741E+03,
                  VALE_REFE=-2798.3286697476105,
                  CRITERE='RELATIF',
                  PRECISION=1.E-2,),
          )

TEST_RESU(RESU=_F(GROUP_NO='C1',
                  INST=1.0,
                  RESULTAT=STNL,
                  NOM_CHAM='SIEF_NOEU',
                  NOM_CMP='SIYY',
                  VALE_CALC=-2773.5474109439001,
                  TOLE_MACHINE=1.E-3,
                  CRITERE='RELATIF',
                  ),
          )

# -- Impressions des resultats

IMPR_FONCTION(FORMAT='XMGRACE',
              PILOTE='',
              UNITE=29,
              COURBE=(_F(FONCTION=SIYY_f,),
                      _F(FONCTION=PRES_sol,),),
              TITRE='Pression de Hertz',
              BORNE_X=(0,20,),
              BORNE_Y=(-3000,0,),
              GRILLE_X=1,
              GRILLE_Y=500,
              LEGENDE_X='Abscisse curviligne (mm)',
              LEGENDE_Y='Pression (Mpa)',);

IMPR_RESU(FORMAT='MED',
          RESU=_F(RESULTAT=STNL,),);

FIN();
