# MODIF  DATE 10/10/2012   AUTEUR COURTOIS M.COURTOIS 
# TITRE : POUTRE EN BA EN FLEXION 3 POINTS 
# forma41a.para = tps_job 200 mem_job 768Mo ncpus 1 liste_test S
#            CONFIGURATION MANAGEMENT OF EDF VERSION
# ======================================================================
# COPYRIGHT (C) 1991 - 2012  EDF R&D                  WWW.CODE-ASTER.ORG
# THIS PROGRAM IS FREE SOFTWARE; YOU CAN REDISTRIBUTE IT AND/OR MODIFY  
# IT UNDER THE TERMS OF THE GNU GENERAL PUBLIC LICENSE AS PUBLISHED BY  
# THE FREE SOFTWARE FOUNDATION; EITHER VERSION 2 OF THE LICENSE, OR     
# (AT YOUR OPTION) ANY LATER VERSION.                                                    
#                                                                       
# THIS PROGRAM IS DISTRIBUTED IN THE HOPE THAT IT WILL BE USEFUL, BUT   
# WITHOUT ANY WARRANTY; WITHOUT EVEN THE IMPLIED WARRANTY OF            
# MERCHANTABILITY OR FITNESS FOR A PARTICULAR PURPOSE. SEE THE GNU      
# GENERAL PUBLIC LICENSE FOR MORE DETAILS.                              
#                                                                       
# YOU SHOULD HAVE RECEIVED A COPY OF THE GNU GENERAL PUBLIC LICENSE     
# ALONG WITH THIS PROGRAM; IF NOT, WRITE TO EDF R&D CODE_ASTER,         
#    1 AVENUE DU GENERAL DE GAULLE, 92141 CLAMART CEDEX, FRANCE.        
# ======================================================================
#  MODELISATION A : CALCUL ELASTIQUE
#--------------------------------------------------------

DEBUT(CODE=_F(NOM='FORMA41A', NIV_PUB_WEB='INTERNET'), DEBUG=_F(SDVERI='OUI'));

#--------------------------------------------------------------
# 1 - MAILLAGE ET MODELE
#--------------------------------------------------------------

MA=LIRE_MAILLAGE(FORMAT='MED',);

MA=DEFI_GROUP(reuse =MA,
              MAILLAGE=MA,
              CREA_GROUP_NO=(_F(GROUP_MA='APPUI',),
                             _F(OPTION='NOEUD_ORDO',
                                NOM='FORCE',
                                GROUP_MA='FORCE',),
                             _F(OPTION='NOEUD_ORDO',
                                NOM='COUPE',
                                GROUP_MA='COUPE',),
              _F(OPTION='NOEUD_ORDO',
                                NOM='COUPE2',
                                GROUP_MA='COUPE2',),
              _F(OPTION='NOEUD_ORDO',
                                NOM='LONH',
                                GROUP_MA='LONH',),
              _F(OPTION='NOEUD_ORDO',
                                NOM='LONB',
                                GROUP_MA='LONB',),
                             _F(GROUP_MA='SYME_X',),
                             _F(GROUP_MA='SYME_Z',),),);

MO=AFFE_MODELE(MAILLAGE=MA,
               AFFE=(_F(GROUP_MA=('BETON','SYME_Z','SYME_X','FORCE',),
                        PHENOMENE='MECANIQUE',
                        MODELISATION='3D',),
                     _F(GROUP_MA=('HA32','HA8',),
                        PHENOMENE='MECANIQUE',
                        MODELISATION='BARRE',),),);

#--------------------------------------------------------------
# 2- DEFINITION DES PARAMETRES MATERIAUX 
#  ET CARACTERISTIQUES GEOMETRIQUES DES ELEMENTS DE STRUCTURE
#--------------------------------------------------------------

CARAMECA=AFFE_CARA_ELEM(MODELE=MO,
                        BARRE=(_F(GROUP_MA='HA32',
                                  SECTION='CERCLE',
                                  CARA='R',
                                  VALE=1.60000E-2,),
                               _F(GROUP_MA='HA8',
                                  SECTION='CERCLE',
                                  CARA='R',
                                  VALE=0.40000E-2,),),);

BETON=DEFI_MATERIAU(ELAS=_F(E=32000.0E6,
                            NU=0.2,),);

ACIER=DEFI_MATERIAU(ELAS=_F(E=200000.E+6,
                            NU=0.0,),);

CHMAT=AFFE_MATERIAU(MAILLAGE=MA,
                    AFFE=(_F(GROUP_MA='BETON',
                             MATER=BETON,),
                          _F(GROUP_MA=('HA32','HA8',),
                             MATER=ACIER,),),);

#--------------------------------------------------------------
# 3- DEFINITION DES CHARGEMENTS 
#--------------------------------------------------------------

CLIM=AFFE_CHAR_MECA(MODELE=MO,
                    DDL_IMPO=(_F(GROUP_MA='APPUI',
                                 DY=0.,),
                              _F(GROUP_MA='SYME_X',
                                 DX=0.,),
                              _F(GROUP_MA='SYME_Z',
                                 DZ=0.,),
                      ),);

CHARGEF=AFFE_CHAR_MECA(MODELE=MO,
                       FORCE_ARETE=_F(GROUP_MA='FORCE',
                                      FY=-38400,),);


#--------------------------------------------------------------
# 4- RESOLUTION DU PROBLEME
#--------------------------------------------------------------


RESUSTA=MECA_STATIQUE(MODELE=MO,
                      CHAM_MATER=CHMAT,
                      CARA_ELEM=CARAMECA,
                      EXCIT=(_F(CHARGE=CLIM,),
                             _F(CHARGE=CHARGEF,),),);


RESUSTA=CALC_CHAMP(reuse =RESUSTA,
                   RESULTAT=RESUSTA,
                   GROUP_MA='BETON',
                   CONTRAINTE=('SIEF_NOEU',),
                   DEFORMATION='EPSI_NOEU',
                   FORCE='FORC_NODA',);

IMPR_RESU(FORMAT='MED',
          RESU=(
                _F(RESULTAT=RESUSTA,),),);

FORCED2=POST_RELEVE_T(ACTION=_F(OPERATION='EXTRACTION',
                               INTITULE='FORCE2',
                               RESULTAT=RESUSTA,
                               NOM_CHAM='FORC_NODA',
                               TOUT_ORDRE='OUI',
                               GROUP_NO='FORCE',
                               RESULTANTE='DY',),);

CONT=POST_RELEVE_T(ACTION=_F(OPERATION='EXTRACTION',
                             INTITULE='CONTG',
                             RESULTAT=RESUSTA,
                             NOM_CHAM='SIEF_NOEU',
                             GROUP_NO='G',
                             NOM_CMP='SIXX',),);
TEST_TABLE(REFERENCE='ANALYTIQUE',
           PRECISION=0.02,
           VALE_CALC= 1.75388623E+06,
           VALE_REFE=1.780000E6,
           NOM_PARA='SIXX',
           TABLE=CONT,)

TEST_TABLE(
           VALE_CALC=1.7538862310515E6,
           TOLE_MACHINE=1.E-3,
           NOM_PARA='SIXX',
           TABLE=CONT,
           )

CONT2=POST_RELEVE_T(ACTION=_F(OPERATION='EXTRACTION',
                             INTITULE='CONT2',
                             RESULTAT=RESUSTA,
                             NOM_CHAM='SIEF_NOEU',
                             GROUP_NO='COUPE',
                             NOM_CMP='SIXX',),);

CONT3=POST_RELEVE_T(ACTION=_F(OPERATION='EXTRACTION',
                             INTITULE='CONT3',
                             RESULTAT=RESUSTA,
                             NOM_CHAM='SIEF_NOEU',
                             GROUP_NO='COUPE2',
                             NOM_CMP='SIXX',),);

DEF2=POST_RELEVE_T(ACTION=_F(OPERATION='EXTRACTION',
                            INTITULE='DEF2',
                            RESULTAT=RESUSTA,
                            NOM_CHAM='EPSI_NOEU',
                            GROUP_NO='COUPE',
                            NOM_CMP='EPXX',),);

DEPH=POST_RELEVE_T(ACTION=_F(OPERATION='EXTRACTION',
                            INTITULE='DEPLH',
                            RESULTAT=RESUSTA,
                            NOM_CHAM='DEPL',
                            GROUP_NO='LONH',
                            NOM_CMP='DY',),);

DEPB=POST_RELEVE_T(ACTION=_F(OPERATION='EXTRACTION',
                            INTITULE='DEPLB',
                            RESULTAT=RESUSTA,
                            NOM_CHAM='DEPL',
                            GROUP_NO='LONB',
                            NOM_CMP='DY',),);

IMPR_TABLE(TABLE=DEPH,NOM_PARA=('DY','COOR_X',));
IMPR_TABLE(TABLE=DEPB,NOM_PARA=('DY','COOR_X',));
IMPR_TABLE(TABLE=FORCED2,);
IMPR_TABLE(TABLE=CONT2,NOM_PARA=('SIXX','COOR_Y',));
IMPR_TABLE(TABLE=CONT3,NOM_PARA=('SIXX','COOR_Y',));
IMPR_TABLE(TABLE=DEF2,NOM_PARA=('EPXX','COOR_Y',));


FIN();
