# MODIF  DATE 31/08/2004   AUTEUR VABHHTS J.PELLET 
# RESPONSABLE PABHHHH N.TARDIEU
# TITRE TRAVAUX PRATIQUES FORMATION DE BASE
#            CONFIGURATION MANAGEMENT OF EDF VERSION
# ======================================================================
# COPYRIGHT (C) 1991 - 2001  EDF R&D                  WWW.CODE-ASTER.ORG
# THIS PROGRAM IS FREE SOFTWARE; YOU CAN REDISTRIBUTE IT AND/OR MODIFY
# IT UNDER THE TERMS OF THE GNU GENERAL PUBLIC LICENSE AS PUBLISHED BY
# THE FREE SOFTWARE FOUNDATION; EITHER VERSION 2 OF THE LICENSE, OR
# (AT YOUR OPTION) ANY LATER VERSION.
#
# THIS PROGRAM IS DISTRIBUTED IN THE HOPE THAT IT WILL BE USEFUL, BUT
# WITHOUT ANY WARRANTY; WITHOUT EVEN THE IMPLIED WARRANTY OF
# MERCHANTABILITY OR FITNESS FOR A PARTICULAR PURPOSE. SEE THE GNU
# GENERAL PUBLIC LICENSE FOR MORE DETAILS.
#
# YOU SHOULD HAVE RECEIVED A COPY OF THE GNU GENERAL PUBLIC LICENSE
# ALONG WITH THIS PROGRAM; IF NOT, WRITE TO EDF R&D CODE_ASTER,
#    1 AVENUE DU GENERAL DE GAULLE, 92141 CLAMART CEDEX, FRANCE.
# ======================================================================
#        TUYAUTERIE COMPORTANT UN COUDE
#     MODELISATION PAR DES ELEMENTS MASSIFS
#         AVEC STRATIFICATION THERMIQUE
#               MAILLE AVEC GMSH
#     -------------------------------------
#
DEBUT(CODE=_F(NOM='FORMA01G',NIV_PUB_WEB='INTERNET'),);

# TUYAU    <=> GM10000
# EFOND    <=> GM10005
# ENCAST   <=> GM10001
# SYMETRIE <=> GM10002
# SURFINT  <=> GM10004
# SURFEXT  <=> GM10003

PRE_GMSH();

MAIL=LIRE_MAILLAGE();

# RENOMMAGE DES GROUPES

DEFI_GROUP(reuse =MAIL,
                MAILLAGE=MAIL,
                CREA_GROUP_MA=(
                _F(GROUP_MA='GM10000',NOM='TUYAU',),
                _F(GROUP_MA='GM10001',NOM='ENCAST',),
                _F(GROUP_MA='GM10002',NOM='SYMETRIE',),
                _F(GROUP_MA='GM10005',NOM='EFOND',),
                _F(GROUP_MA='GM10004',NOM='SURFINT',),
                _F(GROUP_MA='GM10003',NOM='SURFEXT',),
                ),);

DEFI_GROUP(reuse =MAIL,
                MAILLAGE=MAIL,
                CREA_GROUP_NO=(_F(GROUP_MA='EFOND',),
                               _F(GROUP_MA='SURFINT',),
                               _F(GROUP_MA='SURFEXT',),
                               _F(GROUP_MA='ENCAST',),
                               _F(OPTION='PLAN',
                                  NOM='PLANY',
                                  POINT=(3.6,3.6,0.0,),
                                  VECT_NORMALE=(0.0,1.0,0.0,),
                                  PRECISION=0.001,),
                               _F(OPTION='ENV_CYLINDRE',
                                  NOM='REXT',
                                  POINT=(3.6,3.6,0.0,),
                                  RAYON=0.2,
                                  VECT_NORMALE=(1.0,0.0,0.0,),
                                  PRECISION=0.001,),
                               _F(INTERSEC=('EFOND','PLANY','REXT',),
                                  NOM='PB',),),);


# DEFINITION DES ELEMENTS FINIS UTILISES POUR LE CALCUL THERMIQUE
#


MODETH=AFFE_MODELE(MAILLAGE=MAIL,
                   AFFE=_F(TOUT='OUI',
                           PHENOMENE='THERMIQUE',
                           MODELISATION='3D',),);
# DEFINITION DES ELEMENTS FINIS UTILISES POUR LE CALCUL MECANIQUE
#


MODMECA=AFFE_MODELE(MAILLAGE=MAIL,
                    AFFE=_F(TOUT='OUI',
                            PHENOMENE='MECANIQUE',
                            MODELISATION='3D',),);
# DEFINITION DU MATERIAU UTILISE POUR LE CALCUL THERMOMECANIQUE
#


ACIER_TH = DEFI_MATERIAU ( ELAS =_F( E = 204000.E+6,
                                  NU = 0.3,
                                 ALPHA = 10.92E-6 ),
                        THER =_F(RHO_CP = 3.71E+6,
                                 LAMBDA = 54.6 )
                       );

CHM=AFFE_MATERIAU(MAILLAGE=MAIL,
                  AFFE=_F(TOUT='OUI',
                          MATER=ACIER_TH,
                          TEMP_REF=20.0,),);
# DEFINITION DES CONDITIONS AUX LIMITES THERMIQUES
#    TEMPERATURE IMPOSEE SUR LA FACE INTERNE DU TUBE
#     ET ECHANGE NUL SUR LA FACE EXTERNE DU TUBE
#     CALCUL DU TRANSITOIRE THERMIQUE
#
#

F_TEMP=DEFI_FONCTION(NOM_PARA='INST',
                     VALE=(0.0,20.0,10.0,70.0),
                     PROL_DROITE='CONSTANT',
                     PROL_GAUCHE='CONSTANT',);

H=DEFI_CONSTANTE(VALE=0.0,);

T_EXT=DEFI_CONSTANTE(VALE=20.0,);

CHTH=AFFE_CHAR_THER_F(MODELE=MODETH,
                      TEMP_IMPO=_F(GROUP_NO=('SURFINT'),
                                   TEMP=F_TEMP,),
                      ECHANGE=_F(GROUP_MA=('SURFEXT'),
                                 COEF_H=H,
                                 TEMP_EXT=T_EXT,),);

INST=DEFI_LIST_REEL(VALE=(5.0,10.0),);

TEMPE=THER_LINEAIRE(MODELE=MODETH,
                    CHAM_MATER=CHM,
                    EXCIT=_F(CHARGE=CHTH,),
                    INCREMENT=_F(LIST_INST=INST,),
                    TEMP_INIT=_F(VALE=20.0,),);
# DEFINITION DES CONDITIONS AUX LIMITES  CALCUL THERMO-MECANIQUE
#    ENCASTREMENT SUR LA SECTION ENCAST ET EFOND
#    SYMETRIE PAR RAPPORT AU PLAN XOY
#    CHARGEMENT THERMIQUE
#
#


CHARGT=AFFE_CHAR_MECA(MODELE=MODMECA,
                      TEMP_CALCULEE=TEMPE,
                      DDL_IMPO=(_F(GROUP_MA=('ENCAST','EFOND'),
                                   DX=0.0,
                                   DY=0.0,
                                   DZ=0.0,),
                                _F(GROUP_MA='SYMETRIE',
                                   DZ=0.0,),),);
# CALCUL THERMO-MECANIQUE ET EXTRACTION DE RESULTATS
#
#



RESUT=MECA_STATIQUE(MODELE=MODMECA,
                     CHAM_MATER=CHM,
                     EXCIT=_F(CHARGE=CHARGT,),
                     LIST_INST=INST,
                     );

CALC_ELEM( reuse= RESUT ,RESULTAT= RESUT ,
                     LIST_INST=INST,
                     OPTION=('SIGM_ELNO_DEPL',),);

CALC_ELEM(reuse =RESUT,
                OPTION='EQUI_ELNO_SIGM',
                RESULTAT=RESUT,);


# ON TESTE LA NON-REGRESSION
TEST_RESU(RESU=(_F(RESULTAT=TEMPE,
                   INST=10.0,
                   NOM_CHAM='TEMP',
                   TYPE_TEST='MAX',
                   VALE=7.0E+1,
                   REFERENCE='NON_REGRESSION',
                   VERSION='6.01.16',),
                _F(RESULTAT=RESUT,
                   INST=10.0,
                   NOM_CHAM='EQUI_ELNO_SIGM',
                   TYPE_TEST='MAX',
                   VALE=2.3689932489835E+08,
                   REFERENCE='NON_REGRESSION',
                   VERSION='7.3.10',),),);


# ORIENTATION DES NORMALES AUX COQUES
# RENTRANTES DANS LE TUYAU
MODI_MAILLAGE(reuse =MAIL,
                   MAILLAGE=MAIL,
                   ORIE_PEAU_3D=(_F(GROUP_MA='SURFINT',),
                                 _F(GROUP_MA='EFOND',),),
                   MODELE=MODMECA,);
FYTOT = 100000.0;

EPTUB = 0.02;

REXT = 0.2;


RINT=REXT-EPTUB;

SINT=pi*(RINT*RINT);

SEXT=pi*(REXT*REXT);

SFON=SEXT-SINT;

FYREP=FYTOT/SFON;

CHARG1=AFFE_CHAR_MECA(MODELE=MODMECA,
                      DDL_IMPO=(_F(GROUP_MA='ENCAST',
                                   DX=0.0,
                                   DY=0.0,
                                   DZ=0.0,),
                                _F(GROUP_MA='SYMETRIE',
                                   DZ=0.0,),),
                      FORCE_FACE=_F(GROUP_MA='EFOND',
                                    FY=FYREP,),);

ACIER=DEFI_MATERIAU(ELAS=_F(E=2.04000000000E11,
                            NU=0.29999999999999999,),);

CHMAT=AFFE_MATERIAU(MAILLAGE=MAIL,
                    AFFE=_F(TOUT='OUI',
                            MATER=ACIER,),);


RESU1=MECA_STATIQUE(MODELE=MODMECA,
                     CHAM_MATER=CHMAT,
                     EXCIT=_F(CHARGE=CHARG1,),
                     );

CALC_ELEM( reuse= RESU1 ,RESULTAT= RESU1 ,
                     OPTION='SIGM_ELNO_DEPL',);
PRES = 15000000.0;

CHARG2=AFFE_CHAR_MECA(MODELE=MODMECA,
                      DDL_IMPO=(_F(GROUP_MA='ENCAST',
                                   DX=0.0,
                                   DY=0.0,
                                   DZ=0.0,),
                                _F(GROUP_MA='SYMETRIE',
                                   DZ=0.0,),),
                      PRES_REP=_F(GROUP_MA='SURFINT',
                                  PRES=PRES,),);


RESU2=MECA_STATIQUE(MODELE=MODMECA,
                     CHAM_MATER=CHMAT,
                     EXCIT=_F(CHARGE=CHARG2,),
                     );

CALC_ELEM( reuse= RESU2 ,RESULTAT= RESU2 ,
                     OPTION='SIGM_ELNO_DEPL',);

TABDEP1=POST_RELEVE_T(ACTION=_F(INTITULE='DEPB1',
                                GROUP_NO='PB',
                                RESULTAT=RESU1,
                                NOM_CHAM='DEPL',
                                TOUT_CMP='OUI',
                                OPERATION='EXTRACTION',),);

TABDEP2=POST_RELEVE_T(ACTION=_F(INTITULE='DEPB2',
                                GROUP_NO='PB',
                                RESULTAT=RESU2,
                                NOM_CHAM='DEPL',
                                TOUT_CMP='OUI',
                                OPERATION='EXTRACTION',),);

IMPR_TABLE(TABLE=TABDEP1,);

IMPR_TABLE(TABLE=TABDEP2,);

TEST_TABLE(TABLE=TABDEP1,
           NOM_PARA='DX',
           VALE=-0.026527,
           PRECISION=0.0001,
           REFERENCE='NON_REGRESSION',);

TEST_TABLE(TABLE=TABDEP1,
           NOM_PARA='DY',
           VALE=0.07312,
           PRECISION=0.0001,
           REFERENCE='NON_REGRESSION',);

TEST_TABLE(TABLE=TABDEP2,
           NOM_PARA='DX',
           VALE=-0.2622,
           PRECISION=0.0001,
           REFERENCE='NON_REGRESSION',);

TEST_TABLE(TABLE=TABDEP2,
           NOM_PARA='DY',
           VALE=0.396733,
           PRECISION=0.0001,
           REFERENCE='NON_REGRESSION',);

IMPR_RESU(MODELE=MODMECA,FORMAT='CASTEM',
          RESU=(_F(MAILLAGE=MAIL,),
                _F(RESULTAT=TEMPE,),
                _F(RESULTAT=RESUT,
                   NOM_CHAM=('DEPL','EQUI_ELNO_SIGM',),),),);

CALC_NO(reuse =RESU1,
              RESULTAT=RESU1,
              OPTION='FORC_NODA',);

REAC=POST_RELEVE_T(ACTION=_F(INTITULE='RESULTANTES',
                             GROUP_NO='ENCAST',
                             RESULTAT=RESU1,
                             NOM_CHAM='FORC_NODA',
                             RESULTANTE=('DX','DY','DZ',),
                             MOMENT=('DRX','DRY','DRZ',),
                             POINT=(0.0,0.0,0.0,),
                             OPERATION='EXTRACTION',),);

FAPP=POST_RELEVE_T(ACTION=_F(INTITULE='RESULTANTES',
                             GROUP_NO='EFOND',
                             RESULTAT=RESU1,
                             NOM_CHAM='FORC_NODA',
                             RESULTANTE=('DX','DY','DZ',),
                             MOMENT=('DRX','DRY','DRZ',),
                             POINT=(3.6,3.6,0.0,),
                             OPERATION='EXTRACTION',),);

IMPR_TABLE(TABLE=FAPP,);

IMPR_TABLE(TABLE=REAC,);


IMPR_RESU(MODELE=MODMECA,
          FORMAT='GMSH', VERSION=1.2, UNITE=30,
          RESU=(_F(RESULTAT=TEMPE,INST=10.),
                _F(RESULTAT=RESUT,NOM_CHAM='DEPL',INST=10.),
                _F(RESULTAT=RESUT,NOM_CHAM='SIGM_ELNO_DEPL',INST=10.,NOM_CMP='SIXX'),
                   ),);

FIN()
