# MODIF  DATE 10/10/2012   AUTEUR COURTOIS M.COURTOIS 
# TITRE TP DYNAMIQUE TRANSITOIRE
# forma12a.para = tps_job 60 mem_job 512Mo ncpus 1 liste_test S
#            CONFIGURATION MANAGEMENT OF EDF VERSION
# ======================================================================
# COPYRIGHT (C) 1991 - 2012  EDF R&D                  WWW.CODE-ASTER.ORG
# THIS PROGRAM IS FREE SOFTWARE; YOU CAN REDISTRIBUTE IT AND/OR MODIFY
# IT UNDER THE TERMS OF THE GNU GENERAL PUBLIC LICENSE AS PUBLISHED BY
# THE FREE SOFTWARE FOUNDATION; EITHER VERSION 2 OF THE LICENSE, OR
# (AT YOUR OPTION) ANY LATER VERSION.
#
# THIS PROGRAM IS DISTRIBUTED IN THE HOPE THAT IT WILL BE USEFUL, BUT
# WITHOUT ANY WARRANTY; WITHOUT EVEN THE IMPLIED WARRANTY OF
# MERCHANTABILITY OR FITNESS FOR A PARTICULAR PURPOSE. SEE THE GNU
# GENERAL PUBLIC LICENSE FOR MORE DETAILS.
#
# YOU SHOULD HAVE RECEIVED A COPY OF THE GNU GENERAL PUBLIC LICENSE
# ALONG WITH THIS PROGRAM; IF NOT, WRITE TO EDF R&D CODE_ASTER,
#    1 AVENUE DU GENERAL DE GAULLE, 92141 CLAMART CEDEX, FRANCE.
# ======================================================================
# RESPONSABLE BOYERE E.BOYERE
#


DEBUT(CODE=_F(NOM='FORMA12A',NIV_PUB_WEB='INTERNET'),DEBUG=_F(SDVERI='OUI'))


MAIL=LIRE_MAILLAGE(UNITE=20,
                   FORMAT='MED',);

MODELE=AFFE_MODELE(MAILLAGE=MAIL,
                   AFFE=_F(TOUT='OUI',
                           PHENOMENE='MECANIQUE',
                           MODELISATION='3D',),);

BETON=DEFI_MATERIAU(ELAS=_F(E=2E10,
                            NU=.2,
                            RHO=2500.0,),);

CHMAT=AFFE_MATERIAU(MAILLAGE=MAIL,
                    AFFE=_F(TOUT='OUI',
                            MATER=BETON,),);

BLOCAGE=AFFE_CHAR_MECA(MODELE=MODELE,
                       DDL_IMPO=_F(GROUP_MA='Enca',
                                   DX=0.0,
                                   DY=0.0,
                                   DZ=0.0,),);

MACRO_MATR_ASSE(MODELE=MODELE,
                CHAM_MATER=CHMAT,
                CHARGE=BLOCAGE,
                NUME_DDL=CO('NUMEDDL'),
                MATR_ASSE=(_F(MATRICE=CO('RIGIDITE'),
                              OPTION='RIGI_MECA',),
                           _F(MATRICE=CO('MASSE'),
                              OPTION='MASS_MECA',),),);

MODES=MODE_ITER_SIMULT(MATR_RIGI=RIGIDITE,
                       MATR_MASS=MASSE,
                       CALC_FREQ=_F(OPTION='PLUS_PETITE',
                                    NMAX_FREQ=20,),);

TEST_RESU(RESU=(_F(NUME_ORDRE=1,
                   PARA='FREQ',
                   RESULTAT=MODES,
                   VALE_CALC=70.260999999999996,
                   TOLE_MACHINE=1.E-3,),
                _F(NUME_ORDRE=2,
                   PARA='FREQ',
                   RESULTAT=MODES,
                   VALE_CALC=128.256,
                   TOLE_MACHINE=1.E-3,),
                _F(NUME_ORDRE=4,
                   PARA='FREQ',
                   RESULTAT=MODES,
                   VALE_CALC=189.13999999999999,
                   TOLE_MACHINE=1.E-3,),
                _F(NUME_ORDRE=6,
                   PARA='FREQ',
                   RESULTAT=MODES,
                   VALE_CALC=236.595,
                   TOLE_MACHINE=1.E-3,),
                ),
          )

FIN();
