# MODIF  DATE 12/07/2011   AUTEUR ABBAS M.ABBAS 
# RESPONSABLE JMBHH01 J.M.PROIX
# TITRE ENONCE TP2 FORMATION THERMOPLASTICITE PLAQUE TROUEE EN TRACTION
# forma03b.para = tps_job 110 mem_job 64Mo ncpus 1 liste_test S
#            CONFIGURATION MANAGEMENT OF EDF VERSION
# ======================================================================
# COPYRIGHT (C) 1991 - 2011  EDF R&D                  WWW.CODE-ASTER.ORG
# THIS PROGRAM IS FREE SOFTWARE; YOU CAN REDISTRIBUTE IT AND/OR MODIFY  
# IT UNDER THE TERMS OF THE GNU GENERAL PUBLIC LICENSE AS PUBLISHED BY  
# THE FREE SOFTWARE FOUNDATION; EITHER VERSION 2 OF THE LICENSE, OR     
# (AT YOUR OPTION) ANY LATER VERSION.                                                    
#                                                                       
# THIS PROGRAM IS DISTRIBUTED IN THE HOPE THAT IT WILL BE USEFUL, BUT   
# WITHOUT ANY WARRANTY; WITHOUT EVEN THE IMPLIED WARRANTY OF            
# MERCHANTABILITY OR FITNESS FOR A PARTICULAR PURPOSE. SEE THE GNU      
# GENERAL PUBLIC LICENSE FOR MORE DETAILS.                              
#                                                                       
# YOU SHOULD HAVE RECEIVED A COPY OF THE GNU GENERAL PUBLIC LICENSE     
# ALONG WITH THIS PROGRAM; IF NOT, WRITE TO EDF R&D CODE_ASTER,         
#    1 AVENUE DU GENERAL DE GAULLE, 92141 CLAMART CEDEX, FRANCE.        
# ======================================================================

DEBUT(CODE=_F(NOM='FORMA03B',
              NIV_PUB_WEB='INTERNET',
              VISU_EFICAS='OUI',),);

M=LIRE_MAILLAGE(FORMAT='MED',
                VERI_MAIL=_F(),);

# PLAQUE TROUEE : CONTRAINTES PLANES

MO=AFFE_MODELE(MAILLAGE=M,
               VERIF='MAILLE',
               AFFE=_F(TOUT='OUI',
                       PHENOMENE='MECANIQUE',
                       MODELISATION='C_PLAN',),);

# COURBE DE TRACTION
CTRAC = LIRE_FONCTION(UNITE=21,
                      NOM_PARA='EPSI',
                      PROL_DROITE='CONSTANT',)

IMPR_FONCTION(FORMAT='XMGRACE',
              UNITE=29,
              COURBE=_F(FONCTION=CTRAC,),
              TITRE='Courbe de traction',
              LEGENDE_X='Deformation',
              LEGENDE_Y='Contrainte (MPa)',);

MA=DEFI_MATERIAU(ELAS=_F(E=200000.0,
                         NU=0.3,),
                 TRACTION=_F(SIGM=CTRAC,),);

CM=AFFE_MATERIAU(MAILLAGE=M,
                 AFFE=_F(TOUT='OUI',
                         MATER=MA,),);

# CONDITIONS DE SYMETRIE (QUART DE PLAQUE)

CH1=AFFE_CHAR_MECA(MODELE=MO,
                   FACE_IMPO=(_F(GROUP_MA='bas',
                                 DY=0.0,),
                              _F(GROUP_MA='gauche',
                                 DX=0.0,),),);

# TRACTION REPARTIE SUR LE HAUT

CH2=AFFE_CHAR_MECA(MODELE=MO,
                   FORCE_CONTOUR=_F(GROUP_MA='haut',
                                    FY=1.0,),);

# L INSTANT EST EGAL A LA VALEUR DE LA TRACTION SUR LFG

F_DEPL=DEFI_FONCTION(NOM_PARA='INST',VALE=(0.0,0.0,
                           1000.0,1000.0,
                           ),);

# DISCRETISATION EN TEMPS
Sy = 200.0;

Su = 270.0;

TMAX = (0.9 * Su);

TFIN = 230.0;

TELAS = (Sy / 3.0);


L_INST=DEFI_LIST_REEL(DEBUT=0.0,
                      INTERVALLE=(_F(JUSQU_A=TELAS,
                                     NOMBRE=1,),
                                  _F(JUSQU_A=TFIN,
                                     NOMBRE=30,),
                                  _F(JUSQU_A=TMAX,
                                     NOMBRE=20,),),);

DEFLIST =DEFI_LIST_INST(DEFI_LIST=_F(LIST_INST = L_INST,),
                        ECHEC=_F(ACTION='ITER_SUPPL',
                                 SUBD_METHODE='MANUEL',
                                 SUBD_PAS=2,
                                 SUBD_NIVEAU=20,),)

# PREMIER CALCUL : ON RESTE ELASTIQUE

RESUNL=STAT_NON_LINE(MODELE=MO,
                     CHAM_MATER=CM,
                     EXCIT=(_F(CHARGE=CH1,),
                            _F(CHARGE=CH2,
                               FONC_MULT=F_DEPL,),),
                     COMP_INCR=_F(RELATION='VMIS_ISOT_TRAC',),
                     INCREMENT=_F(LIST_INST=DEFLIST,
                                  INST_FIN=TELAS,),);

# CALCUL SANS SOUCI JUSQU'A TFIN
# SUBDIVISION DU PAS DE TEMPS
# LE NOMBRE D'ITERATIONS POUR CONVERGER AUGMENTE

RESUNL=STAT_NON_LINE(reuse =RESUNL,
                     MODELE=MO,
                     CHAM_MATER=CM,
                     EXCIT=(_F(CHARGE=CH1,),
                            _F(CHARGE=CH2,
                               FONC_MULT=F_DEPL,),),
                     COMP_INCR=_F(RELATION='VMIS_ISOT_TRAC',
                                  ITER_INTE_MAXI=100,),
                     ETAT_INIT=_F(EVOL_NOLI=RESUNL,),
                     INCREMENT=_F(LIST_INST=DEFLIST,
                                  INST_FIN=TFIN,
                                  ),
                     NEWTON=_F(REAC_ITER=1,),
                     RECH_LINEAIRE=_F(ITER_LINE_MAXI=5,),
                     ARCHIVAGE=_F(LIST_INST=L_INST,),);

# AU DELA DE 430. : NON CONVERGENCE
#ou pivot nul 
# ON DEPASSE SANS DOUTE LA CHARGE LIMITE
#Il faut mener le calcul autrement (pilotage) 
#
#
# INTERPOLATION DES CONTRAINTES ET VARIABLE INTERNES AUX NOEUDS

RESUNL=CALC_ELEM(reuse =RESUNL,
                 RESULTAT=RESUNL,
                 OPTION=('SIEF_ELNO','VARI_ELNO','SIEQ_ELGA',),);

# DEPOUILLEMENTS DES RESULTATS
# VALEURS MAXI DES CONTRAINTES EQUIVALENTES ET DES VARIABLES INTERNES

IMPR_RESU(MODELE=MO,
          RESU=(_F(RESULTAT=RESUNL,
                   NOM_CHAM='SIEQ_ELGA',
                   VALE_MAX='OUI',),
                _F(RESULTAT=RESUNL,
                   NOM_CHAM='VARI_ELGA',
                   VALE_MAX='OUI',),),);

IMPR_RESU(FORMAT='MED',
          RESU=_F(RESULTAT=RESUNL,),);

RESUNL=CALC_NO(reuse =RESUNL,
               RESULTAT=RESUNL,
               OPTION='SIEF_NOEU',);

#
# COURBE SIYY AU POINT G EN FONCTION DU DEPLACEMENT 
#######################################################


DYG=RECU_FONCTION(RESULTAT=RESUNL,
                  NOM_CHAM='DEPL',
                  NOM_CMP='DY',
                  GROUP_NO='G',);

SYG=RECU_FONCTION(RESULTAT=RESUNL,
                  NOM_CHAM='SIEF_NOEU',
                  NOM_CMP='SIYY',
                  GROUP_NO='G',);

# COURBES AVEC XMGRACE 

IMPR_FONCTION(FORMAT='XMGRACE',
              UNITE=82,
              COURBE=_F(FONC_X=DYG,
                        FONC_Y=SYG,),
              TITRE='SigmaYY en fonction de Dy au point G ',
              LEGENDE_X='Deplacement DY au point G',
              LEGENDE_Y='Contraine SIGMAYY',);

SIGBAS=MACR_LIGN_COUPE(RESULTAT=RESUNL,
                       NOM_CHAM='SIEF_ELNO',
                       LIGN_COUPE=_F(NB_POINTS=30,
                                     COOR_ORIG=(10,0,),
                                     COOR_EXTR=(100,0,),),);

IMPR_TABLE(TABLE=SIGBAS,
           FILTRE=_F(NOM_PARA='INST',
                     VALE=TFIN,),
           NOM_PARA=('ABSC_CURV','SIYY',),);

TEST_RESU(RESU=(_F(RESULTAT=RESUNL,
                   INST=TELAS,
                   NOM_CHAM='SIEF_NOEU',
                   NOM_CMP='SIYY',
                   GROUP_NO='B',
                   VALE=(3.0 * TELAS),
                   PRECISION=0.03,
                   REFERENCE='ANALYTIQUE',),
                _F(RESULTAT=RESUNL,
                   INST=TELAS,
                   NOM_CHAM='SIEF_NOEU',
                   NOM_CMP='SIXX',
                   GROUP_NO='A',
                   VALE=(-1.0 * TELAS),
                   PRECISION=0.03,
                   REFERENCE='ANALYTIQUE',),
                _F(RESULTAT=RESUNL,
                   INST=TFIN,
                   NOM_CHAM='SIEF_NOEU',
                   NOM_CMP='SIYY',
                   GROUP_NO='G',
                   VALE=TFIN,
                   REFERENCE='ANALYTIQUE',),),);

#
# CHARGE PUIS DECHARGE
#######################################################


# DISCRETISATION EN TEMPS
TFIN1 = 200.0;

TFIN2 = 300.0;


F_DEPL2=DEFI_FONCTION(NOM_PARA='INST',VALE=(0.,0.,
                            TFIN1,TFIN1,
                            TFIN2,0.,
                            ),);

L_INST2=DEFI_LIST_REEL(DEBUT=0.0,
                       INTERVALLE=(_F(JUSQU_A=TELAS,
                                      NOMBRE=1,),
                                   _F(JUSQU_A=TFIN1,
                                      NOMBRE=30,),
                                   _F(JUSQU_A=TFIN2,
                                      NOMBRE=10,),),);

DEFLIST2 =DEFI_LIST_INST(DEFI_LIST=_F(LIST_INST = L_INST2,),
                        ECHEC=_F(EVENEMENT    = 'ERREUR',
                                 ACTION       = 'DECOUPE',
                                 SUBD_METHODE = 'MANUEL',
                                 SUBD_PAS     = 2,
                                 SUBD_NIVEAU  = 20,),)

RESUNL2=STAT_NON_LINE(MODELE=MO,
                      CHAM_MATER=CM,
                      EXCIT=(_F(CHARGE=CH1,),
                             _F(CHARGE=CH2,
                                FONC_MULT=F_DEPL2,),),
                      COMP_INCR=_F(RELATION='VMIS_ISOT_TRAC',),
                      INCREMENT=_F(LIST_INST=DEFLIST2),
                      NEWTON=_F(PREDICTION='ELASTIQUE',
                                REAC_ITER=1,),
                      RECH_LINEAIRE=_F(ITER_LINE_MAXI=5,),
                      ARCHIVAGE=_F(LIST_INST=L_INST2,),);

# INTERPOLATION DES CONTRAINTES ET VARIABLE INTERNES AUX NOEUDS

RESUNL2=CALC_ELEM(reuse =RESUNL2,
                  RESULTAT=RESUNL2,
                  OPTION=('SIEF_ELNO','VARI_ELNO','SIEQ_ELGA',),);

# DEPOUILLEMENTS DES RESULTATS
# VALEURS MAXI DES CONTRAINTES EQUIVALENTES ET DES VARIABLES INTERNES

IMPR_RESU(MODELE=MO,
          RESU=(_F(RESULTAT=RESUNL2,
                   NOM_CHAM='SIEQ_ELGA',
                   VALE_MAX='OUI',),
                _F(RESULTAT=RESUNL2,
                   NOM_CHAM='VARI_ELGA',
                   VALE_MAX='OUI',),),);

IMPR_RESU(FORMAT='MED',
          RESU=_F(RESULTAT=RESUNL2,),);

RESUNL2=CALC_NO(reuse =RESUNL2,
                RESULTAT=RESUNL2,
                OPTION='SIEF_NOEU',);

#
# COURBE SIYY AU POINT G EN FONCTION DU DEPLACEMENT 
#######################################################


DYG2=RECU_FONCTION(RESULTAT=RESUNL2,
                   NOM_CHAM='DEPL',
                   NOM_CMP='DY',
                   GROUP_NO='G',);

SYG2=RECU_FONCTION(RESULTAT=RESUNL2,
                   NOM_CHAM='SIEF_NOEU',
                   NOM_CMP='SIYY',
                   GROUP_NO='G',);

# COURBES AVEC XMGRACE 

IMPR_FONCTION(FORMAT='XMGRACE',
              UNITE=84,
              COURBE=_F(FONC_X=DYG2,
                        FONC_Y=SYG2,),
              TITRE='SigmaYY en fonction de Dy au point G ',
              BORNE_X=(0.0,3.0,),
              BORNE_Y=(0.0,7.0,),
              GRILLE_X=0.5,
              GRILLE_Y=1.0,
              LEGENDE_X='D\xe9placement DY au point G',
              LEGENDE_Y='Contraine SIGMAYY',);

SIGBAS2=MACR_LIGN_COUPE(RESULTAT=RESUNL2,
                        NOM_CHAM='SIEF_ELNO',
                        LIGN_COUPE=_F(NB_POINTS=30,
                                      COOR_ORIG=(10,0,),
                                      COOR_EXTR=(100,0,),),);

IMPR_TABLE(TABLE=SIGBAS2,
           FILTRE=_F(NOM_PARA='INST',
                     VALE=TFIN,),
           NOM_PARA=('ABSC_CURV','SIYY',),);

TEST_RESU(RESU=_F(RESULTAT=RESUNL2,
                  INST=TFIN2,
                  NOM_CHAM='SIEF_NOEU',
                  NOM_CMP='SIYY',
                  GROUP_NO='G',
                  VALE=0.0,
                  CRITERE='ABSOLU',
                  PRECISION=0.01,
                  REFERENCE='ANALYTIQUE',),);

FIN();
