# MODIF  DATE 30/01/2012   AUTEUR MACOCCO K.MACOCCO 
# TITRE TP RUPTURE : FISSURE CIRCULAIRE DANS UN MILIEU INFINI
# forma07a.para = tps_job 60 mem_job 128Mo ncpus 1 liste_test S
#            CONFIGURATION MANAGEMENT OF EDF VERSION
# ======================================================================
# COPYRIGHT (C) 1991 - 2012  EDF R&D                  WWW.CODE-ASTER.ORG
# THIS PROGRAM IS FREE SOFTWARE; YOU CAN REDISTRIBUTE IT AND/OR MODIFY  
# IT UNDER THE TERMS OF THE GNU GENERAL PUBLIC LICENSE AS PUBLISHED BY  
# THE FREE SOFTWARE FOUNDATION; EITHER VERSION 2 OF THE LICENSE, OR     
# (AT YOUR OPTION) ANY LATER VERSION.                                                    
#                                                                       
# THIS PROGRAM IS DISTRIBUTED IN THE HOPE THAT IT WILL BE USEFUL, BUT   
# WITHOUT ANY WARRANTY; WITHOUT EVEN THE IMPLIED WARRANTY OF            
# MERCHANTABILITY OR FITNESS FOR A PARTICULAR PURPOSE. SEE THE GNU      
# GENERAL PUBLIC LICENSE FOR MORE DETAILS.                              
#                                                                       
# YOU SHOULD HAVE RECEIVED A COPY OF THE GNU GENERAL PUBLIC LICENSE     
# ALONG WITH THIS PROGRAM; IF NOT, WRITE TO EDF R&D CODE_ASTER,         
#    1 AVENUE DU GENERAL DE GAULLE, 92141 CLAMART CEDEX, FRANCE.        
# ======================================================================

DEBUT(CODE=_F(NOM='FORMA07A',NIV_PUB_WEB='INTERNET'),DEBUG=_F(SDVERI='OUI'))

# MODELIDATION A : FEM 3D

# CE FICHIER EST LA VERSION CORRIGEE DU 2EME EXERCICE DES TPS
# POUR LA PREPARATION DES TPS, FOURNIR EGALEMENT UNE VERSION A TROUS DE CE FICHIER :
# - REMPLACER LES PARAMETRES RSUP ET RSUP PAR UNE VALEUR BIDON (EX. : 999)
# - SUPPRIMER LES TEST_TABLE

MA=LIRE_MAILLAGE(FORMAT='MED')

MO=AFFE_MODELE(MAILLAGE=MA,
               AFFE=_F(TOUT='OUI',
                       PHENOMENE = 'MECANIQUE',
                       MODELISATION = '3D') )

MA=MODI_MAILLAGE(reuse =MA,
                 MAILLAGE=MA,
                 ORIE_PEAU_3D=_F(GROUP_MA=('FACE_AV','FACE_LAT',)))

MAT=DEFI_MATERIAU(ELAS=_F(E = 2.E11,
                          NU = 0.3))

CHMAT=AFFE_MATERIAU(MAILLAGE=MA,
                    AFFE=_F(TOUT = 'OUI',
                            MATER = MAT) )

SYMETR=AFFE_CHAR_MECA(MODELE=MO,
                       DDL_IMPO=_F(GROUP_NO='D',DZ=0.0,),
                       FACE_IMPO=(_F(GROUP_MA='FACE_AV',DNOR=0.0),
                                  _F(GROUP_MA='FACE_LAT',DNOR=0.0)))

PRESSION=AFFE_CHAR_MECA(MODELE=MO,
                        FORCE_FACE=(_F(GROUP_MA='FACE_SUP',FZ=1.E6),
                                    _F(GROUP_MA='FACE_INF',FZ=-1.E6)))

CHAMDEPL=MECA_STATIQUE(MODELE=MO,
                       CHAM_MATER=CHMAT,
                       EXCIT=(_F(CHARGE=PRESSION),
                              _F(CHARGE=SYMETR)))

CHAMDEPL=CALC_ELEM(reuse=CHAMDEPL,
                   RESULTAT=CHAMDEPL,
                   OPTION='SIGM_ELNO')

CHAMDEPL=CALC_NO(reuse=CHAMDEPL,
                 RESULTAT=CHAMDEPL,
                 OPTION='SIGM_NOEU')

IMPR_RESU(FORMAT='MED',
          UNITE=80,
          RESU=_F(RESULTAT=CHAMDEPL))

#----------------------------------------------------------------------
#                  fin du calcul mecanique
#----------------------------------------------------------------------

FISS=DEFI_FOND_FISS(MAILLAGE=MA,
                    FOND_FISS=_F(GROUP_MA='LFF',
                                 GROUP_NO_ORIG='NFF1',
                                 GROUP_NO_EXTR='NFF2',
                                 DTAN_ORIG=(1.,0.,0.),
                                 DTAN_EXTR=(0.,1.,0.)
                                 ),
                    LEVRE_SUP=_F(GROUP_MA = 'LEV_SUP'),
                    LEVRE_INF=_F(GROUP_MA = 'LEV_INF'),
                    )

RSUP=0.5
RINF=0.2


# Calcul de G par CALC_G le long du fond de fissure
#--------------------------------------------------

# valeur de reference milieu infini :
G_REF=11.58648

# lissage de Legendre (par defaut)
G_LEG=CALC_G(RESULTAT=CHAMDEPL,
             OPTION='CALC_G',
             THETA=_F(FOND_FISS=FISS,
                      R_SUP=RSUP,
                      R_INF=RINF),
             LISSAGE=_F(LISSAGE_THETA='LEGENDRE',
                        LISSAGE_G='LEGENDRE',
                        DEGRE=5))

IMPR_TABLE(TABLE=G_LEG)


# lissage de Lagrange
G_LAG=CALC_G(RESULTAT=CHAMDEPL,
             OPTION='CALC_G',
             THETA=_F(FOND_FISS=FISS,
                      R_SUP=RSUP,
                      R_INF=RINF,),
             LISSAGE=_F(LISSAGE_THETA='LAGRANGE',
                        LISSAGE_G='LAGRANGE'))

IMPR_TABLE(TABLE=G_LAG)


# lissage de Lagrange regularise
G_LAGR=CALC_G(RESULTAT=CHAMDEPL,
             OPTION='CALC_G',
               THETA=_F(FOND_FISS=FISS,
                       R_SUP=RSUP,
                       R_INF=RINF,),
              LISSAGE=_F(LISSAGE_THETA='LAGRANGE_REGU',
                         LISSAGE_G='LAGRANGE_REGU'))

IMPR_TABLE(TABLE=G_LAGR)


# lissage de Lagrange noeud-noeud
G_LAGN=CALC_G(RESULTAT=CHAMDEPL,
              OPTION='CALC_G',
              THETA=_F(FOND_FISS=FISS,
                       R_SUP=RSUP,
                       R_INF=RINF,),
              LISSAGE=_F(LISSAGE_THETA='LAGRANGE',
                         LISSAGE_G='LAGRANGE_NO_NO'))

IMPR_TABLE(TABLE=G_LAGN)


# Calcul de K par POST_K1_K2_K3 le long du fond de fissure
#---------------------------------------------------------

K=POST_K1_K2_K3(MODELISATION='3D',
                MATER=MAT,
                RESULTAT=CHAMDEPL,
                FOND_FISS=FISS,)


IMPR_TABLE(TABLE=K)

# trace des courbes (necessite de passer par astk)

C_G_LEG=RECU_FONCTION(TABLE=G_LEG,
                      PARA_X='ABSC_CURV',
                      PARA_Y='G',)

C_G_LAG=RECU_FONCTION(TABLE=G_LAG,
                      PARA_X='ABSC_CURV',
                      PARA_Y='G',)

C_G_LAGR=RECU_FONCTION(TABLE=G_LAGR,
                       PARA_X='ABSC_CURV',
                       PARA_Y='G',)

C_G_LAGN=RECU_FONCTION(TABLE=G_LAGN,
                       PARA_X='ABSC_CURV',
                       PARA_Y='G',)


IMPR_FONCTION(FORMAT='XMGRACE',
              UNITE=31,
              COURBE=(_F(FONCTION=C_G_LEG,
                         LEGENDE='lissage LEGENDRE degre 5',
                         MARQUEUR=0,
                         COULEUR=1),
                      _F(FONCTION=C_G_LAG,
                         LEGENDE='lissage LAGRANGE',
                         MARQUEUR=0,
                         COULEUR=2),
                      _F(FONCTION=C_G_LAGR,
                         LEGENDE='lissage LAGRANGE_REGU',
                         MARQUEUR=0,
                         COULEUR=3),
                      _F(FONCTION=C_G_LAGN,
                         LEGENDE='lissage LAGRANGE_NO_NO',
                         MARQUEUR=0,
                         COULEUR=4),
                       ),
              TITRE='Taux de restitution d energie',
              BORNE_X=(0.0,3.14,),
              BORNE_Y=(0.0,15,),
              GRILLE_X=0.5,
              GRILLE_Y=1.0,
              LEGENDE_X='s (m)',
              LEGENDE_Y='G (J.m\S-2\N)',);

K1ref = 1.5957e6
TEST_TABLE(TABLE=K,
           NOM_PARA='K1',
           TYPE_TEST='MAX',
           VALE=K1ref,
           PRECISION=0.008,
           REFERENCE='ANALYTIQUE' )
  
  

FIN();                       
