# MODIF  DATE 10/10/2012   AUTEUR COURTOIS M.COURTOIS 
# TITRE  DSR3 - RENUM RCMK / AFFE_CHAR_MECA / SOLVE
# gcpc002b.para = tps_job 150 mem_job 768Mo ncpus 1 liste_test S
#            CONFIGURATION MANAGEMENT OF EDF VERSION
# ======================================================================
# COPYRIGHT (C) 1991 - 2012  EDF R&D                  WWW.CODE-ASTER.ORG
# THIS PROGRAM IS FREE SOFTWARE; YOU CAN REDISTRIBUTE IT AND/OR MODIFY
# IT UNDER THE TERMS OF THE GNU GENERAL PUBLIC LICENSE AS PUBLISHED BY
# THE FREE SOFTWARE FOUNDATION; EITHER VERSION 2 OF THE LICENSE, OR
# (AT YOUR OPTION) ANY LATER VERSION.
#
# THIS PROGRAM IS DISTRIBUTED IN THE HOPE THAT IT WILL BE USEFUL, BUT
# WITHOUT ANY WARRANTY; WITHOUT EVEN THE IMPLIED WARRANTY OF
# MERCHANTABILITY OR FITNESS FOR A PARTICULAR PURPOSE. SEE THE GNU
# GENERAL PUBLIC LICENSE FOR MORE DETAILS.
#
# YOU SHOULD HAVE RECEIVED A COPY OF THE GNU GENERAL PUBLIC LICENSE
# ALONG WITH THIS PROGRAM; IF NOT, WRITE TO EDF R&D CODE_ASTER,
#    1 AVENUE DU GENERAL DE GAULLE, 92141 CLAMART CEDEX, FRANCE.
# ======================================================================
# TEST DE PERFORMANCE ANCIENNEMENT NOMME SSLV130G

DEBUT(CODE=_F(NOM='GCPC002B',
NIV_PUB_WEB='INTERNET',),DEBUG=_F(SDVERI='OUI'))

MA=LIRE_MAILLAGE(FORMAT='MED',);

MO=AFFE_MODELE(MAILLAGE=MA,
               AFFE=_F(TOUT='OUI',
                       PHENOMENE='MECANIQUE',
                       MODELISATION='3D',),);

MAT=DEFI_MATERIAU(ELAS=_F(E=210000.0,
                          NU=.3,),);

CHMAT=AFFE_MATERIAU(MAILLAGE=MA,
                    AFFE=_F(TOUT='OUI',
                            MATER=MAT,),);

CHA=AFFE_CHAR_MECA(MODELE=MO,
                   DDL_IMPO=(_F(GROUP_NO='SUPY',
                                DY=0.,),
                             _F(GROUP_NO='APPUI',
                                DX=0.,),
                             _F(GROUP_NO='SUPZ',
                                DZ=0.,),
                             _F(GROUP_NO='CHARGE',
                                DX=-1.,),),);

MEL=CALC_MATR_ELEM(OPTION='RIGI_MECA',
                   MODELE=MO,
                   CHAM_MATER=CHMAT,
                   CHARGE=CHA,);

NU=NUME_DDL(MATR_RIGI=MEL,
            METHODE='GCPC',
            RENUM='RCMK',);

MATAS=ASSE_MATRICE(MATR_ELEM=MEL,
                   NUME_DDL=NU,);

VEL=CALC_VECT_ELEM(OPTION='CHAR_MECA',
                   CHARGE=CHA,);

VECAS=ASSE_VECTEUR(VECT_ELEM=VEL,
                   NUME_DDL=NU,);

# GCP + LDLT_INC
KMATAS=FACTORISER(MATR_ASSE=MATAS,);

DEP=RESOUDRE(MATR=MATAS,
             CHAM_NO=VECAS,
             RESI_RELA=1.0E-7,
             MATR_PREC=KMATAS,);

RESU=CREA_RESU(OPERATION='AFFE',
               TYPE_RESU='EVOL_ELAS',
               NOM_CHAM='DEPL',
               AFFE=_F(CHAM_GD=DEP,
                       INST=0.,
                       MODELE=MO,
                       CHAM_MATER=CHMAT,),);

RESU=CALC_CHAMP(reuse=RESU,RESULTAT=RESU,INST=0.,CONTRAINTE=('SIGM_ELNO'))


TEST_RESU(CHAM_NO=(_F(NOEUD='NO13943',
                      REFERENCE='SOURCE_EXTERNE',
                      NOM_CMP='DX',
                      PRECISION=1.4E-3,
                      TOLE_MACHINE=1.E-3,
                      CHAM_GD=DEP,
                      VALE_CALC= 6.57883663E-04,
                      VALE_REFE=6.5855000000000004E-4,),
                   _F(NOEUD='NO13943',
                      REFERENCE='SOURCE_EXTERNE',
                      NOM_CMP='DY',
                      PRECISION=1.E-3,
                      TOLE_MACHINE=1.E-3,
                      CHAM_GD=DEP,
                      VALE_CALC=0.064426630,
                      VALE_REFE=0.064427999999999999,),
                   _F(NOEUD='NO13943',
                      REFERENCE='SOURCE_EXTERNE',
                      NOM_CMP='DZ',
                      PRECISION=1.E-3,
                      TOLE_MACHINE=1.E-3,
                      CHAM_GD=DEP,
                      VALE_CALC=-6.39197522E-03,
                      VALE_REFE=-6.3926E-3,),
                   _F(NOEUD='NO13944',
                      REFERENCE='SOURCE_EXTERNE',
                      NOM_CMP='DX',
                      PRECISION=1.1999999999999999E-3,
                      TOLE_MACHINE=1.E-3,
                      CHAM_GD=DEP,
                      VALE_CALC= 8.67666091E-04,
                      VALE_REFE=8.6830999999999996E-4,),
                   _F(NOEUD='NO13944',
                      REFERENCE='SOURCE_EXTERNE',
                      NOM_CMP='DY',
                      PRECISION=1.E-3,
                      TOLE_MACHINE=1.E-3,
                      CHAM_GD=DEP,
                      VALE_CALC=0.061355683,
                      VALE_REFE=0.061357000000000002,),
                   _F(NOEUD='NO13944',
                      REFERENCE='SOURCE_EXTERNE',
                      NOM_CMP='DZ',
                      PRECISION=1.E-3,
                      TOLE_MACHINE=1.E-3,
                      CHAM_GD=DEP,
                      VALE_CALC=-6.22371375E-03,
                      VALE_REFE=-6.2243999999999997E-3,),
                   _F(NOEUD='NO15854',
                      REFERENCE='SOURCE_EXTERNE',
                      NOM_CMP='DX',
                      PRECISION=1.E-3,
                      TOLE_MACHINE=1.E-3,
                      CHAM_GD=DEP,
                      VALE_CALC= 1.13084605E-03,
                      VALE_REFE=1.1314999999999999E-3,),
                   _F(NOEUD='NO15854',
                      REFERENCE='SOURCE_EXTERNE',
                      NOM_CMP='DY',
                      PRECISION=1.E-3,
                      TOLE_MACHINE=1.E-3,
                      CHAM_GD=DEP,
                      VALE_CALC=0.058734021,
                      VALE_REFE=0.058735000000000002,),
                   _F(NOEUD='NO15854',
                      REFERENCE='SOURCE_EXTERNE',
                      NOM_CMP='DZ',
                      PRECISION=1.E-3,
                      TOLE_MACHINE=1.E-3,
                      CHAM_GD=DEP,
                      VALE_CALC=-6.06385648E-03,
                      VALE_REFE=-6.0644999999999996E-3,),
                   _F(NOEUD='NO15855',
                      REFERENCE='SOURCE_EXTERNE',
                      NOM_CMP='DX',
                      PRECISION=1.E-3,
                      TOLE_MACHINE=1.E-3,
                      CHAM_GD=DEP,
                      VALE_CALC= 2.35321857E-03,
                      VALE_REFE=2.3536999999999998E-3,),
                   _F(NOEUD='NO15855',
                      REFERENCE='SOURCE_EXTERNE',
                      NOM_CMP='DY',
                      PRECISION=1.E-3,
                      TOLE_MACHINE=1.E-3,
                      CHAM_GD=DEP,
                      VALE_CALC=0.043550099,
                      VALE_REFE=0.043550999999999999,),
                   _F(NOEUD='NO15855',
                      REFERENCE='SOURCE_EXTERNE',
                      NOM_CMP='DZ',
                      PRECISION=1.E-3,
                      TOLE_MACHINE=1.E-3,
                      CHAM_GD=DEP,
                      VALE_CALC=-4.53807297E-03,
                      VALE_REFE=-4.5380999999999998E-3,),
                   _F(NOEUD='NO15858',
                      REFERENCE='SOURCE_EXTERNE',
                      NOM_CMP='DX',
                      PRECISION=1.E-3,
                      TOLE_MACHINE=1.E-3,
                      CHAM_GD=DEP,
                      VALE_CALC= 3.17200014E-03,
                      VALE_REFE=3.1725E-3,),
                   _F(NOEUD='NO15858',
                      REFERENCE='SOURCE_EXTERNE',
                      NOM_CMP='DY',
                      PRECISION=1.E-3,
                      TOLE_MACHINE=1.E-3,
                      CHAM_GD=DEP,
                      VALE_CALC=0.028243639,
                      VALE_REFE=0.028243999999999998,),
                   _F(NOEUD='NO15858',
                      REFERENCE='SOURCE_EXTERNE',
                      NOM_CMP='DZ',
                      PRECISION=1.E-3,
                      TOLE_MACHINE=1.E-3,
                      CHAM_GD=DEP,
                      VALE_CALC=-2.92787038E-03,
                      VALE_REFE=-2.9277999999999999E-3,),
                   _F(NOEUD='NO15860',
                      REFERENCE='SOURCE_EXTERNE',
                      NOM_CMP='DX',
                      PRECISION=1.E-3,
                      TOLE_MACHINE=1.E-3,
                      CHAM_GD=DEP,
                      VALE_CALC= 3.67545005E-03,
                      VALE_REFE=3.6759000000000002E-3,),
                   _F(NOEUD='NO15860',
                      REFERENCE='SOURCE_EXTERNE',
                      NOM_CMP='DY',
                      PRECISION=1.E-3,
                      TOLE_MACHINE=1.E-3,
                      CHAM_GD=DEP,
                      VALE_CALC=0.012583889,
                      VALE_REFE=0.012585000000000001,),
                   _F(NOEUD='NO15860',
                      REFERENCE='SOURCE_EXTERNE',
                      NOM_CMP='DZ',
                      PRECISION=1.E-3,
                      TOLE_MACHINE=1.E-3,
                      CHAM_GD=DEP,
                      VALE_CALC=-1.21940526E-03,
                      VALE_REFE=-1.2193E-3,),
                   _F(NOEUD='NO15862',
                      REFERENCE='SOURCE_EXTERNE',
                      NOM_CMP='DX',
                      PRECISION=1.E-3,
                      TOLE_MACHINE=1.E-3,
                      CHAM_GD=DEP,
                      VALE_CALC= 3.82999105E-03,
                      VALE_REFE=3.8303999999999999E-3,),
                   _F(NOEUD='NO15862',
                      REFERENCE='SOURCE_EXTERNE',
                      NOM_CMP='DY',
                      PRECISION=2.E-3,
                      TOLE_MACHINE=1.E-3,
                      CHAM_GD=DEP,
                      VALE_CALC=-3.12842166E-03,
                      VALE_REFE=-3.1278E-3,),
                   _F(NOEUD='NO15862',
                      REFERENCE='SOURCE_EXTERNE',
                      NOM_CMP='DZ',
                      PRECISION=2.E-3,
                      TOLE_MACHINE=1.E-3,
                      CHAM_GD=DEP,
                      VALE_CALC= 4.83170043E-04,
                      VALE_REFE=4.8319999999999998E-4,),
                   _F(NOEUD='NO15863',
                      REFERENCE='SOURCE_EXTERNE',
                      NOM_CMP='DX',
                      PRECISION=1.E-3,
                      TOLE_MACHINE=1.E-3,
                      CHAM_GD=DEP,
                      VALE_CALC= 3.58304427E-03,
                      VALE_REFE=3.5834999999999999E-3,),
                   _F(NOEUD='NO15863',
                      REFERENCE='SOURCE_EXTERNE',
                      NOM_CMP='DY',
                      PRECISION=1.E-3,
                      TOLE_MACHINE=1.E-3,
                      CHAM_GD=DEP,
                      VALE_CALC=-0.018953418,
                      VALE_REFE=-0.018953000000000001,),
                   _F(NOEUD='NO15863',
                      REFERENCE='SOURCE_EXTERNE',
                      NOM_CMP='DZ',
                      PRECISION=1.E-3,
                      TOLE_MACHINE=1.E-3,
                      CHAM_GD=DEP,
                      VALE_CALC= 2.15094482E-03,
                      VALE_REFE=2.1508E-3,),
                   _F(NOEUD='NO15868',
                      REFERENCE='SOURCE_EXTERNE',
                      NOM_CMP='DX',
                      PRECISION=1.E-3,
                      TOLE_MACHINE=1.E-3,
                      CHAM_GD=DEP,
                      VALE_CALC= 2.95069874E-03,
                      VALE_REFE=2.9512000000000002E-3,),
                   _F(NOEUD='NO15868',
                      REFERENCE='SOURCE_EXTERNE',
                      NOM_CMP='DY',
                      PRECISION=1.E-3,
                      TOLE_MACHINE=1.E-3,
                      CHAM_GD=DEP,
                      VALE_CALC=-0.034851537,
                      VALE_REFE=-0.034851,),
                   _F(NOEUD='NO15868',
                      REFERENCE='SOURCE_EXTERNE',
                      NOM_CMP='DZ',
                      PRECISION=1.E-3,
                      TOLE_MACHINE=1.E-3,
                      CHAM_GD=DEP,
                      VALE_CALC= 3.76802601E-03,
                      VALE_REFE=3.7678999999999998E-3,),
                   _F(NOEUD='NO15869',
                      REFERENCE='SOURCE_EXTERNE',
                      NOM_CMP='DX',
                      PRECISION=1.E-3,
                      TOLE_MACHINE=1.E-3,
                      CHAM_GD=DEP,
                      VALE_CALC= 1.73361313E-03,
                      VALE_REFE=1.7340000000000001E-3,),
                   _F(NOEUD='NO15869',
                      REFERENCE='SOURCE_EXTERNE',
                      NOM_CMP='DY',
                      PRECISION=1.E-3,
                      TOLE_MACHINE=1.E-3,
                      CHAM_GD=DEP,
                      VALE_CALC=-0.050995427,
                      VALE_REFE=-0.050994999999999999,),
                   _F(NOEUD='NO15869',
                      REFERENCE='SOURCE_EXTERNE',
                      NOM_CMP='DZ',
                      PRECISION=1.E-3,
                      TOLE_MACHINE=1.E-3,
                      CHAM_GD=DEP,
                      VALE_CALC= 4.97494159E-03,
                      VALE_REFE=4.9749E-3,),
                   _F(NOEUD='NO15866',
                      CRITERE='ABSOLU',
                      REFERENCE='SOURCE_EXTERNE',
                      NOM_CMP='DX',
                      PRECISION=9.9999999999999995E-08,
                      TOLE_MACHINE=1.E-3,
                      CHAM_GD=DEP,
                      VALE_CALC= 1.69419970E-09,
                      VALE_REFE=0.0,),
                   _F(NOEUD='NO15866',
                      REFERENCE='SOURCE_EXTERNE',
                      NOM_CMP='DY',
                      PRECISION=1.E-3,
                      TOLE_MACHINE=1.E-3,
                      CHAM_GD=DEP,
                      VALE_CALC=-0.067226287,
                      VALE_REFE=-0.067225999999999994,),
                   _F(NOEUD='NO15866',
                      REFERENCE='SOURCE_EXTERNE',
                      NOM_CMP='DZ',
                      PRECISION=1.E-3,
                      TOLE_MACHINE=1.E-3,
                      CHAM_GD=DEP,
                      VALE_CALC= 5.82032535E-03,
                      VALE_REFE=5.8203999999999999E-3,),
                   ),
          )

#
# VALEUR DU TENSEUR DES CONTRAINTES PROVENANT D'UN CALCUL PAR PERMAS

TEST_RESU(RESU=(_F(INST=0.0,
                   REFERENCE='SOURCE_EXTERNE',
                   RESULTAT=RESU,
                   NOM_CHAM='SIGM_ELNO',
                   NOEUD='NO15854',
                   NOM_CMP='SIXX',
                   VALE_CALC=-3.560632723,
                   VALE_REFE=-3.5204,
                   PRECISION=0.014999999999999999,
                   TOLE_MACHINE=2.E-3,
                   MAILLE='MA4204',),
                _F(INST=0.0,
                   REFERENCE='SOURCE_EXTERNE',
                   RESULTAT=RESU,
                   NOM_CHAM='SIGM_ELNO',
                   NOEUD='NO15854',
                   NOM_CMP='SIXY',
                   VALE_CALC=-1.786844491,
                   VALE_REFE=-1.8101,
                   PRECISION=0.014999999999999999,
                   TOLE_MACHINE=1.E-3,
                   MAILLE='MA4204',),
                _F(INST=0.0,
                   REFERENCE='SOURCE_EXTERNE',
                   RESULTAT=RESU,
                   NOM_CHAM='SIGM_ELNO',
                   NOEUD='NO15854',
                   NOM_CMP='SIYY',
                   VALE_CALC=53.881334210,
                   VALE_REFE=53.914000000000001,
                   PRECISION=1.E-3,
                   TOLE_MACHINE=1.E-3,
                   MAILLE='MA4204',),
                _F(INST=0.0,
                   REFERENCE='SOURCE_EXTERNE',
                   RESULTAT=RESU,
                   NOM_CHAM='SIGM_ELNO',
                   NOEUD='NO15854',
                   NOM_CMP='SIXZ',
                   VALE_CALC=-0.68973250258877,
                   VALE_REFE=-0.71499999999999997,
                   PRECISION=0.040000000000000001,
                   TOLE_MACHINE=2.E-3,
                   MAILLE='MA4204',),
                _F(INST=0.0,
                   REFERENCE='SOURCE_EXTERNE',
                   RESULTAT=RESU,
                   NOM_CHAM='SIGM_ELNO',
                   NOEUD='NO15854',
                   NOM_CMP='SIYZ',
                   VALE_CALC=-1.0348196988502,
                   VALE_REFE=-1.0373000000000001,
                   PRECISION=7.7000000000000002E-3,
                   TOLE_MACHINE=1.E-3,
                   MAILLE='MA4204',),
                _F(INST=0.0,
                   REFERENCE='SOURCE_EXTERNE',
                   RESULTAT=RESU,
                   NOM_CHAM='SIGM_ELNO',
                   NOEUD='NO15854',
                   NOM_CMP='SIZZ',
                   VALE_CALC=-1.1343463070495,
                   VALE_REFE=-1.0671999999999999,
                   PRECISION=0.065199999999999994,
                   TOLE_MACHINE=1.E-3,
                   MAILLE='MA4204',),
                ),
          )

# GCP + LDLT_SP
KMATAS2=FACTORISER(MATR_ASSE=MATAS,PRE_COND='LDLT_SP');

DEP2=RESOUDRE(MATR=MATAS,
             CHAM_NO=VECAS,
             RESI_RELA=1.0E-7,
             MATR_PREC=KMATAS2,);

TEST_RESU(CHAM_NO=(_F(NOEUD='NO13943',
                      REFERENCE='SOURCE_EXTERNE',
                      NOM_CMP='DX',
                      PRECISION=1.1000000000000001E-3,
                   TOLE_MACHINE=1.E-3,
                      CHAM_GD=DEP2,
                      VALE_CALC= 6.58548939E-04,
                      VALE_REFE=6.5855000000000004E-4,),
                   _F(NOEUD='NO13943',
                      REFERENCE='SOURCE_EXTERNE',
                      NOM_CMP='DY',
                      PRECISION=1.E-3,
                   TOLE_MACHINE=1.E-3,
                      CHAM_GD=DEP2,
                      VALE_CALC=0.064427713,
                      VALE_REFE=0.064427999999999999,),
                   _F(NOEUD='NO13943',
                      REFERENCE='SOURCE_EXTERNE',
                      NOM_CMP='DZ',
                      PRECISION=1.E-3,
                   TOLE_MACHINE=1.E-3,
                      CHAM_GD=DEP2,
                      VALE_CALC=-6.39262965E-03,
                      VALE_REFE=-6.3926E-3,),
                   _F(NOEUD='NO13944',
                      REFERENCE='SOURCE_EXTERNE',
                      NOM_CMP='DX',
                      PRECISION=1.E-3,
                   TOLE_MACHINE=1.E-3,
                      CHAM_GD=DEP2,
                      VALE_CALC= 8.68313351E-04,
                      VALE_REFE=8.6830999999999996E-4,),
                   _F(NOEUD='NO13944',
                      REFERENCE='SOURCE_EXTERNE',
                      NOM_CMP='DY',
                      PRECISION=1.E-3,
                   TOLE_MACHINE=1.E-3,
                      CHAM_GD=DEP2,
                      VALE_CALC=0.061356724,
                      VALE_REFE=0.061357000000000002,),
                   _F(NOEUD='NO13944',
                      REFERENCE='SOURCE_EXTERNE',
                      NOM_CMP='DZ',
                      PRECISION=1.E-3,
                   TOLE_MACHINE=1.E-3,
                      CHAM_GD=DEP2,
                      VALE_CALC=-6.22435429E-03,
                      VALE_REFE=-6.2243999999999997E-3,),
                   _F(NOEUD='NO15854',
                      REFERENCE='SOURCE_EXTERNE',
                      NOM_CMP='DX',
                      PRECISION=1.E-3,
                   TOLE_MACHINE=1.E-3,
                      CHAM_GD=DEP2,
                      VALE_CALC= 1.13148282E-03,
                      VALE_REFE=1.1314999999999999E-3,),
                   _F(NOEUD='NO15854',
                      REFERENCE='SOURCE_EXTERNE',
                      NOM_CMP='DY',
                      PRECISION=1.E-3,
                   TOLE_MACHINE=1.E-3,
                      CHAM_GD=DEP2,
                      VALE_CALC=0.058734955,
                      VALE_REFE=0.058735000000000002,),
                   _F(NOEUD='NO15854',
                      REFERENCE='SOURCE_EXTERNE',
                      NOM_CMP='DZ',
                      PRECISION=1.E-3,
                   TOLE_MACHINE=1.E-3,
                      CHAM_GD=DEP2,
                      VALE_CALC=-6.06448784E-03,
                      VALE_REFE=-6.0644999999999996E-3,),
                   _F(NOEUD='NO15855',
                      REFERENCE='SOURCE_EXTERNE',
                      NOM_CMP='DX',
                      PRECISION=1.E-3,
                   TOLE_MACHINE=1.E-3,
                      CHAM_GD=DEP2,
                      VALE_CALC= 2.35371050E-03,
                      VALE_REFE=2.3536999999999998E-3,),
                   _F(NOEUD='NO15855',
                      REFERENCE='SOURCE_EXTERNE',
                      NOM_CMP='DY',
                      PRECISION=1.E-3,
                   TOLE_MACHINE=1.E-3,
                      CHAM_GD=DEP2,
                      VALE_CALC=0.043550934,
                      VALE_REFE=0.043550999999999999,),
                   _F(NOEUD='NO15855',
                      REFERENCE='SOURCE_EXTERNE',
                      NOM_CMP='DZ',
                      PRECISION=1.E-3,
                   TOLE_MACHINE=1.E-3,
                      CHAM_GD=DEP2,
                      VALE_CALC=-4.53808736E-03,
                      VALE_REFE=-4.5380999999999998E-3,),
                   _F(NOEUD='NO15858',
                      REFERENCE='SOURCE_EXTERNE',
                      NOM_CMP='DX',
                      PRECISION=1.E-3,
                   TOLE_MACHINE=1.E-3,
                      CHAM_GD=DEP2,
                      VALE_CALC= 3.17245363E-03,
                      VALE_REFE=3.1725E-3,),
                   _F(NOEUD='NO15858',
                      REFERENCE='SOURCE_EXTERNE',
                      NOM_CMP='DY',
                      PRECISION=1.E-3,
                   TOLE_MACHINE=1.E-3,
                      CHAM_GD=DEP2,
                      VALE_CALC=0.028244377,
                      VALE_REFE=0.028243999999999998,),
                   _F(NOEUD='NO15858',
                      REFERENCE='SOURCE_EXTERNE',
                      NOM_CMP='DZ',
                      PRECISION=1.E-3,
                   TOLE_MACHINE=1.E-3,
                      CHAM_GD=DEP2,
                      VALE_CALC=-2.92784178E-03,
                      VALE_REFE=-2.9277999999999999E-3,),
                   _F(NOEUD='NO15860',
                      REFERENCE='SOURCE_EXTERNE',
                      NOM_CMP='DX',
                      PRECISION=1.E-3,
                   TOLE_MACHINE=1.E-3,
                      CHAM_GD=DEP2,
                      VALE_CALC= 3.67588214E-03,
                      VALE_REFE=3.6759000000000002E-3,),
                   _F(NOEUD='NO15860',
                      REFERENCE='SOURCE_EXTERNE',
                      NOM_CMP='DY',
                      PRECISION=1.E-3,
                   TOLE_MACHINE=1.E-3,
                      CHAM_GD=DEP2,
                      VALE_CALC=0.012584550,
                      VALE_REFE=0.012585000000000001,),
                   _F(NOEUD='NO15860',
                      REFERENCE='SOURCE_EXTERNE',
                      NOM_CMP='DZ',
                      PRECISION=1.E-3,
                   TOLE_MACHINE=1.E-3,
                      CHAM_GD=DEP2,
                      VALE_CALC=-1.21932657E-03,
                      VALE_REFE=-1.2193E-3,),
                   _F(NOEUD='NO15862',
                      REFERENCE='SOURCE_EXTERNE',
                      NOM_CMP='DX',
                      PRECISION=1.E-3,
                   TOLE_MACHINE=1.E-3,
                      CHAM_GD=DEP2,
                      VALE_CALC= 3.83042026E-03,
                      VALE_REFE=3.8303999999999999E-3,),
                   _F(NOEUD='NO15862',
                      REFERENCE='SOURCE_EXTERNE',
                      NOM_CMP='DY',
                      PRECISION=2.E-3,
                   TOLE_MACHINE=1.E-3,
                      CHAM_GD=DEP2,
                      VALE_CALC=-3.12782549E-03,
                      VALE_REFE=-3.1278E-3,),
                   _F(NOEUD='NO15862',
                      REFERENCE='SOURCE_EXTERNE',
                      NOM_CMP='DZ',
                      PRECISION=2.E-3,
                   TOLE_MACHINE=1.E-3,
                      CHAM_GD=DEP2,
                      VALE_CALC= 4.83199551E-04,
                      VALE_REFE=4.8319999999999998E-4,),
                   _F(NOEUD='NO15863',
                      REFERENCE='SOURCE_EXTERNE',
                      NOM_CMP='DX',
                      PRECISION=1.E-3,
                   TOLE_MACHINE=1.E-3,
                      CHAM_GD=DEP2,
                      VALE_CALC= 3.58353233E-03,
                      VALE_REFE=3.5834999999999999E-3,),
                   _F(NOEUD='NO15863',
                      REFERENCE='SOURCE_EXTERNE',
                      NOM_CMP='DY',
                      PRECISION=1.E-3,
                   TOLE_MACHINE=1.E-3,
                      CHAM_GD=DEP2,
                      VALE_CALC=-0.018952797,
                      VALE_REFE=-0.018953000000000001,),
                   _F(NOEUD='NO15863',
                      REFERENCE='SOURCE_EXTERNE',
                      NOM_CMP='DZ',
                      PRECISION=1.E-3,
                   TOLE_MACHINE=1.E-3,
                      CHAM_GD=DEP2,
                      VALE_CALC= 2.15082917E-03,
                      VALE_REFE=2.1508E-3,),
                   _F(NOEUD='NO15868',
                      REFERENCE='SOURCE_EXTERNE',
                      NOM_CMP='DX',
                      PRECISION=1.E-3,
                   TOLE_MACHINE=1.E-3,
                      CHAM_GD=DEP2,
                      VALE_CALC= 2.95115698E-03,
                      VALE_REFE=2.9512000000000002E-3,),
                   _F(NOEUD='NO15868',
                      REFERENCE='SOURCE_EXTERNE',
                      NOM_CMP='DY',
                      PRECISION=1.E-3,
                   TOLE_MACHINE=1.E-3,
                      CHAM_GD=DEP2,
                      VALE_CALC=-0.034850956,
                      VALE_REFE=-0.034851,),
                   _F(NOEUD='NO15868',
                      REFERENCE='SOURCE_EXTERNE',
                      NOM_CMP='DZ',
                      PRECISION=1.E-3,
                   TOLE_MACHINE=1.E-3,
                      CHAM_GD=DEP2,
                      VALE_CALC= 3.76792439E-03,
                      VALE_REFE=3.7678999999999998E-3,),
                   _F(NOEUD='NO15869',
                      REFERENCE='SOURCE_EXTERNE',
                      NOM_CMP='DX',
                      PRECISION=1.E-3,
                   TOLE_MACHINE=1.E-3,
                      CHAM_GD=DEP2,
                      VALE_CALC= 1.73396376E-03,
                      VALE_REFE=1.7340000000000001E-3,),
                   _F(NOEUD='NO15869',
                      REFERENCE='SOURCE_EXTERNE',
                      NOM_CMP='DY',
                      PRECISION=1.E-3,
                   TOLE_MACHINE=1.E-3,
                      CHAM_GD=DEP2,
                      VALE_CALC=-0.050995006,
                      VALE_REFE=-0.050994999999999999,),
                   _F(NOEUD='NO15869',
                      REFERENCE='SOURCE_EXTERNE',
                      NOM_CMP='DZ',
                      PRECISION=1.E-3,
                   TOLE_MACHINE=1.E-3,
                      CHAM_GD=DEP2,
                      VALE_CALC= 4.97486871E-03,
                      VALE_REFE=4.9749E-3,),
                   _F(NOEUD='NO15866',
                      CRITERE='ABSOLU',
                      REFERENCE='SOURCE_EXTERNE',
                      NOM_CMP='DX',
                      PRECISION=9.9999999999999995E-08,
                   TOLE_MACHINE=1.E-3,
                      CHAM_GD=DEP2,
                      VALE_CALC=-1.46234458E-16,
                      VALE_REFE=0.0,),
                   _F(NOEUD='NO15866',
                      REFERENCE='SOURCE_EXTERNE',
                      NOM_CMP='DY',
                      PRECISION=1.E-3,
                   TOLE_MACHINE=1.E-3,
                      CHAM_GD=DEP2,
                      VALE_CALC=-0.067225994,
                      VALE_REFE=-0.067225999999999994,),
                   _F(NOEUD='NO15866',
                      REFERENCE='SOURCE_EXTERNE',
                      NOM_CMP='DZ',
                      PRECISION=1.E-3,
                   TOLE_MACHINE=1.E-3,
                      CHAM_GD=DEP2,
                      VALE_CALC= 5.82039490E-03,
                      VALE_REFE=5.8203999999999999E-3,),
                   ),
          )

FIN();
