# ======================================================================
# COPYRIGHT (C) 1991 - 2016  EDF R&D                  WWW.CODE-ASTER.ORG
# THIS PROGRAM IS FREE SOFTWARE; YOU CAN REDISTRIBUTE IT AND/OR MODIFY
# IT UNDER THE TERMS OF THE GNU GENERAL PUBLIC LICENSE AS PUBLISHED BY
# THE FREE SOFTWARE FOUNDATION; EITHER VERSION 2 OF THE LICENSE, OR
# (AT YOUR OPTION) ANY LATER VERSION.
#
# THIS PROGRAM IS DISTRIBUTED IN THE HOPE THAT IT WILL BE USEFUL, BUT
# WITHOUT ANY WARRANTY; WITHOUT EVEN THE IMPLIED WARRANTY OF
# MERCHANTABILITY OR FITNESS FOR A PARTICULAR PURPOSE. SEE THE GNU
# GENERAL PUBLIC LICENSE FOR MORE DETAILS.
#
# YOU SHOULD HAVE RECEIVED A COPY OF THE GNU GENERAL PUBLIC LICENSE
# ALONG WITH THIS PROGRAM; IF NOT, WRITE TO EDF R&D CODE_ASTER,
#    1 AVENUE DU GENERAL DE GAULLE, 92141 CLAMART CEDEX, FRANCE.
# ======================================================================
# TEST DE PERFORMANCE ANCIENNEMENT NOMME SSLV130K

DEBUT(CODE=_F(
NIV_PUB_WEB='INTERNET',),DEBUG=_F(SDVERI='OUI'))

MA=LIRE_MAILLAGE(FORMAT='MED',);

MO=AFFE_MODELE(MAILLAGE=MA,
               AFFE=_F(TOUT='OUI',
                       PHENOMENE='MECANIQUE',
                       MODELISATION='3D',),);

MAT=DEFI_MATERIAU(ELAS=_F(E=210000.0,
                          NU=.3,),);

CHMAT=AFFE_MATERIAU(MAILLAGE=MA,
                    AFFE=_F(TOUT='OUI',
                            MATER=MAT,),);

CHA1=AFFE_CHAR_MECA(MODELE=MO,
                   DDL_IMPO=(_F(GROUP_NO='SUPY',
                                 DY=0.,),
                              _F(GROUP_NO='APPUI',
                                 DX=0.,),),);

CHA2=AFFE_CHAR_CINE(MODELE=MO,
                   MECA_IMPO=(_F(GROUP_NO='SUPZ',
                                 DZ=0.,),
                              _F(GROUP_NO='CHARGE',
                                 DX=-1.,),),);

# ----------------------------------------------------------------------

VECAS=MECA_STATIQUE(MODELE=MO,
                    INFO=2,
                    CHAM_MATER=CHMAT,
                    EXCIT=(_F(CHARGE=CHA1,),
                           _F(CHARGE=CHA2,),),
                    SOLVEUR=_F(METHODE='GCPC',
                               PRE_COND='LDLT_INC',
                               NIVE_REMPLISSAGE=1,
                               RESI_RELA=1.E-11,
                               NMAX_ITER=0,),);

VECAS=CALC_CHAMP(reuse=VECAS,RESULTAT=VECAS,CONTRAINTE=('SIGM_ELNO'))


VECAS2=MECA_STATIQUE(MODELE=MO,
                    CHAM_MATER=CHMAT,
                    EXCIT=(_F(CHARGE=CHA1,),
                           _F(CHARGE=CHA2,),),
                    SOLVEUR=_F(METHODE='GCPC',
                               PRE_COND='LDLT_SP',
                               RESI_RELA=1.E-11,
                               NMAX_ITER=0,),);

# ----------------------------------------------------------------------
# GCP + LDLT_INC

TEST_RESU(RESU=(_F(NUME_ORDRE=1,
                   REFERENCE='SOURCE_EXTERNE',
                   RESULTAT=VECAS,
                   NOM_CHAM='DEPL',
                   NOEUD='NO13943',
                   NOM_CMP='DX',
                   VALE_CALC=0.000658548943229,
                   VALE_REFE=6.5855000000000004E-4,
                   PRECISION=1.E-3,),
                _F(NUME_ORDRE=1,
                   REFERENCE='SOURCE_EXTERNE',
                   RESULTAT=VECAS,
                   NOM_CHAM='DEPL',
                   NOEUD='NO13943',
                   NOM_CMP='DY',
                   VALE_CALC=0.0644277136653,
                   VALE_REFE=0.064427999999999999,
                   PRECISION=1.E-3,),
                _F(NUME_ORDRE=1,
                   REFERENCE='SOURCE_EXTERNE',
                   RESULTAT=VECAS,
                   NOM_CHAM='DEPL',
                   NOEUD='NO13943',
                   NOM_CMP='DZ',
                   VALE_CALC=-0.00639262971521,
                   VALE_REFE=-6.3926E-3,
                   PRECISION=1.E-3,),
                _F(NUME_ORDRE=1,
                   REFERENCE='SOURCE_EXTERNE',
                   RESULTAT=VECAS,
                   NOM_CHAM='DEPL',
                   NOEUD='NO13944',
                   NOM_CMP='DX',
                   VALE_CALC=0.000868313357587,
                   VALE_REFE=8.6830999999999996E-4,
                   PRECISION=1.E-3,),
                _F(NUME_ORDRE=1,
                   REFERENCE='SOURCE_EXTERNE',
                   RESULTAT=VECAS,
                   NOM_CHAM='DEPL',
                   NOEUD='NO13944',
                   NOM_CMP='DY',
                   VALE_CALC=0.0613567242913,
                   VALE_REFE=0.061357000000000002,
                   PRECISION=1.E-3,),
                _F(NUME_ORDRE=1,
                   REFERENCE='SOURCE_EXTERNE',
                   RESULTAT=VECAS,
                   NOM_CHAM='DEPL',
                   NOEUD='NO13944',
                   NOM_CMP='DZ',
                   VALE_CALC=-0.006224354349,
                   VALE_REFE=-6.2243999999999997E-3,
                   PRECISION=1.E-3,),
                _F(NUME_ORDRE=1,
                   REFERENCE='SOURCE_EXTERNE',
                   RESULTAT=VECAS,
                   NOM_CHAM='DEPL',
                   NOEUD='NO15854',
                   NOM_CMP='DX',
                   VALE_CALC=0.00113148282897,
                   VALE_REFE=1.1314999999999999E-3,
                   PRECISION=1.E-3,),
                _F(NUME_ORDRE=1,
                   REFERENCE='SOURCE_EXTERNE',
                   RESULTAT=VECAS,
                   NOM_CHAM='DEPL',
                   NOEUD='NO15854',
                   NOM_CMP='DY',
                   VALE_CALC=0.0587349558036,
                   VALE_REFE=0.058735000000000002,
                   PRECISION=1.E-3,),
                _F(NUME_ORDRE=1,
                   REFERENCE='SOURCE_EXTERNE',
                   RESULTAT=VECAS,
                   NOM_CHAM='DEPL',
                   NOEUD='NO15854',
                   NOM_CMP='DZ',
                   VALE_CALC=-0.00606448790141,
                   VALE_REFE=-6.0644999999999996E-3,
                   PRECISION=1.E-3,),
                _F(NUME_ORDRE=1,
                   REFERENCE='SOURCE_EXTERNE',
                   RESULTAT=VECAS,
                   NOM_CHAM='DEPL',
                   NOEUD='NO15855',
                   NOM_CMP='DX',
                   VALE_CALC=0.00235371052273,
                   VALE_REFE=2.3536999999999998E-3,
                   PRECISION=1.E-3,),
                _F(NUME_ORDRE=1,
                   REFERENCE='SOURCE_EXTERNE',
                   RESULTAT=VECAS,
                   NOM_CHAM='DEPL',
                   NOEUD='NO15855',
                   NOM_CMP='DY',
                   VALE_CALC=0.0435509343244,
                   VALE_REFE=0.043550999999999999,
                   PRECISION=1.E-3,),
                _F(NUME_ORDRE=1,
                   REFERENCE='SOURCE_EXTERNE',
                   RESULTAT=VECAS,
                   NOM_CHAM='DEPL',
                   NOEUD='NO15855',
                   NOM_CMP='DZ',
                   VALE_CALC=-0.0045380874067,
                   VALE_REFE=-4.5380999999999998E-3,
                   PRECISION=1.E-3,),
                _F(NUME_ORDRE=1,
                   REFERENCE='SOURCE_EXTERNE',
                   RESULTAT=VECAS,
                   NOM_CHAM='DEPL',
                   NOEUD='NO15858',
                   NOM_CMP='DX',
                   VALE_CALC=0.00317245365879,
                   VALE_REFE=3.1725E-3,
                   PRECISION=1.E-3,),
                _F(NUME_ORDRE=1,
                   REFERENCE='SOURCE_EXTERNE',
                   RESULTAT=VECAS,
                   NOM_CHAM='DEPL',
                   NOEUD='NO15858',
                   NOM_CMP='DY',
                   VALE_CALC=0.0282443769961,
                   VALE_REFE=0.028243999999999998,
                   PRECISION=1.E-3,),
                _F(NUME_ORDRE=1,
                   REFERENCE='SOURCE_EXTERNE',
                   RESULTAT=VECAS,
                   NOM_CHAM='DEPL',
                   NOEUD='NO15858',
                   NOM_CMP='DZ',
                   VALE_CALC=-0.0029278418078,
                   VALE_REFE=-2.9277999999999999E-3,
                   PRECISION=1.E-3,),
                _F(NUME_ORDRE=1,
                   REFERENCE='SOURCE_EXTERNE',
                   RESULTAT=VECAS,
                   NOM_CHAM='DEPL',
                   NOEUD='NO15860',
                   NOM_CMP='DX',
                   VALE_CALC=0.00367588217154,
                   VALE_REFE=3.6759000000000002E-3,
                   PRECISION=1.E-3,),
                _F(NUME_ORDRE=1,
                   REFERENCE='SOURCE_EXTERNE',
                   RESULTAT=VECAS,
                   NOM_CHAM='DEPL',
                   NOEUD='NO15860',
                   NOM_CMP='DY',
                   VALE_CALC=0.0125845501746,
                   VALE_REFE=0.012585000000000001,
                   PRECISION=1.E-3,),
                _F(NUME_ORDRE=1,
                   REFERENCE='SOURCE_EXTERNE',
                   RESULTAT=VECAS,
                   NOM_CHAM='DEPL',
                   NOEUD='NO15860',
                   NOM_CMP='DZ',
                   VALE_CALC=-0.00121932658668,
                   VALE_REFE=-1.2193E-3,
                   PRECISION=1.E-3,),
                _F(NUME_ORDRE=1,
                   REFERENCE='SOURCE_EXTERNE',
                   RESULTAT=VECAS,
                   NOM_CHAM='DEPL',
                   NOEUD='NO15862',
                   NOM_CMP='DX',
                   VALE_CALC=0.00383042029481,
                   VALE_REFE=3.8303999999999999E-3,
                   PRECISION=1.E-3,),
                _F(NUME_ORDRE=1,
                   REFERENCE='SOURCE_EXTERNE',
                   RESULTAT=VECAS,
                   NOM_CHAM='DEPL',
                   NOEUD='NO15862',
                   NOM_CMP='DY',
                   VALE_CALC=-0.00312782552515,
                   VALE_REFE=-3.1278E-3,
                   PRECISION=1.E-3,),
                _F(NUME_ORDRE=1,
                   REFERENCE='SOURCE_EXTERNE',
                   RESULTAT=VECAS,
                   NOM_CHAM='DEPL',
                   NOEUD='NO15862',
                   NOM_CMP='DZ',
                   VALE_CALC=0.000483199556483,
                   VALE_REFE=4.8319999999999998E-4,
                   PRECISION=1.E-3,),
                _F(NUME_ORDRE=1,
                   REFERENCE='SOURCE_EXTERNE',
                   RESULTAT=VECAS,
                   NOM_CHAM='DEPL',
                   NOEUD='NO15863',
                   NOM_CMP='DX',
                   VALE_CALC=0.00358353236343,
                   VALE_REFE=3.5834999999999999E-3,
                   PRECISION=1.E-3,),
                _F(NUME_ORDRE=1,
                   REFERENCE='SOURCE_EXTERNE',
                   RESULTAT=VECAS,
                   NOM_CHAM='DEPL',
                   NOEUD='NO15863',
                   NOM_CMP='DY',
                   VALE_CALC=-0.0189527976855,
                   VALE_REFE=-0.018953000000000001,
                   PRECISION=1.E-3,),
                _F(NUME_ORDRE=1,
                   REFERENCE='SOURCE_EXTERNE',
                   RESULTAT=VECAS,
                   NOM_CHAM='DEPL',
                   NOEUD='NO15863',
                   NOM_CMP='DZ',
                   VALE_CALC=0.00215082919305,
                   VALE_REFE=2.1508E-3,
                   PRECISION=1.E-3,),
                _F(NUME_ORDRE=1,
                   REFERENCE='SOURCE_EXTERNE',
                   RESULTAT=VECAS,
                   NOM_CHAM='DEPL',
                   NOEUD='NO15868',
                   NOM_CMP='DX',
                   VALE_CALC=0.00295115700483,
                   VALE_REFE=2.9512000000000002E-3,
                   PRECISION=1.E-3,),
                _F(NUME_ORDRE=1,
                   REFERENCE='SOURCE_EXTERNE',
                   RESULTAT=VECAS,
                   NOM_CHAM='DEPL',
                   NOEUD='NO15868',
                   NOM_CMP='DY',
                   VALE_CALC=-0.0348509564247,
                   VALE_REFE=-0.034851,
                   PRECISION=1.E-3,),
                _F(NUME_ORDRE=1,
                   REFERENCE='SOURCE_EXTERNE',
                   RESULTAT=VECAS,
                   NOM_CHAM='DEPL',
                   NOEUD='NO15868',
                   NOM_CMP='DZ',
                   VALE_CALC=0.00376792443042,
                   VALE_REFE=3.7678999999999998E-3,
                   PRECISION=1.E-3,),
                _F(NUME_ORDRE=1,
                   REFERENCE='SOURCE_EXTERNE',
                   RESULTAT=VECAS,
                   NOM_CHAM='DEPL',
                   NOEUD='NO15869',
                   NOM_CMP='DX',
                   VALE_CALC=0.00173396377843,
                   VALE_REFE=1.7340000000000001E-3,
                   PRECISION=1.E-3,),
                _F(NUME_ORDRE=1,
                   REFERENCE='SOURCE_EXTERNE',
                   RESULTAT=VECAS,
                   NOM_CHAM='DEPL',
                   NOEUD='NO15869',
                   NOM_CMP='DY',
                   VALE_CALC=-0.0509950061279,
                   VALE_REFE=-0.050994999999999999,
                   PRECISION=1.E-3,),
                _F(NUME_ORDRE=1,
                   REFERENCE='SOURCE_EXTERNE',
                   RESULTAT=VECAS,
                   NOM_CHAM='DEPL',
                   NOEUD='NO15869',
                   NOM_CMP='DZ',
                   VALE_CALC=0.00497486876119,
                   VALE_REFE=4.9749E-3,
                   PRECISION=1.E-3,),
                _F(NUME_ORDRE=1,
                   REFERENCE='SOURCE_EXTERNE',
                   RESULTAT=VECAS,
                   NOM_CHAM='DEPL',
                   NOEUD='NO15866',
                   NOM_CMP='DX',
                   VALE_CALC=2.7708679809E-14,
                   VALE_REFE=0.0,
                   CRITERE='ABSOLU',
                   PRECISION=1.E-10,),
                _F(NUME_ORDRE=1,
                   REFERENCE='SOURCE_EXTERNE',
                   RESULTAT=VECAS,
                   NOM_CHAM='DEPL',
                   NOEUD='NO15866',
                   NOM_CMP='DY',
                   VALE_CALC=-0.0672259948109,
                   VALE_REFE=-0.067225999999999994,
                   PRECISION=1.E-3,),
                _F(NUME_ORDRE=1,
                   REFERENCE='SOURCE_EXTERNE',
                   RESULTAT=VECAS,
                   NOM_CHAM='DEPL',
                   NOEUD='NO15866',
                   NOM_CMP='DZ',
                   VALE_CALC=0.00582039496302,
                   VALE_REFE=5.8203999999999999E-3,
                   PRECISION=1.E-3,),
                ),
          )


# VALEUR DU TENSEUR DES CONTRAINTES PROVENANT D'UN CALCUL PAR PERMAS

TEST_RESU(RESU=(_F(NUME_ORDRE=1,
                   REFERENCE='SOURCE_EXTERNE',
                   RESULTAT=VECAS,
                   NOM_CHAM='SIGM_ELNO',
                   NOEUD='NO15854',
                   NOM_CMP='SIXX',
                   VALE_CALC=-3.55461088949,
                   VALE_REFE=-3.5204,
                   PRECISION=1.E-2,
                   MAILLE='MA4204',),
                _F(NUME_ORDRE=1,
                   REFERENCE='SOURCE_EXTERNE',
                   RESULTAT=VECAS,
                   NOM_CHAM='SIGM_ELNO',
                   NOEUD='NO15854',
                   NOM_CMP='SIXY',
                   VALE_CALC=-1.78556465213,
                   VALE_REFE=-1.8101,
                   PRECISION=0.014999999999999999,
                   MAILLE='MA4204',),
                _F(NUME_ORDRE=1,
                   REFERENCE='SOURCE_EXTERNE',
                   RESULTAT=VECAS,
                   NOM_CHAM='SIGM_ELNO',
                   NOEUD='NO15854',
                   NOM_CMP='SIYY',
                   VALE_CALC=53.8840050015,
                   VALE_REFE=53.914000000000001,
                   PRECISION=1.E-3,
                   MAILLE='MA4204',),
                _F(NUME_ORDRE=1,
                   REFERENCE='SOURCE_EXTERNE',
                   RESULTAT=VECAS,
                   NOM_CHAM='SIGM_ELNO',
                   NOEUD='NO15854',
                   NOM_CMP='SIXZ',
                   VALE_CALC=-0.695906814474,
                   VALE_REFE=-0.71499999999999997,
                   PRECISION=0.029999999999999999,
                   MAILLE='MA4204',),
                _F(NUME_ORDRE=1,
                   REFERENCE='SOURCE_EXTERNE',
                   RESULTAT=VECAS,
                   NOM_CHAM='SIGM_ELNO',
                   NOEUD='NO15854',
                   NOM_CMP='SIYZ',
                   VALE_CALC=-1.03484325748,
                   VALE_REFE=-1.0373000000000001,
                   PRECISION=5.0000000000000001E-3,
                   MAILLE='MA4204',),
                _F(NUME_ORDRE=1,
                   REFERENCE='SOURCE_EXTERNE',
                   RESULTAT=VECAS,
                   NOM_CHAM='SIGM_ELNO',
                   NOEUD='NO15854',
                   NOM_CMP='SIZZ',
                   VALE_CALC=-1.13193898183,
                   VALE_REFE=-1.0671999999999999,
                   PRECISION=0.065000000000000002,
                   MAILLE='MA4204',),
                ),
          )

# ----------------------------------------------------------------------
# GCP + LDLT_SP

TEST_RESU(RESU=(_F(NUME_ORDRE=1,
                   REFERENCE='SOURCE_EXTERNE',
                   RESULTAT=VECAS2,
                   NOM_CHAM='DEPL',
                   NOEUD='NO13943',
                   NOM_CMP='DX',
                   VALE_CALC=0.000658548946169,
                   VALE_REFE=6.5855000000000004E-4,
                   PRECISION=1.E-3,),
                _F(NUME_ORDRE=1,
                   REFERENCE='SOURCE_EXTERNE',
                   RESULTAT=VECAS2,
                   NOM_CHAM='DEPL',
                   NOEUD='NO13943',
                   NOM_CMP='DY',
                   VALE_CALC=0.0644277136884,
                   VALE_REFE=0.064427999999999999,
                   PRECISION=1.E-3,),
                _F(NUME_ORDRE=1,
                   REFERENCE='SOURCE_EXTERNE',
                   RESULTAT=VECAS2,
                   NOM_CHAM='DEPL',
                   NOEUD='NO13943',
                   NOM_CMP='DZ',
                   VALE_CALC=-0.00639262971512,
                   VALE_REFE=-6.3926E-3,
                   PRECISION=1.E-3,),
                _F(NUME_ORDRE=1,
                   REFERENCE='SOURCE_EXTERNE',
                   RESULTAT=VECAS2,
                   NOM_CHAM='DEPL',
                   NOEUD='NO13944',
                   NOM_CMP='DX',
                   VALE_CALC=0.000868313360468,
                   VALE_REFE=8.6830999999999996E-4,
                   PRECISION=1.E-3,),
                _F(NUME_ORDRE=1,
                   REFERENCE='SOURCE_EXTERNE',
                   RESULTAT=VECAS2,
                   NOM_CHAM='DEPL',
                   NOEUD='NO13944',
                   NOM_CMP='DY',
                   VALE_CALC=0.0613567243128,
                   VALE_REFE=0.061357000000000002,
                   PRECISION=1.E-3,),
                _F(NUME_ORDRE=1,
                   REFERENCE='SOURCE_EXTERNE',
                   RESULTAT=VECAS2,
                   NOM_CHAM='DEPL',
                   NOEUD='NO13944',
                   NOM_CMP='DZ',
                   VALE_CALC=-0.00622435434883,
                   VALE_REFE=-6.2243999999999997E-3,
                   PRECISION=1.E-3,),
                _F(NUME_ORDRE=1,
                   REFERENCE='SOURCE_EXTERNE',
                   RESULTAT=VECAS2,
                   NOM_CHAM='DEPL',
                   NOEUD='NO15854',
                   NOM_CMP='DX',
                   VALE_CALC=0.00113148283176,
                   VALE_REFE=1.1314999999999999E-3,
                   PRECISION=1.E-3,),
                _F(NUME_ORDRE=1,
                   REFERENCE='SOURCE_EXTERNE',
                   RESULTAT=VECAS2,
                   NOM_CHAM='DEPL',
                   NOEUD='NO15854',
                   NOM_CMP='DY',
                   VALE_CALC=0.0587349558235,
                   VALE_REFE=0.058735000000000002,
                   PRECISION=1.E-3,),
                _F(NUME_ORDRE=1,
                   REFERENCE='SOURCE_EXTERNE',
                   RESULTAT=VECAS2,
                   NOM_CHAM='DEPL',
                   NOEUD='NO15854',
                   NOM_CMP='DZ',
                   VALE_CALC=-0.00606448790116,
                   VALE_REFE=-6.0644999999999996E-3,
                   PRECISION=1.E-3,),
                _F(NUME_ORDRE=1,
                   REFERENCE='SOURCE_EXTERNE',
                   RESULTAT=VECAS2,
                   NOM_CHAM='DEPL',
                   NOEUD='NO15855',
                   NOM_CMP='DX',
                   VALE_CALC=0.00235371052519,
                   VALE_REFE=2.3536999999999998E-3,
                   PRECISION=1.E-3,),
                _F(NUME_ORDRE=1,
                   REFERENCE='SOURCE_EXTERNE',
                   RESULTAT=VECAS2,
                   NOM_CHAM='DEPL',
                   NOEUD='NO15855',
                   NOM_CMP='DY',
                   VALE_CALC=0.0435509343398,
                   VALE_REFE=0.043550999999999999,
                   PRECISION=1.E-3,),
                _F(NUME_ORDRE=1,
                   REFERENCE='SOURCE_EXTERNE',
                   RESULTAT=VECAS2,
                   NOM_CHAM='DEPL',
                   NOEUD='NO15855',
                   NOM_CMP='DZ',
                   VALE_CALC=-0.00453808740667,
                   VALE_REFE=-4.5380999999999998E-3,
                   PRECISION=1.E-3,),
                _F(NUME_ORDRE=1,
                   REFERENCE='SOURCE_EXTERNE',
                   RESULTAT=VECAS2,
                   NOM_CHAM='DEPL',
                   NOEUD='NO15858',
                   NOM_CMP='DX',
                   VALE_CALC=0.0031724536611,
                   VALE_REFE=3.1725E-3,
                   PRECISION=1.E-3,),
                _F(NUME_ORDRE=1,
                   REFERENCE='SOURCE_EXTERNE',
                   RESULTAT=VECAS2,
                   NOM_CHAM='DEPL',
                   NOEUD='NO15858',
                   NOM_CMP='DY',
                   VALE_CALC=0.0282443770072,
                   VALE_REFE=0.028243999999999998,
                   PRECISION=1.E-3,),
                _F(NUME_ORDRE=1,
                   REFERENCE='SOURCE_EXTERNE',
                   RESULTAT=VECAS2,
                   NOM_CHAM='DEPL',
                   NOEUD='NO15858',
                   NOM_CMP='DZ',
                   VALE_CALC=-0.00292784180774,
                   VALE_REFE=-2.9277999999999999E-3,
                   PRECISION=1.E-3,),
                _F(NUME_ORDRE=1,
                   REFERENCE='SOURCE_EXTERNE',
                   RESULTAT=VECAS2,
                   NOM_CHAM='DEPL',
                   NOEUD='NO15860',
                   NOM_CMP='DX',
                   VALE_CALC=0.00367588217336,
                   VALE_REFE=3.6759000000000002E-3,
                   PRECISION=1.E-3,),
                _F(NUME_ORDRE=1,
                   REFERENCE='SOURCE_EXTERNE',
                   RESULTAT=VECAS2,
                   NOM_CHAM='DEPL',
                   NOEUD='NO15860',
                   NOM_CMP='DY',
                   VALE_CALC=0.0125845501814,
                   VALE_REFE=0.012585000000000001,
                   PRECISION=1.E-3,),
                _F(NUME_ORDRE=1,
                   REFERENCE='SOURCE_EXTERNE',
                   RESULTAT=VECAS2,
                   NOM_CHAM='DEPL',
                   NOEUD='NO15860',
                   NOM_CMP='DZ',
                   VALE_CALC=-0.00121932658698,
                   VALE_REFE=-1.2193E-3,
                   PRECISION=1.E-3,),
                _F(NUME_ORDRE=1,
                   REFERENCE='SOURCE_EXTERNE',
                   RESULTAT=VECAS2,
                   NOM_CHAM='DEPL',
                   NOEUD='NO15862',
                   NOM_CMP='DX',
                   VALE_CALC=0.00383042029641,
                   VALE_REFE=3.8303999999999999E-3,
                   PRECISION=1.E-3,),
                _F(NUME_ORDRE=1,
                   REFERENCE='SOURCE_EXTERNE',
                   RESULTAT=VECAS2,
                   NOM_CHAM='DEPL',
                   NOEUD='NO15862',
                   NOM_CMP='DY',
                   VALE_CALC=-0.00312782552254,
                   VALE_REFE=-3.1278E-3,
                   PRECISION=1.E-3,),
                _F(NUME_ORDRE=1,
                   REFERENCE='SOURCE_EXTERNE',
                   RESULTAT=VECAS2,
                   NOM_CHAM='DEPL',
                   NOEUD='NO15862',
                   NOM_CMP='DZ',
                   VALE_CALC=0.000483199556182,
                   VALE_REFE=4.8319999999999998E-4,
                   PRECISION=1.E-3,),
                _F(NUME_ORDRE=1,
                   REFERENCE='SOURCE_EXTERNE',
                   RESULTAT=VECAS2,
                   NOM_CHAM='DEPL',
                   NOEUD='NO15863',
                   NOM_CMP='DX',
                   VALE_CALC=0.00358353236485,
                   VALE_REFE=3.5834999999999999E-3,
                   PRECISION=1.E-3,),
                _F(NUME_ORDRE=1,
                   REFERENCE='SOURCE_EXTERNE',
                   RESULTAT=VECAS2,
                   NOM_CHAM='DEPL',
                   NOEUD='NO15863',
                   NOM_CMP='DY',
                   VALE_CALC=-0.0189527976873,
                   VALE_REFE=-0.018953000000000001,
                   PRECISION=1.E-3,),
                _F(NUME_ORDRE=1,
                   REFERENCE='SOURCE_EXTERNE',
                   RESULTAT=VECAS2,
                   NOM_CHAM='DEPL',
                   NOEUD='NO15863',
                   NOM_CMP='DZ',
                   VALE_CALC=0.00215082919195,
                   VALE_REFE=2.1508E-3,
                   PRECISION=1.E-3,),
                _F(NUME_ORDRE=1,
                   REFERENCE='SOURCE_EXTERNE',
                   RESULTAT=VECAS2,
                   NOM_CHAM='DEPL',
                   NOEUD='NO15868',
                   NOM_CMP='DX',
                   VALE_CALC=0.00295115700609,
                   VALE_REFE=2.9512000000000002E-3,
                   PRECISION=1.E-3,),
                _F(NUME_ORDRE=1,
                   REFERENCE='SOURCE_EXTERNE',
                   RESULTAT=VECAS2,
                   NOM_CHAM='DEPL',
                   NOEUD='NO15868',
                   NOM_CMP='DY',
                   VALE_CALC=-0.0348509564308,
                   VALE_REFE=-0.034851,
                   PRECISION=1.E-3,),
                _F(NUME_ORDRE=1,
                   REFERENCE='SOURCE_EXTERNE',
                   RESULTAT=VECAS2,
                   NOM_CHAM='DEPL',
                   NOEUD='NO15868',
                   NOM_CMP='DZ',
                   VALE_CALC=0.00376792442855,
                   VALE_REFE=3.7678999999999998E-3,
                   PRECISION=1.E-3,),
                _F(NUME_ORDRE=1,
                   REFERENCE='SOURCE_EXTERNE',
                   RESULTAT=VECAS2,
                   NOM_CHAM='DEPL',
                   NOEUD='NO15869',
                   NOM_CMP='DX',
                   VALE_CALC=0.001733963779,
                   VALE_REFE=1.7340000000000001E-3,
                   PRECISION=1.E-3,),
                _F(NUME_ORDRE=1,
                   REFERENCE='SOURCE_EXTERNE',
                   RESULTAT=VECAS2,
                   NOM_CHAM='DEPL',
                   NOEUD='NO15869',
                   NOM_CMP='DY',
                   VALE_CALC=-0.0509950061386,
                   VALE_REFE=-0.050994999999999999,
                   PRECISION=1.E-3,),
                _F(NUME_ORDRE=1,
                   REFERENCE='SOURCE_EXTERNE',
                   RESULTAT=VECAS2,
                   NOM_CHAM='DEPL',
                   NOEUD='NO15869',
                   NOM_CMP='DZ',
                   VALE_CALC=0.00497486875852,
                   VALE_REFE=4.9749E-3,
                   PRECISION=1.E-3,),
                _F(NUME_ORDRE=1,
                   REFERENCE='SOURCE_EXTERNE',
                   RESULTAT=VECAS2,
                   NOM_CHAM='DEPL',
                   NOEUD='NO15866',
                   NOM_CMP='DX',
                   VALE_CALC=0.,
                   VALE_REFE=0.0,
                   CRITERE='ABSOLU',
                   PRECISION=1.E-10,),
                _F(NUME_ORDRE=1,
                   REFERENCE='SOURCE_EXTERNE',
                   RESULTAT=VECAS2,
                   NOM_CHAM='DEPL',
                   NOEUD='NO15866',
                   NOM_CMP='DY',
                   VALE_CALC=-0.0672259948259,
                   VALE_REFE=-0.067225999999999994,
                   PRECISION=1.E-3,),
                _F(NUME_ORDRE=1,
                   REFERENCE='SOURCE_EXTERNE',
                   RESULTAT=VECAS2,
                   NOM_CHAM='DEPL',
                   NOEUD='NO15866',
                   NOM_CMP='DZ',
                   VALE_CALC=0.00582039496046,
                   VALE_REFE=5.8203999999999999E-3,
                   PRECISION=1.E-3,),
                ),
          )


FIN();
