# TITRE  DSR3 - SANS RENUM / AFFE_CHAR_MECA / SOLVE
#            CONFIGURATION MANAGEMENT OF EDF VERSION
# ======================================================================
# COPYRIGHT (C) 1991 - 2012  EDF R&D                  WWW.CODE-ASTER.ORG
# THIS PROGRAM IS FREE SOFTWARE; YOU CAN REDISTRIBUTE IT AND/OR MODIFY
# IT UNDER THE TERMS OF THE GNU GENERAL PUBLIC LICENSE AS PUBLISHED BY
# THE FREE SOFTWARE FOUNDATION; EITHER VERSION 2 OF THE LICENSE, OR
# (AT YOUR OPTION) ANY LATER VERSION.
#
# THIS PROGRAM IS DISTRIBUTED IN THE HOPE THAT IT WILL BE USEFUL, BUT
# WITHOUT ANY WARRANTY; WITHOUT EVEN THE IMPLIED WARRANTY OF
# MERCHANTABILITY OR FITNESS FOR A PARTICULAR PURPOSE. SEE THE GNU
# GENERAL PUBLIC LICENSE FOR MORE DETAILS.
#
# YOU SHOULD HAVE RECEIVED A COPY OF THE GNU GENERAL PUBLIC LICENSE
# ALONG WITH THIS PROGRAM; IF NOT, WRITE TO EDF R&D CODE_ASTER,
#    1 AVENUE DU GENERAL DE GAULLE, 92141 CLAMART CEDEX, FRANCE.
# ======================================================================
# TEST DE PERFORMANCE ANCIENNEMENT NOMME SSLV130E
# AUJOURD'HUI, CE TEST SERT A VALIDER LDLT_SP

DEBUT(CODE=_F(NOM='GCPC002A',
NIV_PUB_WEB='INTERNET',),DEBUG=_F(SDVERI='OUI'))

MA=LIRE_MAILLAGE(FORMAT='MED',);

MO=AFFE_MODELE(MAILLAGE=MA,
               AFFE=_F(TOUT='OUI',
                       PHENOMENE='MECANIQUE',
                       MODELISATION='3D',),);

MAT=DEFI_MATERIAU(ELAS=_F(E=210000.0,
                          NU=0.3,),);

CHMAT=AFFE_MATERIAU(MAILLAGE=MA,
                    AFFE=_F(TOUT='OUI',
                            MATER=MAT,),);

CHA=AFFE_CHAR_MECA(MODELE=MO,
                   DDL_IMPO=(_F(GROUP_NO='SUPY',
                                DY=0.,),
                             _F(GROUP_NO='APPUI',
                                DX=0.,),
                             _F(GROUP_NO='SUPZ',
                                DZ=0.,),
                             _F(GROUP_NO='CHARGE',
                                DX=-1.,),),);

MEL=CALC_MATR_ELEM(OPTION='RIGI_MECA',
                   MODELE=MO,
                   CHAM_MATER=CHMAT,
                   CHARGE=CHA,);

NU=NUME_DDL(MATR_RIGI=MEL,
            METHODE='GCPC',
            RENUM='SANS',);

MATAS=ASSE_MATRICE(MATR_ELEM=MEL,
                   NUME_DDL=NU,);

VEL=CALC_VECT_ELEM(OPTION='CHAR_MECA',
                   CHARGE=CHA,);

VECAS=ASSE_VECTEUR(VECT_ELEM=VEL,
                   NUME_DDL=NU,);

# ----------------------------------------------------------------------
# GCP + LDLT_INC
KMATAS=FACTORISER(MATR_ASSE=MATAS,);

DEP=RESOUDRE(MATR=MATAS,
             CHAM_NO=VECAS,
             RESI_RELA=1.e-8,
             MATR_PREC=KMATAS,
             NMAX_ITER=1000,
             INFO=2);


RESU=CREA_RESU(OPERATION='AFFE',
               TYPE_RESU='EVOL_ELAS',
               NOM_CHAM='DEPL',
               AFFE=_F(CHAM_GD=DEP,
                       INST=0.,
                       MODELE=MO,
                       CHAM_MATER=CHMAT,),);

RESU=CALC_CHAMP(reuse=RESU,RESULTAT=RESU,INST=0.,CONTRAINTE=('SIGM_ELNO'))


TEST_RESU(CHAM_NO=(_F(NOEUD='NO13943',
                      NOM_CMP='DX',
                      TOLE_MACHINE=2.e-4,
                      CHAM_GD=DEP,
                      VALE_CALC=6.5862203681296E-04,),
                   _F(NOEUD='NO13943',
                      NOM_CMP='DY',
                      CHAM_GD=DEP,
                      VALE_CALC=0.064427574735919,
                      TOLE_MACHINE=1.E-6,),
                   _F(NOEUD='NO13943',
                      NOM_CMP='DZ',
                      CHAM_GD=DEP,
                      VALE_CALC=-6.3927117789631E-03,
                      TOLE_MACHINE=1.E-4,),
                   _F(NOEUD='NO13944',
                      NOM_CMP='DX',
                      TOLE_MACHINE=1.e-4,
                      CHAM_GD=DEP,
                      VALE_CALC=8.6838530035668E-04,),
                   _F(NOEUD='NO13944',
                      NOM_CMP='DY',
                      CHAM_GD=DEP,
                      VALE_CALC=0.061356586050990,
                      TOLE_MACHINE=1.E-5,),
                   _F(NOEUD='NO13944',
                      NOM_CMP='DZ',
                      CHAM_GD=DEP,
                      VALE_CALC=-6.2244265962663E-03,
                      TOLE_MACHINE=5.E-5,),
                   _F(NOEUD='NO15854',
                      NOM_CMP='DX',
                      TOLE_MACHINE=1.e-4,
                      CHAM_GD=DEP,
                      VALE_CALC=1.1315528763532E-03,),
                   _F(NOEUD='NO15854',
                      NOM_CMP='DY',
                      CHAM_GD=DEP,
                      VALE_CALC=0.058734813131338,
                      TOLE_MACHINE=1.E-5,),
                   _F(NOEUD='NO15854',
                      NOM_CMP='DZ',
                      CHAM_GD=DEP,
                      VALE_CALC=-6.0645513042209E-03,
                      TOLE_MACHINE=5.E-5,),
                   _F(NOEUD='NO15855',
                      NOM_CMP='DX',
                      CHAM_GD=DEP,
                      VALE_CALC=2.3537553109713E-03,
                      TOLE_MACHINE=5.E-5,),
                   _F(NOEUD='NO15855',
                      NOM_CMP='DY',
                      CHAM_GD=DEP,
                      VALE_CALC=0.043550784091456,
                      TOLE_MACHINE=1.E-5,),
                   _F(NOEUD='NO15855',
                      NOM_CMP='DZ',
                      CHAM_GD=DEP,
                      VALE_CALC=-4.5381396478777E-03,
                      TOLE_MACHINE=5.E-5,),
                   _F(NOEUD='NO15858',
                      NOM_CMP='DX',
                      PRECISION=2.E-3,
                      CHAM_GD=DEP,
                      VALE_CALC=3.1724872142653E-03,
                      VALE_REFE=3.1725E-3,
                      TOLE_MACHINE=1.E-5,
                      REFERENCE='SOURCE_EXTERNE',),
                   _F(NOEUD='NO15858',
                      NOM_CMP='DY',
                      CHAM_GD=DEP,
                      PRECISION=2.E-3,
                      VALE_CALC=0.028244223927051,
                      VALE_REFE=0.028244,
                      TOLE_MACHINE=5.E-6,
                      REFERENCE='SOURCE_EXTERNE',),
                   _F(NOEUD='NO15858',
                      NOM_CMP='DZ',
                      PRECISION=2.E-3,
                      CHAM_GD=DEP,
                      VALE_CALC=-2.9278749119718E-03,
                      VALE_REFE=-2.9278E-3,
                      TOLE_MACHINE=5.E-5,
                      REFERENCE='SOURCE_EXTERNE',),
                   _F(NOEUD='NO15860',
                      NOM_CMP='DX',
                      CHAM_GD=DEP,
                      VALE_CALC=3.6759070794503E-3,
                      TOLE_MACHINE=1.E-5,),
                   _F(NOEUD='NO15860',
                      NOM_CMP='DY',
                      CHAM_GD=DEP,
                      VALE_CALC=0.012584408146707,
                      TOLE_MACHINE=1.E-5,),
                   _F(NOEUD='NO15860',
                      NOM_CMP='DZ',
                      CHAM_GD=DEP,
                      VALE_CALC=-1.2193641082288E-3,
                      TOLE_MACHINE=1.E-4,),
                   _F(NOEUD='NO15862',
                      NOM_CMP='DX',
                      CHAM_GD=DEP,
                      PRECISION=2.E-3,
                      VALE_CALC=3.8304500655244E-03,
                      VALE_REFE=3.8304E-3,
                      TOLE_MACHINE=5.E-6,
                      REFERENCE='SOURCE_EXTERNE',),
                   _F(NOEUD='NO15862',
                      NOM_CMP='DY',
                      TOLE_MACHINE=1.e-4,
                      PRECISION=3.0000000000000001E-3,
                      CHAM_GD=DEP,
                      VALE_CALC=-3.1279511435322E-03,
                      VALE_REFE=-3.1279E-3,
                      REFERENCE='SOURCE_EXTERNE',),
                   _F(NOEUD='NO15862',
                      NOM_CMP='DZ',
                      TOLE_MACHINE=1.e-4,
                      PRECISION=2.E-3,
                      CHAM_GD=DEP,
                      VALE_CALC=4.8318461589967E-04,
                      VALE_REFE=4.8316E-4,
                      REFERENCE='SOURCE_EXTERNE',),
                   _F(NOEUD='NO15863',
                      NOM_CMP='DX',
                      CHAM_GD=DEP,
                      VALE_CALC=3.5835565134999E-03,
                      TOLE_MACHINE=1.E-5,),
                   _F(NOEUD='NO15863',
                      NOM_CMP='DY',
                      CHAM_GD=DEP,
                      VALE_CALC=-0.018952911815585,
                      TOLE_MACHINE=1.E-5,),
                   _F(NOEUD='NO15863',
                      NOM_CMP='DZ',
                      CHAM_GD=DEP,
                      VALE_CALC=2.1508318417731E-3,
                      TOLE_MACHINE=1.E-5,),
                   _F(NOEUD='NO15868',
                      NOM_CMP='DX',
                      CHAM_GD=DEP,
                      VALE_CALC=2.9511635901674E-3,
                      TOLE_MACHINE=1.E-5,),
                   _F(NOEUD='NO15868',
                      NOM_CMP='DY',
                      CHAM_GD=DEP,
                      VALE_CALC=-0.034851063222487,
                      TOLE_MACHINE=1.E-5,),
                   _F(NOEUD='NO15868',
                      NOM_CMP='DZ',
                      CHAM_GD=DEP,
                      VALE_CALC=3.7679367488321E-3,
                      TOLE_MACHINE=5.E-5,),
                   _F(NOEUD='NO15869',
                      NOM_CMP='DX',
                      CHAM_GD=DEP,
                      VALE_CALC=1.7339743993226E-3,
                      TOLE_MACHINE=1.E-5,),
                   _F(NOEUD='NO15869',
                      NOM_CMP='DY',
                      CHAM_GD=DEP,
                      VALE_CALC=-0.050995114535864,
                      TOLE_MACHINE=1.E-5,),
                   _F(NOEUD='NO15869',
                      NOM_CMP='DZ',
                      CHAM_GD=DEP,
                      VALE_CALC=4.974891668388E-3,
                      TOLE_MACHINE=5.E-5,),
                   _F(NOEUD='NO15866',
                      CRITERE='ABSOLU',
                      NOM_CMP='DX',
                      PRECISION=2.E-3,
                      CHAM_GD=DEP,
                      VALE_CALC=0.0,
                      VALE_REFE=0.0,
                      TOLE_MACHINE=1.E-7,
                      REFERENCE='SOURCE_EXTERNE',),
                   _F(NOEUD='NO15866',
                      NOM_CMP='DY',
                      CHAM_GD=DEP,
                      PRECISION=2.E-3,
                      VALE_CALC=-0.067226104263981,
                      VALE_REFE=-0.067226,
                      TOLE_MACHINE=1.E-5,
                      REFERENCE='SOURCE_EXTERNE',),
                   _F(NOEUD='NO15866',
                      NOM_CMP='DZ',
                      PRECISION=2.E-3,
                      CHAM_GD=DEP,
                      VALE_CALC=5.8204605828691E-3,
                      VALE_REFE=5.8204E-3,
                      TOLE_MACHINE=5.E-5,
                      REFERENCE='SOURCE_EXTERNE',),
                   ),
          )

# VALEUR DU TENSEUR DES CONTRAINTES PROVENANT D'UN CALCUL PAR PERMAS

TEST_RESU(RESU=(_F(INST=0.0,
                   RESULTAT=RESU,
                   NOM_CHAM='SIGM_ELNO',
                   NOEUD='NO15854',
                   NOM_CMP='SIXX',
                   VALE_CALC=-3.5546583220363,
                   VALE_REFE=-3.5204,
                   REFERENCE='NON_DEFINI',
                   TOLE_MACHINE=5.E-5,
                   PRECISION=0.014999999999999999,
                   MAILLE='MA4204',),
                _F(INST=0.0,
                   RESULTAT=RESU,
                   NOM_CHAM='SIGM_ELNO',
                   NOEUD='NO15854',
                   NOM_CMP='SIXY',
                   VALE_CALC=-1.7854237625269,
                   VALE_REFE=-1.8101,
                   REFERENCE='NON_DEFINI',
                   TOLE_MACHINE=5.E-4,
                   PRECISION=0.014999999999999999,
                   MAILLE='MA4204',),
                _F(INST=0.0,
                   RESULTAT=RESU,
                   NOM_CHAM='SIGM_ELNO',
                   NOEUD='NO15854',
                   NOM_CMP='SIYY',
                   VALE_CALC=53.88383046408,
                   TOLE_MACHINE=1.E-5,
                   MAILLE='MA4204',),
                _F(INST=0.0,
                   RESULTAT=RESU,
                   NOM_CHAM='SIGM_ELNO',
                   NOEUD='NO15854',
                   NOM_CMP='SIXZ',
                   VALE_CALC=-0.69582403737075,
                   VALE_REFE=-0.71499999999999997,
                   REFERENCE='NON_DEFINI',
                   TOLE_MACHINE=5.E-4,
                   PRECISION=0.029999999999999999,
                   MAILLE='MA4204',),
                _F(INST=0.0,
                   RESULTAT=RESU,
                   NOM_CHAM='SIGM_ELNO',
                   NOEUD='NO15854',
                   NOM_CMP='SIYZ',
                   VALE_CALC=-1.0349659439674,
                   VALE_REFE=-1.0373000000000001,
                   REFERENCE='NON_DEFINI',
                   TOLE_MACHINE=5.E-4,
                   PRECISION=5.5999999999999999E-3,
                   MAILLE='MA4204',),
                _F(INST=0.0,
                   RESULTAT=RESU,
                   NOM_CHAM='SIGM_ELNO',
                   NOEUD='NO15854',
                   NOM_CMP='SIZZ',
                   VALE_CALC=-1.1318732382948,
                   VALE_REFE=-1.0671999999999999,
                   REFERENCE='NON_DEFINI',
                   TOLE_MACHINE=1.E-4,
                   PRECISION=0.065000000000000002,
                   MAILLE='MA4204',),
                ),
          )

# ----------------------------------------------------------------------
# GCP + LDLT_SP
KMATAS2=FACTORISER(MATR_ASSE=MATAS,PRE_COND='LDLT_SP');

DEP2=RESOUDRE(MATR=MATAS,
             CHAM_NO=VECAS,
             RESI_RELA=1.e-8,
             MATR_PREC=KMATAS2,
             NMAX_ITER=1000,
             INFO=2);

TEST_RESU(CHAM_NO=(_F(NOEUD='NO13943',
                      NOM_CMP='DX',
                      TOLE_MACHINE=3.0000000000000001E-3,
                      CHAM_GD=DEP2,
                      VALE_CALC= 6.5854894758217E-04,),
                   _F(NOEUD='NO13943',
                      NOM_CMP='DY',
                      CHAM_GD=DEP2,
                      VALE_CALC=0.064427713698103,
                      TOLE_MACHINE=1.E-5,),
                   _F(NOEUD='NO13943',
                      NOM_CMP='DZ',
                      CHAM_GD=DEP2,
                      VALE_CALC=-6.392629717095E-03,
                      TOLE_MACHINE=1.E-5,),
                   _F(NOEUD='NO13944',
                      NOM_CMP='DX',
                      CHAM_GD=DEP2,
                      VALE_CALC= 8.683133619658E-04,),
                   _F(NOEUD='NO13944',
                      NOM_CMP='DY',
                      CHAM_GD=DEP2,
                      VALE_CALC=0.061356724322274,
                      TOLE_MACHINE=1.E-5,),
                   _F(NOEUD='NO13944',
                      NOM_CMP='DZ',
                      CHAM_GD=DEP2,
                      VALE_CALC=-6.2243543507511E-03,
                      TOLE_MACHINE=1.E-5,),
                   _F(NOEUD='NO15854',
                      NOM_CMP='DX',
                      CHAM_GD=DEP2,
                      VALE_CALC= 1.1314828333763E-03,),
                   _F(NOEUD='NO15854',
                      NOM_CMP='DY',
                      CHAM_GD=DEP2,
                      VALE_CALC=0.058734955832914,
                      TOLE_MACHINE=1.E-5,),
                   _F(NOEUD='NO15854',
                      NOM_CMP='DZ',
                      CHAM_GD=DEP2,
                      VALE_CALC=-6.0644879030487E-03,
                      TOLE_MACHINE=1.E-5,),
                   _F(NOEUD='NO15855',
                      NOM_CMP='DX',
                      CHAM_GD=DEP2,
                      VALE_CALC=2.3537105273371E-03,
                      TOLE_MACHINE=1.E-5,),
                   _F(NOEUD='NO15855',
                      NOM_CMP='DY',
                      CHAM_GD=DEP2,
                      VALE_CALC=0.043550934346779,
                      TOLE_MACHINE=1.E-5,),
                   _F(NOEUD='NO15855',
                      NOM_CMP='DZ',
                      CHAM_GD=DEP2,
                      VALE_CALC=-4.5380874081243E-03,
                      TOLE_MACHINE=1.E-5,),
                   _F(NOEUD='NO15858',
                      NOM_CMP='DX',
                      CHAM_GD=DEP2,
                      VALE_CALC=3.1724536637076E-03,
                      TOLE_MACHINE=1.E-5,),
                   _F(NOEUD='NO15858',
                      NOM_CMP='DY',
                      CHAM_GD=DEP2,
                      VALE_CALC=0.028244377011255,
                      TOLE_MACHINE=1.E-5,),
                   _F(NOEUD='NO15858',
                      NOM_CMP='DZ',
                      CHAM_GD=DEP2,
                      VALE_CALC=-2.9278418089429E-03,
                      TOLE_MACHINE=1.E-5,),
                   _F(NOEUD='NO15860',
                      NOM_CMP='DX',
                      CHAM_GD=DEP2,
                      VALE_CALC=3.6758821763212E-03,
                      TOLE_MACHINE=1.E-5,),
                   _F(NOEUD='NO15860',
                      NOM_CMP='DY',
                      CHAM_GD=DEP2,
                      VALE_CALC=0.012584550182676,
                      TOLE_MACHINE=1.E-5,),
                   _F(NOEUD='NO15860',
                      NOM_CMP='DZ',
                      CHAM_GD=DEP2,
                      VALE_CALC=-1.2193265876199E-03,
                      TOLE_MACHINE=1.E-5,),
                   _F(NOEUD='NO15862',
                      NOM_CMP='DX',
                      CHAM_GD=DEP2,
                      VALE_CALC=3.8304202994193E-03,
                      TOLE_MACHINE=1.E-5,),
                   _F(NOEUD='NO15862',
                      NOM_CMP='DY',
                      PRECISION=3.0000000000000001E-3,
                      CHAM_GD=DEP2,
                      VALE_CALC=-3.127825524197E-03,
                      VALE_REFE=-3.1278E-3,
                      REFERENCE='NON_DEFINI',),
                   _F(NOEUD='NO15862',
                      NOM_CMP='DZ',
                      PRECISION=2.E-3,
                      CHAM_GD=DEP2,
                      VALE_CALC= 4.83199556E-04,
                      VALE_REFE=4.8319999999999998E-4,
                      REFERENCE='NON_DEFINI',),
                   _F(NOEUD='NO15863',
                      NOM_CMP='DX',
                      CHAM_GD=DEP2,
                      VALE_CALC=3.5835323673784E-03,
                      TOLE_MACHINE=1.E-5,),
                   _F(NOEUD='NO15863',
                      NOM_CMP='DY',
                      CHAM_GD=DEP2,
                      VALE_CALC=-0.018952797692042,
                      TOLE_MACHINE=1.E-5,),
                   _F(NOEUD='NO15863',
                      NOM_CMP='DZ',
                      CHAM_GD=DEP2,
                      VALE_CALC=2.1508291925515E-03,
                      TOLE_MACHINE=1.E-5,),
                   _F(NOEUD='NO15868',
                      NOM_CMP='DX',
                      CHAM_GD=DEP2,
                      VALE_CALC=2.9511570079124E-03,
                      TOLE_MACHINE=1.E-5,),
                   _F(NOEUD='NO15868',
                      NOM_CMP='DY',
                      CHAM_GD=DEP2,
                      VALE_CALC=-0.034850956438471,
                      TOLE_MACHINE=1.E-5,),
                   _F(NOEUD='NO15868',
                      NOM_CMP='DZ',
                      CHAM_GD=DEP2,
                      VALE_CALC=3.7679244298629E-03,
                      TOLE_MACHINE=1.E-5,),
                   _F(NOEUD='NO15869',
                      NOM_CMP='DX',
                      CHAM_GD=DEP2,
                      VALE_CALC=1.7339637800266E-03,
                      TOLE_MACHINE=1.E-5,),
                   _F(NOEUD='NO15869',
                      NOM_CMP='DY',
                      CHAM_GD=DEP2,
                      VALE_CALC=-0.050995006149227,
                      TOLE_MACHINE=1.E-5,),
                   _F(NOEUD='NO15869',
                      NOM_CMP='DZ',
                      CHAM_GD=DEP2,
                      VALE_CALC=4.9748687601492E-03,
                      TOLE_MACHINE=1.E-5,),
                   _F(NOEUD='NO15866',
                      CRITERE='ABSOLU',
                      NOM_CMP='DX',
                      CHAM_GD=DEP2,
                      VALE_CALC=0.0,
                      TOLE_MACHINE=9.9999999999999995E-12,),
                   _F(NOEUD='NO15866',
                      NOM_CMP='DY',
                      CHAM_GD=DEP2,
                      VALE_CALC=-0.067225994838984,
                      TOLE_MACHINE=1.E-5,),
                   _F(NOEUD='NO15866',
                      NOM_CMP='DZ',
                      CHAM_GD=DEP2,
                      VALE_CALC=5.8203949623031E-03,
                      TOLE_MACHINE=1.E-5,),
                   ),
          )

FIN();
