# MODIF  DATE 15/10/2012   AUTEUR COURTOIS M.COURTOIS 
# TITRE  DSR3 - SANS RENUM / AFFE_CHAR_MECA / SOLVE
# gcpc002a.para = tps_job 120 mem_job 768Mo ncpus 1 liste_test S
#            CONFIGURATION MANAGEMENT OF EDF VERSION
# ======================================================================
# COPYRIGHT (C) 1991 - 2012  EDF R&D                  WWW.CODE-ASTER.ORG
# THIS PROGRAM IS FREE SOFTWARE; YOU CAN REDISTRIBUTE IT AND/OR MODIFY
# IT UNDER THE TERMS OF THE GNU GENERAL PUBLIC LICENSE AS PUBLISHED BY
# THE FREE SOFTWARE FOUNDATION; EITHER VERSION 2 OF THE LICENSE, OR
# (AT YOUR OPTION) ANY LATER VERSION.
#
# THIS PROGRAM IS DISTRIBUTED IN THE HOPE THAT IT WILL BE USEFUL, BUT
# WITHOUT ANY WARRANTY; WITHOUT EVEN THE IMPLIED WARRANTY OF
# MERCHANTABILITY OR FITNESS FOR A PARTICULAR PURPOSE. SEE THE GNU
# GENERAL PUBLIC LICENSE FOR MORE DETAILS.
#
# YOU SHOULD HAVE RECEIVED A COPY OF THE GNU GENERAL PUBLIC LICENSE
# ALONG WITH THIS PROGRAM; IF NOT, WRITE TO EDF R&D CODE_ASTER,
#    1 AVENUE DU GENERAL DE GAULLE, 92141 CLAMART CEDEX, FRANCE.
# ======================================================================
# TEST DE PERFORMANCE ANCIENNEMENT NOMME SSLV130E
# AUJOURD'HUI, CE TEST SERT A VALIDER LDLT_SP

DEBUT(CODE=_F(NOM='GCPC002A',
NIV_PUB_WEB='INTERNET',),DEBUG=_F(SDVERI='OUI'))

MA=LIRE_MAILLAGE(FORMAT='MED',);

MO=AFFE_MODELE(MAILLAGE=MA,
               AFFE=_F(TOUT='OUI',
                       PHENOMENE='MECANIQUE',
                       MODELISATION='3D',),);

MAT=DEFI_MATERIAU(ELAS=_F(E=210000.0,
                          NU=0.3,),);

CHMAT=AFFE_MATERIAU(MAILLAGE=MA,
                    AFFE=_F(TOUT='OUI',
                            MATER=MAT,),);

CHA=AFFE_CHAR_MECA(MODELE=MO,
                   DDL_IMPO=(_F(GROUP_NO='SUPY',
                                DY=0.,),
                             _F(GROUP_NO='APPUI',
                                DX=0.,),
                             _F(GROUP_NO='SUPZ',
                                DZ=0.,),
                             _F(GROUP_NO='CHARGE',
                                DX=-1.,),),);

MEL=CALC_MATR_ELEM(OPTION='RIGI_MECA',
                   MODELE=MO,
                   CHAM_MATER=CHMAT,
                   CHARGE=CHA,);

NU=NUME_DDL(MATR_RIGI=MEL,
            METHODE='GCPC',
            RENUM='SANS',);

MATAS=ASSE_MATRICE(MATR_ELEM=MEL,
                   NUME_DDL=NU,);

VEL=CALC_VECT_ELEM(OPTION='CHAR_MECA',
                   CHARGE=CHA,);

VECAS=ASSE_VECTEUR(VECT_ELEM=VEL,
                   NUME_DDL=NU,);

# ----------------------------------------------------------------------
# GCP + LDLT_INC
KMATAS=FACTORISER(MATR_ASSE=MATAS,);

DEP=RESOUDRE(MATR=MATAS,
             CHAM_NO=VECAS,
             RESI_RELA=1.e-8,
             MATR_PREC=KMATAS,
             NMAX_ITER=1000,
             INFO=2);


RESU=CREA_RESU(OPERATION='AFFE',
               TYPE_RESU='EVOL_ELAS',
               NOM_CHAM='DEPL',
               AFFE=_F(CHAM_GD=DEP,
                       INST=0.,
                       MODELE=MO,
                       CHAM_MATER=CHMAT,),);

RESU=CALC_CHAMP(reuse=RESU,RESULTAT=RESU,INST=0.,CONTRAINTE=('SIGM_ELNO'))


TEST_RESU(CHAM_NO=(_F(NOEUD='NO13943',
                      NOM_CMP='DX',
                      TOLE_MACHINE=5.e-4,   #TODO variabilite
                      PRECISION=3.0000000000000001E-3,
                      CHAM_GD=DEP,
                      VALE_CALC=6.5862203681296E-04,
                      VALE_REFE=6.5855000000000004E-4,
                      REFERENCE='NON_DEFINI',),
                   _F(NOEUD='NO13943',
                      NOM_CMP='DY',
                      CHAM_GD=DEP,
                      VALE_CALC=0.064427999999999999,
                      TOLE_MACHINE=1.E-3,),
                   _F(NOEUD='NO13943',
                      NOM_CMP='DZ',
                      CHAM_GD=DEP,
                      VALE_CALC=-6.3926E-3,
                      TOLE_MACHINE=1.E-3,),
                   _F(NOEUD='NO13944',
                      NOM_CMP='DX',
                      TOLE_MACHINE=1.e-4,
                      PRECISION=2.5000000000000001E-3,
                      CHAM_GD=DEP,
                      VALE_CALC=8.6838530035668E-04,
                      VALE_REFE=8.6830999999999996E-4,
                      REFERENCE='NON_DEFINI',),
                   _F(NOEUD='NO13944',
                      NOM_CMP='DY',
                      CHAM_GD=DEP,
                      VALE_CALC=0.061357000000000002,
                      TOLE_MACHINE=1.E-3,),
                   _F(NOEUD='NO13944',
                      NOM_CMP='DZ',
                      CHAM_GD=DEP,
                      VALE_CALC=-6.2243999999999997E-3,
                      TOLE_MACHINE=1.E-3,),
                   _F(NOEUD='NO15854',
                      NOM_CMP='DX',
                      TOLE_MACHINE=1.e-4,
                      PRECISION=2.E-3,
                      CHAM_GD=DEP,
                      VALE_CALC=1.1315528763532E-03,
                      VALE_REFE=1.1314999999999999E-3,
                      REFERENCE='NON_DEFINI',),
                   _F(NOEUD='NO15854',
                      NOM_CMP='DY',
                      CHAM_GD=DEP,
                      VALE_CALC=0.058735000000000002,
                      TOLE_MACHINE=1.E-3,),
                   _F(NOEUD='NO15854',
                      NOM_CMP='DZ',
                      CHAM_GD=DEP,
                      VALE_CALC=-6.0644999999999996E-3,
                      TOLE_MACHINE=1.E-3,),
                   _F(NOEUD='NO15855',
                      NOM_CMP='DX',
                      CHAM_GD=DEP,
                      VALE_CALC=2.3536999999999998E-3,
                      TOLE_MACHINE=1.E-3,),
                   _F(NOEUD='NO15855',
                      NOM_CMP='DY',
                      CHAM_GD=DEP,
                      VALE_CALC=0.043550999999999999,
                      TOLE_MACHINE=1.E-3,),
                   _F(NOEUD='NO15855',
                      NOM_CMP='DZ',
                      CHAM_GD=DEP,
                      VALE_CALC=-4.5380999999999998E-3,
                      TOLE_MACHINE=1.E-3,),
                   _F(NOEUD='NO15858',
                      NOM_CMP='DX',
                      CHAM_GD=DEP,
                      VALE_CALC=3.1725E-3,
                      TOLE_MACHINE=1.E-3,),
                   _F(NOEUD='NO15858',
                      NOM_CMP='DY',
                      CHAM_GD=DEP,
                      VALE_CALC=0.028243999999999998,
                      TOLE_MACHINE=1.E-3,),
                   _F(NOEUD='NO15858',
                      NOM_CMP='DZ',
                      CHAM_GD=DEP,
                      VALE_CALC=-2.9277999999999999E-3,
                      TOLE_MACHINE=1.E-3,),
                   _F(NOEUD='NO15860',
                      NOM_CMP='DX',
                      CHAM_GD=DEP,
                      VALE_CALC=3.6759000000000002E-3,
                      TOLE_MACHINE=1.E-3,),
                   _F(NOEUD='NO15860',
                      NOM_CMP='DY',
                      CHAM_GD=DEP,
                      VALE_CALC=0.012585000000000001,
                      TOLE_MACHINE=1.E-3,),
                   _F(NOEUD='NO15860',
                      NOM_CMP='DZ',
                      CHAM_GD=DEP,
                      VALE_CALC=-1.2193E-3,
                      TOLE_MACHINE=1.E-3,),
                   _F(NOEUD='NO15862',
                      NOM_CMP='DX',
                      CHAM_GD=DEP,
                      VALE_CALC=3.8303999999999999E-3,
                      TOLE_MACHINE=1.E-3,),
                   _F(NOEUD='NO15862',
                      NOM_CMP='DY',
                      TOLE_MACHINE=1.e-4,
                      PRECISION=3.0000000000000001E-3,
                      CHAM_GD=DEP,
                      VALE_CALC=-3.1279511435322E-03,
                      VALE_REFE=-3.1278E-3,
                      REFERENCE='NON_DEFINI',),
                   _F(NOEUD='NO15862',
                      NOM_CMP='DZ',
                      TOLE_MACHINE=1.e-4,
                      PRECISION=2.E-3,
                      CHAM_GD=DEP,
                      VALE_CALC=4.8318461589967E-04,
                      VALE_REFE=4.8319999999999998E-4,
                      REFERENCE='NON_DEFINI',),
                   _F(NOEUD='NO15863',
                      NOM_CMP='DX',
                      CHAM_GD=DEP,
                      VALE_CALC=3.5834999999999999E-3,
                      TOLE_MACHINE=1.E-3,),
                   _F(NOEUD='NO15863',
                      NOM_CMP='DY',
                      CHAM_GD=DEP,
                      VALE_CALC=-0.018953000000000001,
                      TOLE_MACHINE=1.E-3,),
                   _F(NOEUD='NO15863',
                      NOM_CMP='DZ',
                      CHAM_GD=DEP,
                      VALE_CALC=2.1508E-3,
                      TOLE_MACHINE=1.E-3,),
                   _F(NOEUD='NO15868',
                      NOM_CMP='DX',
                      CHAM_GD=DEP,
                      VALE_CALC=2.9512000000000002E-3,
                      TOLE_MACHINE=1.E-3,),
                   _F(NOEUD='NO15868',
                      NOM_CMP='DY',
                      CHAM_GD=DEP,
                      VALE_CALC=-0.034851,
                      TOLE_MACHINE=1.E-3,),
                   _F(NOEUD='NO15868',
                      NOM_CMP='DZ',
                      CHAM_GD=DEP,
                      VALE_CALC=3.7678999999999998E-3,
                      TOLE_MACHINE=1.E-3,),
                   _F(NOEUD='NO15869',
                      NOM_CMP='DX',
                      CHAM_GD=DEP,
                      VALE_CALC=1.7340000000000001E-3,
                      TOLE_MACHINE=1.E-3,),
                   _F(NOEUD='NO15869',
                      NOM_CMP='DY',
                      CHAM_GD=DEP,
                      VALE_CALC=-0.050994999999999999,
                      TOLE_MACHINE=1.E-3,),
                   _F(NOEUD='NO15869',
                      NOM_CMP='DZ',
                      CHAM_GD=DEP,
                      VALE_CALC=4.9749E-3,
                      TOLE_MACHINE=1.E-3,),
                   _F(NOEUD='NO15866',
                      CRITERE='ABSOLU',
                      NOM_CMP='DX',
                      CHAM_GD=DEP,
                      VALE_CALC=0.0,
                      TOLE_MACHINE=9.9999999999999995E-08,),
                   _F(NOEUD='NO15866',
                      NOM_CMP='DY',
                      CHAM_GD=DEP,
                      VALE_CALC=-0.067225999999999994,
                      TOLE_MACHINE=1.E-3,),
                   _F(NOEUD='NO15866',
                      NOM_CMP='DZ',
                      CHAM_GD=DEP,
                      VALE_CALC=5.8203999999999999E-3,
                      TOLE_MACHINE=1.E-3,),
                   ),
          )

# VALEUR DU TENSEUR DES CONTRAINTES PROVENANT D'UN CALCUL PAR PERMAS

TEST_RESU(RESU=(_F(INST=0.0,
                   RESULTAT=RESU,
                   NOM_CHAM='SIGM_ELNO',
                   NOEUD='NO15854',
                   NOM_CMP='SIXX',
                   VALE_CALC=-3.555176945,
                   VALE_REFE=-3.5204,
                   REFERENCE='NON_DEFINI',
                   TOLE_MACHINE=1.e-3,
                   PRECISION=0.014999999999999999,
                   MAILLE='MA4204',),
                _F(INST=0.0,
                   RESULTAT=RESU,
                   NOM_CHAM='SIGM_ELNO',
                   NOEUD='NO15854',
                   NOM_CMP='SIXY',
                   VALE_CALC=-1.785692805,
                   VALE_REFE=-1.8101,
                   REFERENCE='NON_DEFINI',
                   TOLE_MACHINE=1.e-3,
                   PRECISION=0.014999999999999999,
                   MAILLE='MA4204',),
                _F(INST=0.0,
                   RESULTAT=RESU,
                   NOM_CHAM='SIGM_ELNO',
                   NOEUD='NO15854',
                   NOM_CMP='SIYY',
                   VALE_CALC=53.914000000000001,
                   TOLE_MACHINE=1.E-3,
                   MAILLE='MA4204',),
                _F(INST=0.0,
                   RESULTAT=RESU,
                   NOM_CHAM='SIGM_ELNO',
                   NOEUD='NO15854',
                   NOM_CMP='SIXZ',
                   VALE_CALC=-0.695781996,
                   VALE_REFE=-0.71499999999999997,
                   REFERENCE='NON_DEFINI',
                   TOLE_MACHINE=1.e-3,
                   PRECISION=0.029999999999999999,
                   MAILLE='MA4204',),
                _F(INST=0.0,
                   RESULTAT=RESU,
                   NOM_CHAM='SIGM_ELNO',
                   NOEUD='NO15854',
                   NOM_CMP='SIYZ',
                   VALE_CALC=-1.034851297,
                   VALE_REFE=-1.0373000000000001,
                   REFERENCE='NON_DEFINI',
                   TOLE_MACHINE=1.e-3,
                   PRECISION=5.5999999999999999E-3,
                   MAILLE='MA4204',),
                _F(INST=0.0,
                   RESULTAT=RESU,
                   NOM_CHAM='SIGM_ELNO',
                   NOEUD='NO15854',
                   NOM_CMP='SIZZ',
                   VALE_CALC=-1.132279934,
                   VALE_REFE=-1.0671999999999999,
                   REFERENCE='NON_DEFINI',
                   TOLE_MACHINE=1.e-3,
                   PRECISION=0.065000000000000002,
                   MAILLE='MA4204',),
                ),
          )

# ----------------------------------------------------------------------
# GCP + LDLT_SP
KMATAS2=FACTORISER(MATR_ASSE=MATAS,PRE_COND='LDLT_SP');

DEP2=RESOUDRE(MATR=MATAS,
             CHAM_NO=VECAS,
             RESI_RELA=1.e-8,
             MATR_PREC=KMATAS2,
             NMAX_ITER=1000,
             INFO=2);

TEST_RESU(CHAM_NO=(_F(NOEUD='NO13943',
                      NOM_CMP='DX',
                      PRECISION=3.0000000000000001E-3,
                      CHAM_GD=DEP2,
                      VALE_CALC= 6.58548947E-04,
                      VALE_REFE=6.5855000000000004E-4,
                      REFERENCE='NON_DEFINI',),
                   _F(NOEUD='NO13943',
                      NOM_CMP='DY',
                      CHAM_GD=DEP2,
                      VALE_CALC=0.064427999999999999,
                      TOLE_MACHINE=1.E-3,),
                   _F(NOEUD='NO13943',
                      NOM_CMP='DZ',
                      CHAM_GD=DEP2,
                      VALE_CALC=-6.3926E-3,
                      TOLE_MACHINE=1.E-3,),
                   _F(NOEUD='NO13944',
                      NOM_CMP='DX',
                      PRECISION=2.5000000000000001E-3,
                      CHAM_GD=DEP2,
                      VALE_CALC= 8.68313361E-04,
                      VALE_REFE=8.6830999999999996E-4,
                      REFERENCE='NON_DEFINI',),
                   _F(NOEUD='NO13944',
                      NOM_CMP='DY',
                      CHAM_GD=DEP2,
                      VALE_CALC=0.061357000000000002,
                      TOLE_MACHINE=1.E-3,),
                   _F(NOEUD='NO13944',
                      NOM_CMP='DZ',
                      CHAM_GD=DEP2,
                      VALE_CALC=-6.2243999999999997E-3,
                      TOLE_MACHINE=1.E-3,),
                   _F(NOEUD='NO15854',
                      NOM_CMP='DX',
                      PRECISION=2.E-3,
                      CHAM_GD=DEP2,
                      VALE_CALC= 1.13148283E-03,
                      VALE_REFE=1.1314999999999999E-3,
                      REFERENCE='NON_DEFINI',),
                   _F(NOEUD='NO15854',
                      NOM_CMP='DY',
                      CHAM_GD=DEP2,
                      VALE_CALC=0.058735000000000002,
                      TOLE_MACHINE=1.E-3,),
                   _F(NOEUD='NO15854',
                      NOM_CMP='DZ',
                      CHAM_GD=DEP2,
                      VALE_CALC=-6.0644999999999996E-3,
                      TOLE_MACHINE=1.E-3,),
                   _F(NOEUD='NO15855',
                      NOM_CMP='DX',
                      CHAM_GD=DEP2,
                      VALE_CALC=2.3536999999999998E-3,
                      TOLE_MACHINE=1.E-3,),
                   _F(NOEUD='NO15855',
                      NOM_CMP='DY',
                      CHAM_GD=DEP2,
                      VALE_CALC=0.043550999999999999,
                      TOLE_MACHINE=1.E-3,),
                   _F(NOEUD='NO15855',
                      NOM_CMP='DZ',
                      CHAM_GD=DEP2,
                      VALE_CALC=-4.5380999999999998E-3,
                      TOLE_MACHINE=1.E-3,),
                   _F(NOEUD='NO15858',
                      NOM_CMP='DX',
                      CHAM_GD=DEP2,
                      VALE_CALC=3.1725E-3,
                      TOLE_MACHINE=1.E-3,),
                   _F(NOEUD='NO15858',
                      NOM_CMP='DY',
                      CHAM_GD=DEP2,
                      VALE_CALC=0.028243999999999998,
                      TOLE_MACHINE=1.E-3,),
                   _F(NOEUD='NO15858',
                      NOM_CMP='DZ',
                      CHAM_GD=DEP2,
                      VALE_CALC=-2.9277999999999999E-3,
                      TOLE_MACHINE=1.E-3,),
                   _F(NOEUD='NO15860',
                      NOM_CMP='DX',
                      CHAM_GD=DEP2,
                      VALE_CALC=3.6759000000000002E-3,
                      TOLE_MACHINE=1.E-3,),
                   _F(NOEUD='NO15860',
                      NOM_CMP='DY',
                      CHAM_GD=DEP2,
                      VALE_CALC=0.012585000000000001,
                      TOLE_MACHINE=1.E-3,),
                   _F(NOEUD='NO15860',
                      NOM_CMP='DZ',
                      CHAM_GD=DEP2,
                      VALE_CALC=-1.2193E-3,
                      TOLE_MACHINE=1.E-3,),
                   _F(NOEUD='NO15862',
                      NOM_CMP='DX',
                      CHAM_GD=DEP2,
                      VALE_CALC=3.8303999999999999E-3,
                      TOLE_MACHINE=1.E-3,),
                   _F(NOEUD='NO15862',
                      NOM_CMP='DY',
                      PRECISION=3.0000000000000001E-3,
                      CHAM_GD=DEP2,
                      VALE_CALC=-3.12782552E-03,
                      VALE_REFE=-3.1278E-3,
                      REFERENCE='NON_DEFINI',),
                   _F(NOEUD='NO15862',
                      NOM_CMP='DZ',
                      PRECISION=2.E-3,
                      CHAM_GD=DEP2,
                      VALE_CALC= 4.83199556E-04,
                      VALE_REFE=4.8319999999999998E-4,
                      REFERENCE='NON_DEFINI',),
                   _F(NOEUD='NO15863',
                      NOM_CMP='DX',
                      CHAM_GD=DEP2,
                      VALE_CALC=3.5834999999999999E-3,
                      TOLE_MACHINE=1.E-3,),
                   _F(NOEUD='NO15863',
                      NOM_CMP='DY',
                      CHAM_GD=DEP2,
                      VALE_CALC=-0.018953000000000001,
                      TOLE_MACHINE=1.E-3,),
                   _F(NOEUD='NO15863',
                      NOM_CMP='DZ',
                      CHAM_GD=DEP2,
                      VALE_CALC=2.1508E-3,
                      TOLE_MACHINE=1.E-3,),
                   _F(NOEUD='NO15868',
                      NOM_CMP='DX',
                      CHAM_GD=DEP2,
                      VALE_CALC=2.9512000000000002E-3,
                      TOLE_MACHINE=1.E-3,),
                   _F(NOEUD='NO15868',
                      NOM_CMP='DY',
                      CHAM_GD=DEP2,
                      VALE_CALC=-0.034851,
                      TOLE_MACHINE=1.E-3,),
                   _F(NOEUD='NO15868',
                      NOM_CMP='DZ',
                      CHAM_GD=DEP2,
                      VALE_CALC=3.7678999999999998E-3,
                      TOLE_MACHINE=1.E-3,),
                   _F(NOEUD='NO15869',
                      NOM_CMP='DX',
                      CHAM_GD=DEP2,
                      VALE_CALC=1.7340000000000001E-3,
                      TOLE_MACHINE=1.E-3,),
                   _F(NOEUD='NO15869',
                      NOM_CMP='DY',
                      CHAM_GD=DEP2,
                      VALE_CALC=-0.050994999999999999,
                      TOLE_MACHINE=1.E-3,),
                   _F(NOEUD='NO15869',
                      NOM_CMP='DZ',
                      CHAM_GD=DEP2,
                      VALE_CALC=4.9749E-3,
                      TOLE_MACHINE=1.E-3,),
                   _F(NOEUD='NO15866',
                      CRITERE='ABSOLU',
                      NOM_CMP='DX',
                      CHAM_GD=DEP2,
                      VALE_CALC=0.0,
                      TOLE_MACHINE=9.9999999999999995E-08,),
                   _F(NOEUD='NO15866',
                      NOM_CMP='DY',
                      CHAM_GD=DEP2,
                      VALE_CALC=-0.067225999999999994,
                      TOLE_MACHINE=1.E-3,),
                   _F(NOEUD='NO15866',
                      NOM_CMP='DZ',
                      CHAM_GD=DEP2,
                      VALE_CALC=5.8203999999999999E-3,
                      TOLE_MACHINE=1.E-3,),
                   ),
          )

FIN();

#
