# MODIF  DATE 07/02/2012   AUTEUR PELLET J.PELLET 
# TITRE  DSR3 - SANS RENUM / AFFE_CHAR_MECA / SOLVE
# gcpc002a.para = tps_job 120 mem_job 360Mo ncpus 1 liste_test S
#            CONFIGURATION MANAGEMENT OF EDF VERSION
# ======================================================================
# COPYRIGHT (C) 1991 - 2012  EDF R&D                  WWW.CODE-ASTER.ORG
# THIS PROGRAM IS FREE SOFTWARE; YOU CAN REDISTRIBUTE IT AND/OR MODIFY
# IT UNDER THE TERMS OF THE GNU GENERAL PUBLIC LICENSE AS PUBLISHED BY
# THE FREE SOFTWARE FOUNDATION; EITHER VERSION 2 OF THE LICENSE, OR
# (AT YOUR OPTION) ANY LATER VERSION.
#
# THIS PROGRAM IS DISTRIBUTED IN THE HOPE THAT IT WILL BE USEFUL, BUT
# WITHOUT ANY WARRANTY; WITHOUT EVEN THE IMPLIED WARRANTY OF
# MERCHANTABILITY OR FITNESS FOR A PARTICULAR PURPOSE. SEE THE GNU
# GENERAL PUBLIC LICENSE FOR MORE DETAILS.
#
# YOU SHOULD HAVE RECEIVED A COPY OF THE GNU GENERAL PUBLIC LICENSE
# ALONG WITH THIS PROGRAM; IF NOT, WRITE TO EDF R&D CODE_ASTER,
#    1 AVENUE DU GENERAL DE GAULLE, 92141 CLAMART CEDEX, FRANCE.
# ======================================================================
# TEST DE PERFORMANCE ANCIENNEMENT NOMME SSLV130E
# AUJOURD'HUI, CE TEST SERT A VALIDER LDLT_SP

DEBUT(CODE=_F(NOM='GCPC002A',
NIV_PUB_WEB='INTERNET',),DEBUG=_F(SDVERI='OUI'))

MA=LIRE_MAILLAGE(FORMAT='MED',);

MO=AFFE_MODELE(MAILLAGE=MA,
               AFFE=_F(TOUT='OUI',
                       PHENOMENE='MECANIQUE',
                       MODELISATION='3D',),);

MAT=DEFI_MATERIAU(ELAS=_F(E=210000.0,
                          NU=0.3,),);

CHMAT=AFFE_MATERIAU(MAILLAGE=MA,
                    AFFE=_F(TOUT='OUI',
                            MATER=MAT,),);

CHA=AFFE_CHAR_MECA(MODELE=MO,
                   DDL_IMPO=(_F(GROUP_NO='SUPY',
                                DY=0.,),
                             _F(GROUP_NO='APPUI',
                                DX=0.,),
                             _F(GROUP_NO='SUPZ',
                                DZ=0.,),
                             _F(GROUP_NO='CHARGE',
                                DX=-1.,),),);

MEL=CALC_MATR_ELEM(OPTION='RIGI_MECA',
                   MODELE=MO,
                   CHAM_MATER=CHMAT,
                   CHARGE=CHA,);

NU=NUME_DDL(MATR_RIGI=MEL,
            METHODE='GCPC',
            RENUM='SANS',);

MATAS=ASSE_MATRICE(MATR_ELEM=MEL,
                   NUME_DDL=NU,);

VEL=CALC_VECT_ELEM(OPTION='CHAR_MECA',
                   CHARGE=CHA,);

VECAS=ASSE_VECTEUR(VECT_ELEM=VEL,
                   NUME_DDL=NU,);

# ----------------------------------------------------------------------
# GCP + LDLT_INC
KMATAS=FACTORISER(MATR_ASSE=MATAS,);

DEP=RESOUDRE(MATR=MATAS,
             CHAM_NO=VECAS,
             RESI_RELA=1.e-8,
             MATR_PREC=KMATAS,
             NMAX_ITER=1000,
             INFO=2);


RESU=CREA_RESU(OPERATION='AFFE',
               TYPE_RESU='EVOL_ELAS',
               NOM_CHAM='DEPL',
               AFFE=_F(CHAM_GD=DEP,
                       INST=0.,
                       MODELE=MO,
                       CHAM_MATER=CHMAT,),);

RESU=CALC_ELEM(reuse =RESU,
               RESULTAT=RESU,
               INST=0.,
               OPTION='SIGM_ELNO',);

TEST_RESU(CHAM_NO=(_F(CHAM_GD=DEP,
                      NOEUD='NO13943',
                      NOM_CMP='DX',
                      VALE=0.00065855,
                      PRECISION=0.003,),
                   _F(CHAM_GD=DEP,
                      NOEUD='NO13943',
                      NOM_CMP='DY',
                      VALE=0.064428,
                      PRECISION=0.001,),
                   _F(CHAM_GD=DEP,
                      NOEUD='NO13943',
                      NOM_CMP='DZ',
                      VALE=-0.0063926,
                      PRECISION=0.001,),
                   _F(CHAM_GD=DEP,
                      NOEUD='NO13944',
                      NOM_CMP='DX',
                      VALE=0.00086831,
                      PRECISION=0.0025,),
                   _F(CHAM_GD=DEP,
                      NOEUD='NO13944',
                      NOM_CMP='DY',
                      VALE=0.061357,
                      PRECISION=0.001,),
                   _F(CHAM_GD=DEP,
                      NOEUD='NO13944',
                      NOM_CMP='DZ',
                      VALE=-0.0062244,
                      PRECISION=0.001,),
                   _F(CHAM_GD=DEP,
                      NOEUD='NO15854',
                      NOM_CMP='DX',
                      VALE=0.0011315,
                      PRECISION=0.002,),
                   _F(CHAM_GD=DEP,
                      NOEUD='NO15854',
                      NOM_CMP='DY',
                      VALE=0.058735,
                      PRECISION=0.001,),
                   _F(CHAM_GD=DEP,
                      NOEUD='NO15854',
                      NOM_CMP='DZ',
                      VALE=-0.0060645,
                      PRECISION=0.001,),
                   _F(CHAM_GD=DEP,
                      NOEUD='NO15855',
                      NOM_CMP='DX',
                      VALE=0.0023537,
                      PRECISION=0.001,),
                   _F(CHAM_GD=DEP,
                      NOEUD='NO15855',
                      NOM_CMP='DY',
                      VALE=0.043551,
                      PRECISION=0.001,),
                   _F(CHAM_GD=DEP,
                      NOEUD='NO15855',
                      NOM_CMP='DZ',
                      VALE=-0.0045381,
                      PRECISION=0.001,),
                   _F(CHAM_GD=DEP,
                      NOEUD='NO15858',
                      NOM_CMP='DX',
                      VALE=0.0031725,
                      PRECISION=0.001,),
                   _F(CHAM_GD=DEP,
                      NOEUD='NO15858',
                      NOM_CMP='DY',
                      VALE=0.028244,
                      PRECISION=0.001,),
                   _F(CHAM_GD=DEP,
                      NOEUD='NO15858',
                      NOM_CMP='DZ',
                      VALE=-0.0029278,
                      PRECISION=0.001,),
                   _F(CHAM_GD=DEP,
                      NOEUD='NO15860',
                      NOM_CMP='DX',
                      VALE=0.0036759,
                      PRECISION=0.001,),
                   _F(CHAM_GD=DEP,
                      NOEUD='NO15860',
                      NOM_CMP='DY',
                      VALE=0.012585,
                      PRECISION=0.001,),
                   _F(CHAM_GD=DEP,
                      NOEUD='NO15860',
                      NOM_CMP='DZ',
                      VALE=-0.0012193,
                      PRECISION=0.001,),
                   _F(CHAM_GD=DEP,
                      NOEUD='NO15862',
                      NOM_CMP='DX',
                      VALE=0.0038304,
                      PRECISION=0.001,),
                   _F(CHAM_GD=DEP,
                      NOEUD='NO15862',
                      NOM_CMP='DY',
                      VALE=-0.0031278,
                      PRECISION=0.003,),
                   _F(CHAM_GD=DEP,
                      NOEUD='NO15862',
                      NOM_CMP='DZ',
                      VALE=0.0004832,
                      PRECISION=0.002,),
                   _F(CHAM_GD=DEP,
                      NOEUD='NO15863',
                      NOM_CMP='DX',
                      VALE=0.0035835,
                      PRECISION=0.001,),
                   _F(CHAM_GD=DEP,
                      NOEUD='NO15863',
                      NOM_CMP='DY',
                      VALE=-0.018953,
                      PRECISION=0.001,),
                   _F(CHAM_GD=DEP,
                      NOEUD='NO15863',
                      NOM_CMP='DZ',
                      VALE=0.0021508,
                      PRECISION=0.001,),
                   _F(CHAM_GD=DEP,
                      NOEUD='NO15868',
                      NOM_CMP='DX',
                      VALE=0.0029512,
                      PRECISION=0.001,),
                   _F(CHAM_GD=DEP,
                      NOEUD='NO15868',
                      NOM_CMP='DY',
                      VALE=-0.034851,
                      PRECISION=0.001,),
                   _F(CHAM_GD=DEP,
                      NOEUD='NO15868',
                      NOM_CMP='DZ',
                      VALE=0.0037679,
                      PRECISION=0.001,),
                   _F(CHAM_GD=DEP,
                      NOEUD='NO15869',
                      NOM_CMP='DX',
                      VALE=0.001734,
                      PRECISION=0.001,),
                   _F(CHAM_GD=DEP,
                      NOEUD='NO15869',
                      NOM_CMP='DY',
                      VALE=-0.050995,
                      PRECISION=0.001,),
                   _F(CHAM_GD=DEP,
                      NOEUD='NO15869',
                      NOM_CMP='DZ',
                      VALE=0.0049749,
                      PRECISION=0.001,),
                   _F(CHAM_GD=DEP,
                      NOEUD='NO15866',
                      NOM_CMP='DX',
                      VALE=0.0,
                      CRITERE='ABSOLU',
                      PRECISION=1e-07,),
                   _F(CHAM_GD=DEP,
                      NOEUD='NO15866',
                      NOM_CMP='DY',
                      VALE=-0.067226,
                      PRECISION=0.001,),
                   _F(CHAM_GD=DEP,
                      NOEUD='NO15866',
                      NOM_CMP='DZ',
                      VALE=0.0058204,
                      PRECISION=0.001,),),);

# VALEUR DU TENSEUR DES CONTRAINTES PROVENANT D'UN CALCUL PAR PERMAS

TEST_RESU(RESU=(_F(RESULTAT=RESU,
                   INST=0.0,
                   NOM_CHAM='SIGM_ELNO',
                   NOM_CMP='SIXX',
                   MAILLE='MA4204',
                   NOEUD='NO15854',
                   VALE=-3.5204,
                   PRECISION=0.015,),
                _F(RESULTAT=RESU,
                   INST=0.0,
                   NOM_CHAM='SIGM_ELNO',
                   NOM_CMP='SIXY',
                   MAILLE='MA4204',
                   NOEUD='NO15854',
                   VALE=-1.8101,
                   PRECISION=0.015,),
                _F(RESULTAT=RESU,
                   INST=0.0,
                   NOM_CHAM='SIGM_ELNO',
                   NOM_CMP='SIYY',
                   MAILLE='MA4204',
                   NOEUD='NO15854',
                   VALE=53.914,
                   PRECISION=0.001,),
                _F(RESULTAT=RESU,
                   INST=0.0,
                   NOM_CHAM='SIGM_ELNO',
                   NOM_CMP='SIXZ',
                   MAILLE='MA4204',
                   NOEUD='NO15854',
                   VALE=-0.715,
                   PRECISION=0.03,),
                _F(RESULTAT=RESU,
                   INST=0.0,
                   NOM_CHAM='SIGM_ELNO',
                   NOM_CMP='SIYZ',
                   MAILLE='MA4204',
                   NOEUD='NO15854',
                   VALE=-1.0373,
                   PRECISION=0.0056,),
                _F(RESULTAT=RESU,
                   INST=0.0,
                   NOM_CHAM='SIGM_ELNO',
                   NOM_CMP='SIZZ',
                   MAILLE='MA4204',
                   NOEUD='NO15854',
                   VALE=-1.0672,
                   PRECISION=0.065,),),);

# ----------------------------------------------------------------------
# GCP + LDLT_SP
KMATAS2=FACTORISER(MATR_ASSE=MATAS,PRE_COND='LDLT_SP');

DEP2=RESOUDRE(MATR=MATAS,
             CHAM_NO=VECAS,
             RESI_RELA=1.e-8,
             MATR_PREC=KMATAS2,
             NMAX_ITER=1000,
             INFO=2);

TEST_RESU(CHAM_NO=(_F(CHAM_GD=DEP2,
                      NOEUD='NO13943',
                      NOM_CMP='DX',
                      VALE=0.00065855,
                      PRECISION=0.003,),
                   _F(CHAM_GD=DEP2,
                      NOEUD='NO13943',
                      NOM_CMP='DY',
                      VALE=0.064428,
                      PRECISION=0.001,),
                   _F(CHAM_GD=DEP2,
                      NOEUD='NO13943',
                      NOM_CMP='DZ',
                      VALE=-0.0063926,
                      PRECISION=0.001,),
                   _F(CHAM_GD=DEP2,
                      NOEUD='NO13944',
                      NOM_CMP='DX',
                      VALE=0.00086831,
                      PRECISION=0.0025,),
                   _F(CHAM_GD=DEP2,
                      NOEUD='NO13944',
                      NOM_CMP='DY',
                      VALE=0.061357,
                      PRECISION=0.001,),
                   _F(CHAM_GD=DEP2,
                      NOEUD='NO13944',
                      NOM_CMP='DZ',
                      VALE=-0.0062244,
                      PRECISION=0.001,),
                   _F(CHAM_GD=DEP2,
                      NOEUD='NO15854',
                      NOM_CMP='DX',
                      VALE=0.0011315,
                      PRECISION=0.002,),
                   _F(CHAM_GD=DEP2,
                      NOEUD='NO15854',
                      NOM_CMP='DY',
                      VALE=0.058735,
                      PRECISION=0.001,),
                   _F(CHAM_GD=DEP2,
                      NOEUD='NO15854',
                      NOM_CMP='DZ',
                      VALE=-0.0060645,
                      PRECISION=0.001,),
                   _F(CHAM_GD=DEP2,
                      NOEUD='NO15855',
                      NOM_CMP='DX',
                      VALE=0.0023537,
                      PRECISION=0.001,),
                   _F(CHAM_GD=DEP2,
                      NOEUD='NO15855',
                      NOM_CMP='DY',
                      VALE=0.043551,
                      PRECISION=0.001,),
                   _F(CHAM_GD=DEP2,
                      NOEUD='NO15855',
                      NOM_CMP='DZ',
                      VALE=-0.0045381,
                      PRECISION=0.001,),
                   _F(CHAM_GD=DEP2,
                      NOEUD='NO15858',
                      NOM_CMP='DX',
                      VALE=0.0031725,
                      PRECISION=0.001,),
                   _F(CHAM_GD=DEP2,
                      NOEUD='NO15858',
                      NOM_CMP='DY',
                      VALE=0.028244,
                      PRECISION=0.001,),
                   _F(CHAM_GD=DEP2,
                      NOEUD='NO15858',
                      NOM_CMP='DZ',
                      VALE=-0.0029278,
                      PRECISION=0.001,),
                   _F(CHAM_GD=DEP2,
                      NOEUD='NO15860',
                      NOM_CMP='DX',
                      VALE=0.0036759,
                      PRECISION=0.001,),
                   _F(CHAM_GD=DEP2,
                      NOEUD='NO15860',
                      NOM_CMP='DY',
                      VALE=0.012585,
                      PRECISION=0.001,),
                   _F(CHAM_GD=DEP2,
                      NOEUD='NO15860',
                      NOM_CMP='DZ',
                      VALE=-0.0012193,
                      PRECISION=0.001,),
                   _F(CHAM_GD=DEP2,
                      NOEUD='NO15862',
                      NOM_CMP='DX',
                      VALE=0.0038304,
                      PRECISION=0.001,),
                   _F(CHAM_GD=DEP2,
                      NOEUD='NO15862',
                      NOM_CMP='DY',
                      VALE=-0.0031278,
                      PRECISION=0.003,),
                   _F(CHAM_GD=DEP2,
                      NOEUD='NO15862',
                      NOM_CMP='DZ',
                      VALE=0.0004832,
                      PRECISION=0.002,),
                   _F(CHAM_GD=DEP2,
                      NOEUD='NO15863',
                      NOM_CMP='DX',
                      VALE=0.0035835,
                      PRECISION=0.001,),
                   _F(CHAM_GD=DEP2,
                      NOEUD='NO15863',
                      NOM_CMP='DY',
                      VALE=-0.018953,
                      PRECISION=0.001,),
                   _F(CHAM_GD=DEP2,
                      NOEUD='NO15863',
                      NOM_CMP='DZ',
                      VALE=0.0021508,
                      PRECISION=0.001,),
                   _F(CHAM_GD=DEP2,
                      NOEUD='NO15868',
                      NOM_CMP='DX',
                      VALE=0.0029512,
                      PRECISION=0.001,),
                   _F(CHAM_GD=DEP2,
                      NOEUD='NO15868',
                      NOM_CMP='DY',
                      VALE=-0.034851,
                      PRECISION=0.001,),
                   _F(CHAM_GD=DEP2,
                      NOEUD='NO15868',
                      NOM_CMP='DZ',
                      VALE=0.0037679,
                      PRECISION=0.001,),
                   _F(CHAM_GD=DEP2,
                      NOEUD='NO15869',
                      NOM_CMP='DX',
                      VALE=0.001734,
                      PRECISION=0.001,),
                   _F(CHAM_GD=DEP2,
                      NOEUD='NO15869',
                      NOM_CMP='DY',
                      VALE=-0.050995,
                      PRECISION=0.001,),
                   _F(CHAM_GD=DEP2,
                      NOEUD='NO15869',
                      NOM_CMP='DZ',
                      VALE=0.0049749,
                      PRECISION=0.001,),
                   _F(CHAM_GD=DEP2,
                      NOEUD='NO15866',
                      NOM_CMP='DX',
                      VALE=0.0,
                      CRITERE='ABSOLU',
                      PRECISION=1e-07,),
                   _F(CHAM_GD=DEP2,
                      NOEUD='NO15866',
                      NOM_CMP='DY',
                      VALE=-0.067226,
                      PRECISION=0.001,),
                   _F(CHAM_GD=DEP2,
                      NOEUD='NO15866',
                      NOM_CMP='DZ',
                      VALE=0.0058204,
                      PRECISION=0.001,),),);

FIN();

#

