# MODIF  DATE 25/02/2013   AUTEUR SELLENET N.SELLENET 
# TITRE DSR3 SANS RENUM/AFFE_CHAR_MECA/MECA_STAT(GCPC)
# gcpc002c.para = tps_job 250 mem_job 1024Mo ncpus 1 liste_test S
#            CONFIGURATION MANAGEMENT OF EDF VERSION
# ======================================================================
# COPYRIGHT (C) 1991 - 2013  EDF R&D                  WWW.CODE-ASTER.ORG
# THIS PROGRAM IS FREE SOFTWARE; YOU CAN REDISTRIBUTE IT AND/OR MODIFY
# IT UNDER THE TERMS OF THE GNU GENERAL PUBLIC LICENSE AS PUBLISHED BY
# THE FREE SOFTWARE FOUNDATION; EITHER VERSION 2 OF THE LICENSE, OR
# (AT YOUR OPTION) ANY LATER VERSION.
#
# THIS PROGRAM IS DISTRIBUTED IN THE HOPE THAT IT WILL BE USEFUL, BUT
# WITHOUT ANY WARRANTY; WITHOUT EVEN THE IMPLIED WARRANTY OF
# MERCHANTABILITY OR FITNESS FOR A PARTICULAR PURPOSE. SEE THE GNU
# GENERAL PUBLIC LICENSE FOR MORE DETAILS.
#
# YOU SHOULD HAVE RECEIVED A COPY OF THE GNU GENERAL PUBLIC LICENSE
# ALONG WITH THIS PROGRAM; IF NOT, WRITE TO EDF R&D CODE_ASTER,
#    1 AVENUE DU GENERAL DE GAULLE, 92141 CLAMART CEDEX, FRANCE.
# ======================================================================
# TEST DE PERFORMANCE ANCIENNEMENT NOMME SSLV130K

DEBUT(CODE=_F(NOM='GCPC002C',
NIV_PUB_WEB='INTERNET',),DEBUG=_F(SDVERI='OUI'))

MA=LIRE_MAILLAGE(FORMAT='MED',);

MO=AFFE_MODELE(MAILLAGE=MA,
               AFFE=_F(TOUT='OUI',
                       PHENOMENE='MECANIQUE',
                       MODELISATION='3D',),);

MAT=DEFI_MATERIAU(ELAS=_F(E=210000.0,
                          NU=.3,),);

CHMAT=AFFE_MATERIAU(MAILLAGE=MA,
                    AFFE=_F(TOUT='OUI',
                            MATER=MAT,),);

CHA1=AFFE_CHAR_MECA(MODELE=MO,
                   DDL_IMPO=(_F(GROUP_NO='SUPY',
                                 DY=0.,),
                              _F(GROUP_NO='APPUI',
                                 DX=0.,),),);

CHA2=AFFE_CHAR_CINE(MODELE=MO,
                   MECA_IMPO=(_F(GROUP_NO='SUPZ',
                                 DZ=0.,),
                              _F(GROUP_NO='CHARGE',
                                 DX=-1.,),),);

# ----------------------------------------------------------------------

VECAS=MECA_STATIQUE(MODELE=MO,
                    INFO=2,
                    CHAM_MATER=CHMAT,
                    EXCIT=(_F(CHARGE=CHA1,),
                           _F(CHARGE=CHA2,),),
                    SOLVEUR=_F(METHODE='GCPC',
                               PRE_COND='LDLT_INC',
                               NIVE_REMPLISSAGE=1,
                               RENUM='SANS',
                               RESI_RELA=1.E-10,
                               NMAX_ITER=0,),);

VECAS=CALC_CHAMP(reuse=VECAS,RESULTAT=VECAS,CONTRAINTE=('SIGM_ELNO'))


VECAS2=MECA_STATIQUE(MODELE=MO,
                    CHAM_MATER=CHMAT,
                    EXCIT=(_F(CHARGE=CHA1,),
                           _F(CHARGE=CHA2,),),
                    SOLVEUR=_F(METHODE='GCPC',
                               PRE_COND='LDLT_SP',
                               RESI_RELA=1.E-10,
                               NMAX_ITER=0,),);

# ----------------------------------------------------------------------
# GCP + LDLT_INC

TEST_RESU(RESU=(_F(NUME_ORDRE=1,
                   REFERENCE='SOURCE_EXTERNE',
                   RESULTAT=VECAS,
                   NOM_CHAM='DEPL',
                   NOEUD='NO13943',
                   NOM_CMP='DX',
                   VALE_CALC= 6.58548947E-04,
                   VALE_REFE=6.5855000000000004E-4,
                   PRECISION=1.E-3,),
                _F(NUME_ORDRE=1,
                   REFERENCE='SOURCE_EXTERNE',
                   RESULTAT=VECAS,
                   NOM_CHAM='DEPL',
                   NOEUD='NO13943',
                   NOM_CMP='DY',
                   VALE_CALC=0.064427714,
                   VALE_REFE=0.064427999999999999,
                   PRECISION=1.E-3,),
                _F(NUME_ORDRE=1,
                   REFERENCE='SOURCE_EXTERNE',
                   RESULTAT=VECAS,
                   NOM_CHAM='DEPL',
                   NOEUD='NO13943',
                   NOM_CMP='DZ',
                   VALE_CALC=-6.39262971E-03,
                   VALE_REFE=-6.3926E-3,
                   PRECISION=1.E-3,),
                _F(NUME_ORDRE=1,
                   REFERENCE='SOURCE_EXTERNE',
                   RESULTAT=VECAS,
                   NOM_CHAM='DEPL',
                   NOEUD='NO13944',
                   NOM_CMP='DX',
                   VALE_CALC= 8.68313360E-04,
                   VALE_REFE=8.6830999999999996E-4,
                   PRECISION=1.E-3,),
                _F(NUME_ORDRE=1,
                   REFERENCE='SOURCE_EXTERNE',
                   RESULTAT=VECAS,
                   NOM_CHAM='DEPL',
                   NOEUD='NO13944',
                   NOM_CMP='DY',
                   VALE_CALC=0.061356724,
                   VALE_REFE=0.061357000000000002,
                   PRECISION=1.E-3,),
                _F(NUME_ORDRE=1,
                   REFERENCE='SOURCE_EXTERNE',
                   RESULTAT=VECAS,
                   NOM_CHAM='DEPL',
                   NOEUD='NO13944',
                   NOM_CMP='DZ',
                   VALE_CALC=-6.22435434E-03,
                   VALE_REFE=-6.2243999999999997E-3,
                   PRECISION=1.E-3,),
                _F(NUME_ORDRE=1,
                   REFERENCE='SOURCE_EXTERNE',
                   RESULTAT=VECAS,
                   NOM_CHAM='DEPL',
                   NOEUD='NO15854',
                   NOM_CMP='DX',
                   VALE_CALC= 1.13148283E-03,
                   VALE_REFE=1.1314999999999999E-3,
                   PRECISION=1.E-3,),
                _F(NUME_ORDRE=1,
                   REFERENCE='SOURCE_EXTERNE',
                   RESULTAT=VECAS,
                   NOM_CHAM='DEPL',
                   NOEUD='NO15854',
                   NOM_CMP='DY',
                   VALE_CALC=0.058734956,
                   VALE_REFE=0.058735000000000002,
                   PRECISION=1.E-3,),
                _F(NUME_ORDRE=1,
                   REFERENCE='SOURCE_EXTERNE',
                   RESULTAT=VECAS,
                   NOM_CHAM='DEPL',
                   NOEUD='NO15854',
                   NOM_CMP='DZ',
                   VALE_CALC=-6.06448789E-03,
                   VALE_REFE=-6.0644999999999996E-3,
                   PRECISION=1.E-3,),
                _F(NUME_ORDRE=1,
                   REFERENCE='SOURCE_EXTERNE',
                   RESULTAT=VECAS,
                   NOM_CHAM='DEPL',
                   NOEUD='NO15855',
                   NOM_CMP='DX',
                   VALE_CALC= 2.35371052E-03,
                   VALE_REFE=2.3536999999999998E-3,
                   PRECISION=1.E-3,),
                _F(NUME_ORDRE=1,
                   REFERENCE='SOURCE_EXTERNE',
                   RESULTAT=VECAS,
                   NOM_CHAM='DEPL',
                   NOEUD='NO15855',
                   NOM_CMP='DY',
                   VALE_CALC=0.043550934,
                   VALE_REFE=0.043550999999999999,
                   PRECISION=1.E-3,),
                _F(NUME_ORDRE=1,
                   REFERENCE='SOURCE_EXTERNE',
                   RESULTAT=VECAS,
                   NOM_CHAM='DEPL',
                   NOEUD='NO15855',
                   NOM_CMP='DZ',
                   VALE_CALC=-4.53808740E-03,
                   VALE_REFE=-4.5380999999999998E-3,
                   PRECISION=1.E-3,),
                _F(NUME_ORDRE=1,
                   REFERENCE='SOURCE_EXTERNE',
                   RESULTAT=VECAS,
                   NOM_CHAM='DEPL',
                   NOEUD='NO15858',
                   NOM_CMP='DX',
                   VALE_CALC= 3.17245366E-03,
                   VALE_REFE=3.1725E-3,
                   PRECISION=1.E-3,),
                _F(NUME_ORDRE=1,
                   REFERENCE='SOURCE_EXTERNE',
                   RESULTAT=VECAS,
                   NOM_CHAM='DEPL',
                   NOEUD='NO15858',
                   NOM_CMP='DY',
                   VALE_CALC=0.028244377,
                   VALE_REFE=0.028243999999999998,
                   PRECISION=1.E-3,),
                _F(NUME_ORDRE=1,
                   REFERENCE='SOURCE_EXTERNE',
                   RESULTAT=VECAS,
                   NOM_CHAM='DEPL',
                   NOEUD='NO15858',
                   NOM_CMP='DZ',
                   VALE_CALC=-2.92784181E-03,
                   VALE_REFE=-2.9277999999999999E-3,
                   PRECISION=1.E-3,),
                _F(NUME_ORDRE=1,
                   REFERENCE='SOURCE_EXTERNE',
                   RESULTAT=VECAS,
                   NOM_CHAM='DEPL',
                   NOEUD='NO15860',
                   NOM_CMP='DX',
                   VALE_CALC= 3.67588218E-03,
                   VALE_REFE=3.6759000000000002E-3,
                   PRECISION=1.E-3,),
                _F(NUME_ORDRE=1,
                   REFERENCE='SOURCE_EXTERNE',
                   RESULTAT=VECAS,
                   NOM_CHAM='DEPL',
                   NOEUD='NO15860',
                   NOM_CMP='DY',
                   VALE_CALC=0.012584550,
                   VALE_REFE=0.012585000000000001,
                   PRECISION=1.E-3,),
                _F(NUME_ORDRE=1,
                   REFERENCE='SOURCE_EXTERNE',
                   RESULTAT=VECAS,
                   NOM_CHAM='DEPL',
                   NOEUD='NO15860',
                   NOM_CMP='DZ',
                   VALE_CALC=-1.21932659E-03,
                   VALE_REFE=-1.2193E-3,
                   PRECISION=1.E-3,),
                _F(NUME_ORDRE=1,
                   REFERENCE='SOURCE_EXTERNE',
                   RESULTAT=VECAS,
                   NOM_CHAM='DEPL',
                   NOEUD='NO15862',
                   NOM_CMP='DX',
                   VALE_CALC= 3.83042030E-03,
                   VALE_REFE=3.8303999999999999E-3,
                   PRECISION=1.E-3,),
                _F(NUME_ORDRE=1,
                   REFERENCE='SOURCE_EXTERNE',
                   RESULTAT=VECAS,
                   NOM_CHAM='DEPL',
                   NOEUD='NO15862',
                   NOM_CMP='DY',
                   VALE_CALC=-3.12782553E-03,
                   VALE_REFE=-3.1278E-3,
                   PRECISION=1.E-3,),
                _F(NUME_ORDRE=1,
                   REFERENCE='SOURCE_EXTERNE',
                   RESULTAT=VECAS,
                   NOM_CHAM='DEPL',
                   NOEUD='NO15862',
                   NOM_CMP='DZ',
                   VALE_CALC= 4.83199552E-04,
                   VALE_REFE=4.8319999999999998E-4,
                   PRECISION=1.E-3,),
                _F(NUME_ORDRE=1,
                   REFERENCE='SOURCE_EXTERNE',
                   RESULTAT=VECAS,
                   NOM_CHAM='DEPL',
                   NOEUD='NO15863',
                   NOM_CMP='DX',
                   VALE_CALC= 3.58353237E-03,
                   VALE_REFE=3.5834999999999999E-3,
                   PRECISION=1.E-3,),
                _F(NUME_ORDRE=1,
                   REFERENCE='SOURCE_EXTERNE',
                   RESULTAT=VECAS,
                   NOM_CHAM='DEPL',
                   NOEUD='NO15863',
                   NOM_CMP='DY',
                   VALE_CALC=-0.018952798,
                   VALE_REFE=-0.018953000000000001,
                   PRECISION=1.E-3,),
                _F(NUME_ORDRE=1,
                   REFERENCE='SOURCE_EXTERNE',
                   RESULTAT=VECAS,
                   NOM_CHAM='DEPL',
                   NOEUD='NO15863',
                   NOM_CMP='DZ',
                   VALE_CALC= 2.15082919E-03,
                   VALE_REFE=2.1508E-3,
                   PRECISION=1.E-3,),
                _F(NUME_ORDRE=1,
                   REFERENCE='SOURCE_EXTERNE',
                   RESULTAT=VECAS,
                   NOM_CHAM='DEPL',
                   NOEUD='NO15868',
                   NOM_CMP='DX',
                   VALE_CALC= 2.95115701E-03,
                   VALE_REFE=2.9512000000000002E-3,
                   PRECISION=1.E-3,),
                _F(NUME_ORDRE=1,
                   REFERENCE='SOURCE_EXTERNE',
                   RESULTAT=VECAS,
                   NOM_CHAM='DEPL',
                   NOEUD='NO15868',
                   NOM_CMP='DY',
                   VALE_CALC=-0.034850956,
                   VALE_REFE=-0.034851,
                   PRECISION=1.E-3,),
                _F(NUME_ORDRE=1,
                   REFERENCE='SOURCE_EXTERNE',
                   RESULTAT=VECAS,
                   NOM_CHAM='DEPL',
                   NOEUD='NO15868',
                   NOM_CMP='DZ',
                   VALE_CALC= 3.76792443E-03,
                   VALE_REFE=3.7678999999999998E-3,
                   PRECISION=1.E-3,),
                _F(NUME_ORDRE=1,
                   REFERENCE='SOURCE_EXTERNE',
                   RESULTAT=VECAS,
                   NOM_CHAM='DEPL',
                   NOEUD='NO15869',
                   NOM_CMP='DX',
                   VALE_CALC= 1.73396378E-03,
                   VALE_REFE=1.7340000000000001E-3,
                   PRECISION=1.E-3,),
                _F(NUME_ORDRE=1,
                   REFERENCE='SOURCE_EXTERNE',
                   RESULTAT=VECAS,
                   NOM_CHAM='DEPL',
                   NOEUD='NO15869',
                   NOM_CMP='DY',
                   VALE_CALC=-0.050995006,
                   VALE_REFE=-0.050994999999999999,
                   PRECISION=1.E-3,),
                _F(NUME_ORDRE=1,
                   REFERENCE='SOURCE_EXTERNE',
                   RESULTAT=VECAS,
                   NOM_CHAM='DEPL',
                   NOEUD='NO15869',
                   NOM_CMP='DZ',
                   VALE_CALC= 4.97486876E-03,
                   VALE_REFE=4.9749E-3,
                   PRECISION=1.E-3,),
                _F(NUME_ORDRE=1,
                   REFERENCE='SOURCE_EXTERNE',
                   RESULTAT=VECAS,
                   NOM_CHAM='DEPL',
                   NOEUD='NO15866',
                   NOM_CMP='DX',
                   VALE_CALC= 5.6053144942E-13,
                   VALE_REFE=0.0,
                   TOLE_MACHINE=1.E-10,
                   CRITERE='ABSOLU',
                   PRECISION=1.E-10,),
                _F(NUME_ORDRE=1,
                   REFERENCE='SOURCE_EXTERNE',
                   RESULTAT=VECAS,
                   NOM_CHAM='DEPL',
                   NOEUD='NO15866',
                   NOM_CMP='DY',
                   VALE_CALC=-0.067225995,
                   VALE_REFE=-0.067225999999999994,
                   PRECISION=1.E-3,),
                _F(NUME_ORDRE=1,
                   REFERENCE='SOURCE_EXTERNE',
                   RESULTAT=VECAS,
                   NOM_CHAM='DEPL',
                   NOEUD='NO15866',
                   NOM_CMP='DZ',
                   VALE_CALC= 5.82039497E-03,
                   VALE_REFE=5.8203999999999999E-3,
                   PRECISION=1.E-3,),
                ),
          )

TEST_RESU(RESU=(_F(NUME_ORDRE=1,
                   PARA='ITER_GCPC',
                   VALE_CALC_I=0,
                   VALE_REFE_I=0,
                   REFERENCE='NON_DEFINI',
                   RESULTAT=VECAS,
                   CRITERE='ABSOLU',
                   TOLE_MACHINE=560.0,
                   PRECISION=560.0,),
                _F(NUME_ORDRE=1,
                   PARA='RESI_GCPC',
                   REFERENCE='NON_DEFINI',
                   RESULTAT=VECAS,
                   VALE_CALC=5.2637140308354E-03,
                   VALE_REFE=0.0,
                   CRITERE='ABSOLU',
                   TOLE_MACHINE=2.e-3,
                   PRECISION=0.40000000000000002,),
                ),
          )

# VALEUR DU TENSEUR DES CONTRAINTES PROVENANT D'UN CALCUL PAR PERMAS

TEST_RESU(RESU=(_F(NUME_ORDRE=1,
                   REFERENCE='SOURCE_EXTERNE',
                   RESULTAT=VECAS,
                   NOM_CHAM='SIGM_ELNO',
                   NOEUD='NO15854',
                   NOM_CMP='SIXX',
                   VALE_CALC=-3.554610839,
                   VALE_REFE=-3.5204,
                   PRECISION=1.E-2,
                   MAILLE='MA4204',),
                _F(NUME_ORDRE=1,
                   REFERENCE='SOURCE_EXTERNE',
                   RESULTAT=VECAS,
                   NOM_CHAM='SIGM_ELNO',
                   NOEUD='NO15854',
                   NOM_CMP='SIXY',
                   VALE_CALC=-1.785564679,
                   VALE_REFE=-1.8101,
                   PRECISION=0.014999999999999999,
                   MAILLE='MA4204',),
                _F(NUME_ORDRE=1,
                   REFERENCE='SOURCE_EXTERNE',
                   RESULTAT=VECAS,
                   NOM_CHAM='SIGM_ELNO',
                   NOEUD='NO15854',
                   NOM_CMP='SIYY',
                   VALE_CALC=53.884005002,
                   VALE_REFE=53.914000000000001,
                   PRECISION=1.E-3,
                   MAILLE='MA4204',),
                _F(NUME_ORDRE=1,
                   REFERENCE='SOURCE_EXTERNE',
                   RESULTAT=VECAS,
                   NOM_CHAM='SIGM_ELNO',
                   NOEUD='NO15854',
                   NOM_CMP='SIXZ',
                   VALE_CALC=-0.695906833,
                   VALE_REFE=-0.71499999999999997,
                   PRECISION=0.029999999999999999,
                   MAILLE='MA4204',),
                _F(NUME_ORDRE=1,
                   REFERENCE='SOURCE_EXTERNE',
                   RESULTAT=VECAS,
                   NOM_CHAM='SIGM_ELNO',
                   NOEUD='NO15854',
                   NOM_CMP='SIYZ',
                   VALE_CALC=-1.034843235,
                   VALE_REFE=-1.0373000000000001,
                   PRECISION=5.0000000000000001E-3,
                   MAILLE='MA4204',),
                _F(NUME_ORDRE=1,
                   REFERENCE='SOURCE_EXTERNE',
                   RESULTAT=VECAS,
                   NOM_CHAM='SIGM_ELNO',
                   NOEUD='NO15854',
                   NOM_CMP='SIZZ',
                   VALE_CALC=-1.131938937,
                   VALE_REFE=-1.0671999999999999,
                   PRECISION=0.065000000000000002,
                   MAILLE='MA4204',),
                ),
          )

# ----------------------------------------------------------------------
# GCP + LDLT_SP

TEST_RESU(RESU=(_F(NUME_ORDRE=1,
                   REFERENCE='SOURCE_EXTERNE',
                   RESULTAT=VECAS2,
                   NOM_CHAM='DEPL',
                   NOEUD='NO13943',
                   NOM_CMP='DX',
                   VALE_CALC= 6.58548949E-04,
                   VALE_REFE=6.5855000000000004E-4,
                   PRECISION=1.E-3,),
                _F(NUME_ORDRE=1,
                   REFERENCE='SOURCE_EXTERNE',
                   RESULTAT=VECAS2,
                   NOM_CHAM='DEPL',
                   NOEUD='NO13943',
                   NOM_CMP='DY',
                   VALE_CALC=0.064427714,
                   VALE_REFE=0.064427999999999999,
                   PRECISION=1.E-3,),
                _F(NUME_ORDRE=1,
                   REFERENCE='SOURCE_EXTERNE',
                   RESULTAT=VECAS2,
                   NOM_CHAM='DEPL',
                   NOEUD='NO13943',
                   NOM_CMP='DZ',
                   VALE_CALC=-6.39262971E-03,
                   VALE_REFE=-6.3926E-3,
                   PRECISION=1.E-3,),
                _F(NUME_ORDRE=1,
                   REFERENCE='SOURCE_EXTERNE',
                   RESULTAT=VECAS2,
                   NOM_CHAM='DEPL',
                   NOEUD='NO13944',
                   NOM_CMP='DX',
                   VALE_CALC= 8.68313363E-04,
                   VALE_REFE=8.6830999999999996E-4,
                   PRECISION=1.E-3,),
                _F(NUME_ORDRE=1,
                   REFERENCE='SOURCE_EXTERNE',
                   RESULTAT=VECAS2,
                   NOM_CHAM='DEPL',
                   NOEUD='NO13944',
                   NOM_CMP='DY',
                   VALE_CALC=0.061356724,
                   VALE_REFE=0.061357000000000002,
                   PRECISION=1.E-3,),
                _F(NUME_ORDRE=1,
                   REFERENCE='SOURCE_EXTERNE',
                   RESULTAT=VECAS2,
                   NOM_CHAM='DEPL',
                   NOEUD='NO13944',
                   NOM_CMP='DZ',
                   VALE_CALC=-6.22435435E-03,
                   VALE_REFE=-6.2243999999999997E-3,
                   PRECISION=1.E-3,),
                _F(NUME_ORDRE=1,
                   REFERENCE='SOURCE_EXTERNE',
                   RESULTAT=VECAS2,
                   NOM_CHAM='DEPL',
                   NOEUD='NO15854',
                   NOM_CMP='DX',
                   VALE_CALC= 1.13148283E-03,
                   VALE_REFE=1.1314999999999999E-3,
                   PRECISION=1.E-3,),
                _F(NUME_ORDRE=1,
                   REFERENCE='SOURCE_EXTERNE',
                   RESULTAT=VECAS2,
                   NOM_CHAM='DEPL',
                   NOEUD='NO15854',
                   NOM_CMP='DY',
                   VALE_CALC=0.058734956,
                   VALE_REFE=0.058735000000000002,
                   PRECISION=1.E-3,),
                _F(NUME_ORDRE=1,
                   REFERENCE='SOURCE_EXTERNE',
                   RESULTAT=VECAS2,
                   NOM_CHAM='DEPL',
                   NOEUD='NO15854',
                   NOM_CMP='DZ',
                   VALE_CALC=-6.06448790E-03,
                   VALE_REFE=-6.0644999999999996E-3,
                   PRECISION=1.E-3,),
                _F(NUME_ORDRE=1,
                   REFERENCE='SOURCE_EXTERNE',
                   RESULTAT=VECAS2,
                   NOM_CHAM='DEPL',
                   NOEUD='NO15855',
                   NOM_CMP='DX',
                   VALE_CALC= 2.35371053E-03,
                   VALE_REFE=2.3536999999999998E-3,
                   PRECISION=1.E-3,),
                _F(NUME_ORDRE=1,
                   REFERENCE='SOURCE_EXTERNE',
                   RESULTAT=VECAS2,
                   NOM_CHAM='DEPL',
                   NOEUD='NO15855',
                   NOM_CMP='DY',
                   VALE_CALC=0.043550934,
                   VALE_REFE=0.043550999999999999,
                   PRECISION=1.E-3,),
                _F(NUME_ORDRE=1,
                   REFERENCE='SOURCE_EXTERNE',
                   RESULTAT=VECAS2,
                   NOM_CHAM='DEPL',
                   NOEUD='NO15855',
                   NOM_CMP='DZ',
                   VALE_CALC=-4.53808741E-03,
                   VALE_REFE=-4.5380999999999998E-3,
                   PRECISION=1.E-3,),
                _F(NUME_ORDRE=1,
                   REFERENCE='SOURCE_EXTERNE',
                   RESULTAT=VECAS2,
                   NOM_CHAM='DEPL',
                   NOEUD='NO15858',
                   NOM_CMP='DX',
                   VALE_CALC= 3.17245366E-03,
                   VALE_REFE=3.1725E-3,
                   PRECISION=1.E-3,),
                _F(NUME_ORDRE=1,
                   REFERENCE='SOURCE_EXTERNE',
                   RESULTAT=VECAS2,
                   NOM_CHAM='DEPL',
                   NOEUD='NO15858',
                   NOM_CMP='DY',
                   VALE_CALC=0.028244377,
                   VALE_REFE=0.028243999999999998,
                   PRECISION=1.E-3,),
                _F(NUME_ORDRE=1,
                   REFERENCE='SOURCE_EXTERNE',
                   RESULTAT=VECAS2,
                   NOM_CHAM='DEPL',
                   NOEUD='NO15858',
                   NOM_CMP='DZ',
                   VALE_CALC=-2.92784181E-03,
                   VALE_REFE=-2.9277999999999999E-3,
                   PRECISION=1.E-3,),
                _F(NUME_ORDRE=1,
                   REFERENCE='SOURCE_EXTERNE',
                   RESULTAT=VECAS2,
                   NOM_CHAM='DEPL',
                   NOEUD='NO15860',
                   NOM_CMP='DX',
                   VALE_CALC= 3.67588217E-03,
                   VALE_REFE=3.6759000000000002E-3,
                   PRECISION=1.E-3,),
                _F(NUME_ORDRE=1,
                   REFERENCE='SOURCE_EXTERNE',
                   RESULTAT=VECAS2,
                   NOM_CHAM='DEPL',
                   NOEUD='NO15860',
                   NOM_CMP='DY',
                   VALE_CALC=0.012584550,
                   VALE_REFE=0.012585000000000001,
                   PRECISION=1.E-3,),
                _F(NUME_ORDRE=1,
                   REFERENCE='SOURCE_EXTERNE',
                   RESULTAT=VECAS2,
                   NOM_CHAM='DEPL',
                   NOEUD='NO15860',
                   NOM_CMP='DZ',
                   VALE_CALC=-1.21932659E-03,
                   VALE_REFE=-1.2193E-3,
                   PRECISION=1.E-3,),
                _F(NUME_ORDRE=1,
                   REFERENCE='SOURCE_EXTERNE',
                   RESULTAT=VECAS2,
                   NOM_CHAM='DEPL',
                   NOEUD='NO15862',
                   NOM_CMP='DX',
                   VALE_CALC= 3.83042030E-03,
                   VALE_REFE=3.8303999999999999E-3,
                   PRECISION=1.E-3,),
                _F(NUME_ORDRE=1,
                   REFERENCE='SOURCE_EXTERNE',
                   RESULTAT=VECAS2,
                   NOM_CHAM='DEPL',
                   NOEUD='NO15862',
                   NOM_CMP='DY',
                   VALE_CALC=-3.12782552E-03,
                   VALE_REFE=-3.1278E-3,
                   PRECISION=1.E-3,),
                _F(NUME_ORDRE=1,
                   REFERENCE='SOURCE_EXTERNE',
                   RESULTAT=VECAS2,
                   NOM_CHAM='DEPL',
                   NOEUD='NO15862',
                   NOM_CMP='DZ',
                   VALE_CALC= 4.83199556E-04,
                   VALE_REFE=4.8319999999999998E-4,
                   PRECISION=1.E-3,),
                _F(NUME_ORDRE=1,
                   REFERENCE='SOURCE_EXTERNE',
                   RESULTAT=VECAS2,
                   NOM_CHAM='DEPL',
                   NOEUD='NO15863',
                   NOM_CMP='DX',
                   VALE_CALC= 3.58353237E-03,
                   VALE_REFE=3.5834999999999999E-3,
                   PRECISION=1.E-3,),
                _F(NUME_ORDRE=1,
                   REFERENCE='SOURCE_EXTERNE',
                   RESULTAT=VECAS2,
                   NOM_CHAM='DEPL',
                   NOEUD='NO15863',
                   NOM_CMP='DY',
                   VALE_CALC=-0.018952798,
                   VALE_REFE=-0.018953000000000001,
                   PRECISION=1.E-3,),
                _F(NUME_ORDRE=1,
                   REFERENCE='SOURCE_EXTERNE',
                   RESULTAT=VECAS2,
                   NOM_CHAM='DEPL',
                   NOEUD='NO15863',
                   NOM_CMP='DZ',
                   VALE_CALC= 2.15082919E-03,
                   VALE_REFE=2.1508E-3,
                   PRECISION=1.E-3,),
                _F(NUME_ORDRE=1,
                   REFERENCE='SOURCE_EXTERNE',
                   RESULTAT=VECAS2,
                   NOM_CHAM='DEPL',
                   NOEUD='NO15868',
                   NOM_CMP='DX',
                   VALE_CALC= 2.95115701E-03,
                   VALE_REFE=2.9512000000000002E-3,
                   PRECISION=1.E-3,),
                _F(NUME_ORDRE=1,
                   REFERENCE='SOURCE_EXTERNE',
                   RESULTAT=VECAS2,
                   NOM_CHAM='DEPL',
                   NOEUD='NO15868',
                   NOM_CMP='DY',
                   VALE_CALC=-0.034850956,
                   VALE_REFE=-0.034851,
                   PRECISION=1.E-3,),
                _F(NUME_ORDRE=1,
                   REFERENCE='SOURCE_EXTERNE',
                   RESULTAT=VECAS2,
                   NOM_CHAM='DEPL',
                   NOEUD='NO15868',
                   NOM_CMP='DZ',
                   VALE_CALC= 3.76792443E-03,
                   VALE_REFE=3.7678999999999998E-3,
                   PRECISION=1.E-3,),
                _F(NUME_ORDRE=1,
                   REFERENCE='SOURCE_EXTERNE',
                   RESULTAT=VECAS2,
                   NOM_CHAM='DEPL',
                   NOEUD='NO15869',
                   NOM_CMP='DX',
                   VALE_CALC= 1.73396378E-03,
                   VALE_REFE=1.7340000000000001E-3,
                   PRECISION=1.E-3,),
                _F(NUME_ORDRE=1,
                   REFERENCE='SOURCE_EXTERNE',
                   RESULTAT=VECAS2,
                   NOM_CHAM='DEPL',
                   NOEUD='NO15869',
                   NOM_CMP='DY',
                   VALE_CALC=-0.050995006,
                   VALE_REFE=-0.050994999999999999,
                   PRECISION=1.E-3,),
                _F(NUME_ORDRE=1,
                   REFERENCE='SOURCE_EXTERNE',
                   RESULTAT=VECAS2,
                   NOM_CHAM='DEPL',
                   NOEUD='NO15869',
                   NOM_CMP='DZ',
                   VALE_CALC= 4.97486876E-03,
                   VALE_REFE=4.9749E-3,
                   PRECISION=1.E-3,),
                _F(NUME_ORDRE=1,
                   REFERENCE='SOURCE_EXTERNE',
                   RESULTAT=VECAS2,
                   NOM_CHAM='DEPL',
                   NOEUD='NO15866',
                   NOM_CMP='DX',
                   VALE_CALC=-6.3888981839E-16,
                   VALE_REFE=0.0,
                   TOLE_MACHINE=1.E-10,
                   CRITERE='ABSOLU',
                   PRECISION=1.E-10,),
                _F(NUME_ORDRE=1,
                   REFERENCE='SOURCE_EXTERNE',
                   RESULTAT=VECAS2,
                   NOM_CHAM='DEPL',
                   NOEUD='NO15866',
                   NOM_CMP='DY',
                   VALE_CALC=-0.067225995,
                   VALE_REFE=-0.067225999999999994,
                   PRECISION=1.E-3,),
                _F(NUME_ORDRE=1,
                   REFERENCE='SOURCE_EXTERNE',
                   RESULTAT=VECAS2,
                   NOM_CHAM='DEPL',
                   NOEUD='NO15866',
                   NOM_CMP='DZ',
                   VALE_CALC= 5.82039496E-03,
                   VALE_REFE=5.8203999999999999E-3,
                   PRECISION=1.E-3,),
                ),
          )

TEST_RESU(RESU=(_F(NUME_ORDRE=1,
                   PARA='ITER_GCPC',
                   VALE_CALC_I=3,
                   VALE_REFE_I=0,
                   REFERENCE='NON_DEFINI',
                   RESULTAT=VECAS2,
                   CRITERE='ABSOLU',
                   PRECISION=520.0,),
                _F(NUME_ORDRE=1,
                   PARA='RESI_GCPC',
                   REFERENCE='NON_DEFINI',
                   RESULTAT=VECAS2,
                   VALE_CALC=0.0,
                   VALE_REFE=0.0,
                   CRITERE='ABSOLU',
                   TOLE_MACHINE=2.e-4,
                   PRECISION=0.40000000000000002,),
                ),
          )

FIN();
