# TITRE  DSR3 - SANS RENUM / AFFE_CHAR_MECA / SOLVE
# ======================================================================
# COPYRIGHT (C) 1991 - 2012  EDF R&D                  WWW.CODE-ASTER.ORG
# THIS PROGRAM IS FREE SOFTWARE; YOU CAN REDISTRIBUTE IT AND/OR MODIFY
# IT UNDER THE TERMS OF THE GNU GENERAL PUBLIC LICENSE AS PUBLISHED BY
# THE FREE SOFTWARE FOUNDATION; EITHER VERSION 2 OF THE LICENSE, OR
# (AT YOUR OPTION) ANY LATER VERSION.
#
# THIS PROGRAM IS DISTRIBUTED IN THE HOPE THAT IT WILL BE USEFUL, BUT
# WITHOUT ANY WARRANTY; WITHOUT EVEN THE IMPLIED WARRANTY OF
# MERCHANTABILITY OR FITNESS FOR A PARTICULAR PURPOSE. SEE THE GNU
# GENERAL PUBLIC LICENSE FOR MORE DETAILS.
#
# YOU SHOULD HAVE RECEIVED A COPY OF THE GNU GENERAL PUBLIC LICENSE
# ALONG WITH THIS PROGRAM; IF NOT, WRITE TO EDF R&D CODE_ASTER,
#    1 AVENUE DU GENERAL DE GAULLE, 92141 CLAMART CEDEX, FRANCE.
# ======================================================================
# TEST DE PERFORMANCE ANCIENNEMENT NOMME SSLV130E
# AUJOURD'HUI, CE TEST SERT A VALIDER LDLT_SP

DEBUT(CODE=_F(NOM='GCPC002A',
NIV_PUB_WEB='INTERNET',),DEBUG=_F(SDVERI='OUI'))

MA=LIRE_MAILLAGE(FORMAT='MED',);

MO=AFFE_MODELE(MAILLAGE=MA,
               AFFE=_F(TOUT='OUI',
                       PHENOMENE='MECANIQUE',
                       MODELISATION='3D',),);

MAT=DEFI_MATERIAU(ELAS=_F(E=210000.0,
                          NU=0.3,),);

CHMAT=AFFE_MATERIAU(MAILLAGE=MA,
                    AFFE=_F(TOUT='OUI',
                            MATER=MAT,),);

CHA=AFFE_CHAR_MECA(MODELE=MO,
                   DDL_IMPO=(_F(GROUP_NO='SUPY',
                                DY=0.,),
                             _F(GROUP_NO='APPUI',
                                DX=0.,),
                             _F(GROUP_NO='SUPZ',
                                DZ=0.,),
                             _F(GROUP_NO='CHARGE',
                                DX=-1.,),),);

MEL=CALC_MATR_ELEM(OPTION='RIGI_MECA',
                   MODELE=MO,
                   CHAM_MATER=CHMAT,
                   CHARGE=CHA,);

NU=NUME_DDL(MATR_RIGI=MEL,
            METHODE='GCPC',
            RENUM='SANS',);

MATAS=ASSE_MATRICE(MATR_ELEM=MEL,
                   NUME_DDL=NU,);

VEL=CALC_VECT_ELEM(OPTION='CHAR_MECA',
                   CHARGE=CHA,);

VECAS=ASSE_VECTEUR(VECT_ELEM=VEL,
                   NUME_DDL=NU,);

# ----------------------------------------------------------------------
# GCP + LDLT_INC
KMATAS=FACTORISER(MATR_ASSE=MATAS,);

DEP=RESOUDRE(MATR=MATAS,
             CHAM_NO=VECAS,
             RESI_RELA=1.e-12,
             MATR_PREC=KMATAS,
             NMAX_ITER=1000,
             INFO=2);


RESU=CREA_RESU(OPERATION='AFFE',
               TYPE_RESU='EVOL_ELAS',
               NOM_CHAM='DEPL',
               AFFE=_F(CHAM_GD=DEP,
                       INST=0.,
                       MODELE=MO,
                       CHAM_MATER=CHMAT,),);

RESU=CALC_CHAMP(reuse=RESU,RESULTAT=RESU,INST=0.,CONTRAINTE=('SIGM_ELNO'))


TEST_RESU(CHAM_NO=(_F(NOEUD='NO13943',
                      NOM_CMP='DX',
                      CHAM_GD=DEP,
                      VALE_CALC=6.5854894833252E-04,),
                   _F(NOEUD='NO13943',
                      NOM_CMP='DY',
                      CHAM_GD=DEP,
                      VALE_CALC=0.064427713686729,
                      ),
                   _F(NOEUD='NO13943',
                      NOM_CMP='DZ',
                      CHAM_GD=DEP,
                      VALE_CALC=-6.3926297151769E-03,
                      ),
                   _F(NOEUD='NO13944',
                      NOM_CMP='DX',
                      CHAM_GD=DEP,
                      VALE_CALC=8.6831336272775E-04,),
                   _F(NOEUD='NO13944',
                      NOM_CMP='DY',
                      CHAM_GD=DEP,
                      VALE_CALC=0.061356724310861,
                      ),
                   _F(NOEUD='NO13944',
                      NOM_CMP='DZ',
                      CHAM_GD=DEP,
                      VALE_CALC=-6.2243543489862E-03,
                      ),
                   _F(NOEUD='NO15854',
                      NOM_CMP='DX',
                      CHAM_GD=DEP,
                      VALE_CALC=1.1314828339676E-03,),
                   _F(NOEUD='NO15854',
                      NOM_CMP='DY',
                      CHAM_GD=DEP,
                      VALE_CALC=0.058734955821365,
                      ),
                   _F(NOEUD='NO15854',
                      NOM_CMP='DZ',
                      CHAM_GD=DEP,
                      VALE_CALC=-6.0644879013991E-03,
                      ),
                   _F(NOEUD='NO15855',
                      NOM_CMP='DX',
                      CHAM_GD=DEP,
                      VALE_CALC=2.3537105268226E-03,
                      ),
                   _F(NOEUD='NO15855',
                      NOM_CMP='DY',
                      CHAM_GD=DEP,
                      VALE_CALC=0.043550934338109,
                      ),
                   _F(NOEUD='NO15855',
                      NOM_CMP='DZ',
                      CHAM_GD=DEP,
                      VALE_CALC=-4.5380874065867E-03,
                      ),
                   _F(NOEUD='NO15858',
                      NOM_CMP='DX',
                      PRECISION=2.E-3,
                      CHAM_GD=DEP,
                      VALE_CALC=3.1724536626647E-03,
                      VALE_REFE=3.1725E-3,
                      REFERENCE='SOURCE_EXTERNE',),
                   _F(NOEUD='NO15858',
                      NOM_CMP='DY',
                      CHAM_GD=DEP,
                      PRECISION=2.E-3,
                      VALE_CALC=0.028244377005600,
                      VALE_REFE=0.028244,
                      REFERENCE='SOURCE_EXTERNE',),
                   _F(NOEUD='NO15858',
                      NOM_CMP='DZ',
                      PRECISION=2.E-3,
                      CHAM_GD=DEP,
                      VALE_CALC=-2.9278418077341E-03,
                      VALE_REFE=-2.9278E-3,
                      REFERENCE='SOURCE_EXTERNE',),
                   _F(NOEUD='NO15860',
                      NOM_CMP='DX',
                      CHAM_GD=DEP,
                      VALE_CALC=3.6758821755289E-03,
                      ),
                   _F(NOEUD='NO15860',
                      NOM_CMP='DY',
                      CHAM_GD=DEP,
                      VALE_CALC=0.012584550179915,
                      ),
                   _F(NOEUD='NO15860',
                      NOM_CMP='DZ',
                      CHAM_GD=DEP,
                      VALE_CALC=-1.2193265873024E-03,
                      ),
                   _F(NOEUD='NO15862',
                      NOM_CMP='DX',
                      CHAM_GD=DEP,
                      PRECISION=2.E-3,
                      VALE_CALC=3.8304202988629E-03,
                      VALE_REFE=3.8304E-3,
                      REFERENCE='SOURCE_EXTERNE',),
                   _F(NOEUD='NO15862',
                      NOM_CMP='DY',
                      PRECISION=3.0000000000000001E-3,
                      CHAM_GD=DEP,
                      VALE_CALC=-3.1278255238382E-03,
                      VALE_REFE=-3.1279E-3,
                      REFERENCE='SOURCE_EXTERNE',),
                   _F(NOEUD='NO15862',
                      NOM_CMP='DZ',
                      PRECISION=2.E-3,
                      CHAM_GD=DEP,
                      VALE_CALC=4.8319955569677E-04,
                      VALE_REFE=4.8316E-4,
                      REFERENCE='SOURCE_EXTERNE',),
                   _F(NOEUD='NO15863',
                      NOM_CMP='DX',
                      CHAM_GD=DEP,
                      VALE_CALC=3.5835323669091E-03,
                      ),
                   _F(NOEUD='NO15863',
                      NOM_CMP='DY',
                      CHAM_GD=DEP,
                      VALE_CALC=-0.018952797687922,
                      ),
                   _F(NOEUD='NO15863',
                      NOM_CMP='DZ',
                      CHAM_GD=DEP,
                      VALE_CALC=2.1508291907996E-03,
                      ),
                   _F(NOEUD='NO15868',
                      NOM_CMP='DX',
                      CHAM_GD=DEP,
                      VALE_CALC=2.9511570077199E-03,
                      ),
                   _F(NOEUD='NO15868',
                      NOM_CMP='DY',
                      CHAM_GD=DEP,
                      VALE_CALC=-0.034850956430743,
                      ),
                   _F(NOEUD='NO15868',
                      NOM_CMP='DZ',
                      CHAM_GD=DEP,
                      VALE_CALC=3.7679244272529E-03,
                      ),
                   _F(NOEUD='NO15869',
                      NOM_CMP='DX',
                      CHAM_GD=DEP,
                      VALE_CALC=1.7339637796395E-03,
                      ),
                   _F(NOEUD='NO15869',
                      NOM_CMP='DY',
                      CHAM_GD=DEP,
                      VALE_CALC=-0.050995006137963,
                      ),
                   _F(NOEUD='NO15869',
                      NOM_CMP='DZ',
                      CHAM_GD=DEP,
                      VALE_CALC=4.9748687581957E-03,
                      ),
                   _F(NOEUD='NO15866',
                      CRITERE='ABSOLU',
                      NOM_CMP='DX',
                      PRECISION=2.E-3,
                      CHAM_GD=DEP,
                      VALE_CALC=-8.4289711239718E-13,
                      VALE_REFE=0.0,
                      REFERENCE='SOURCE_EXTERNE',),
                   _F(NOEUD='NO15866',
                      NOM_CMP='DY',
                      CHAM_GD=DEP,
                      PRECISION=2.E-3,
                      VALE_CALC=-0.067225994824176,
                      VALE_REFE=-0.067226,
                      REFERENCE='SOURCE_EXTERNE',),
                   _F(NOEUD='NO15866',
                      NOM_CMP='DZ',
                      PRECISION=2.E-3,
                      CHAM_GD=DEP,
                      VALE_CALC=5.820394957906E-03,
                      VALE_REFE=5.8204E-3,
                      REFERENCE='SOURCE_EXTERNE',),
                   ),
          )

# VALEUR DU TENSEUR DES CONTRAINTES PROVENANT D'UN CALCUL PAR PERMAS

TEST_RESU(RESU=(_F(INST=0.0,
                   RESULTAT=RESU,
                   NOM_CHAM='SIGM_ELNO',
                   NOEUD='NO15854',
                   NOM_CMP='SIXX',
                   VALE_CALC=-3.5546108899411,
                   VALE_REFE=-3.5204,
                   REFERENCE='NON_DEFINI',
                   PRECISION=0.014999999999999999,
                   MAILLE='MA4204',),
                _F(INST=0.0,
                   RESULTAT=RESU,
                   NOM_CHAM='SIGM_ELNO',
                   NOEUD='NO15854',
                   NOM_CMP='SIXY',
                   VALE_CALC=-1.7855646587722,
                   VALE_REFE=-1.8101,
                   REFERENCE='NON_DEFINI',
                   PRECISION=0.014999999999999999,
                   MAILLE='MA4204',),
                _F(INST=0.0,
                   RESULTAT=RESU,
                   NOM_CHAM='SIGM_ELNO',
                   NOEUD='NO15854',
                   NOM_CMP='SIYY',
                   VALE_CALC=53.884004983736,
                   MAILLE='MA4204',),
                _F(INST=0.0,
                   RESULTAT=RESU,
                   NOM_CHAM='SIGM_ELNO',
                   NOEUD='NO15854',
                   NOM_CMP='SIXZ',
                   VALE_CALC=-0.69590681651931,
                   VALE_REFE=-0.71499999999999997,
                   REFERENCE='NON_DEFINI',
                   PRECISION=0.029999999999999999,
                   MAILLE='MA4204',),
                _F(INST=0.0,
                   RESULTAT=RESU,
                   NOM_CHAM='SIGM_ELNO',
                   NOEUD='NO15854',
                   NOM_CMP='SIYZ',
                   VALE_CALC=-1.0348432606668,
                   VALE_REFE=-1.0373000000000001,
                   REFERENCE='NON_DEFINI',
                   PRECISION=5.5999999999999999E-3,
                   MAILLE='MA4204',),
                _F(INST=0.0,
                   RESULTAT=RESU,
                   NOM_CHAM='SIGM_ELNO',
                   NOEUD='NO15854',
                   NOM_CMP='SIZZ',
                   VALE_CALC=-1.1319389781063,
                   VALE_REFE=-1.0671999999999999,
                   REFERENCE='NON_DEFINI',
                   PRECISION=0.065000000000000002,
                   MAILLE='MA4204',),
                ),
          )

# ----------------------------------------------------------------------
# GCP + LDLT_SP
KMATAS2=FACTORISER(MATR_ASSE=MATAS,PRE_COND='LDLT_SP');

DEP2=RESOUDRE(MATR=MATAS,
             CHAM_NO=VECAS,
             RESI_RELA=1.e-12,
             MATR_PREC=KMATAS2,
             NMAX_ITER=1000,
             INFO=2);

TEST_RESU(CHAM_NO=(_F(NOEUD='NO13943',
                      NOM_CMP='DX',
                      CHAM_GD=DEP2,
                      VALE_CALC=6.5854894746495E-04,),
                   _F(NOEUD='NO13943',
                      NOM_CMP='DY',
                      CHAM_GD=DEP2,
                      VALE_CALC=0.064427713687431,
                      ),
                   _F(NOEUD='NO13943',
                      NOM_CMP='DZ',
                      CHAM_GD=DEP2,
                      VALE_CALC=-6.3926297142606E-03,
                      ),
                   _F(NOEUD='NO13944',
                      NOM_CMP='DX',
                      CHAM_GD=DEP2,
                      VALE_CALC=8.6831336174353E-04,),
                   _F(NOEUD='NO13944',
                      NOM_CMP='DY',
                      CHAM_GD=DEP2,
                      VALE_CALC=0.061356724311724,
                      ),
                   _F(NOEUD='NO13944',
                      NOM_CMP='DZ',
                      CHAM_GD=DEP2,
                      VALE_CALC=-6.2243543480061E-03,
                      ),
                   _F(NOEUD='NO15854',
                      NOM_CMP='DX',
                      CHAM_GD=DEP2,
                      VALE_CALC=1.1314828330069E-03,),
                   _F(NOEUD='NO15854',
                      NOM_CMP='DY',
                      CHAM_GD=DEP2,
                      VALE_CALC=0.058734955822303,
                      ),
                   _F(NOEUD='NO15854',
                      NOM_CMP='DZ',
                      CHAM_GD=DEP2,
                      VALE_CALC=-6.0644879003858E-03,
                      ),
                   _F(NOEUD='NO15855',
                      NOM_CMP='DX',
                      CHAM_GD=DEP2,
                      VALE_CALC=2.3537105263372E-03,
                      ),
                   _F(NOEUD='NO15855',
                      NOM_CMP='DY',
                      CHAM_GD=DEP2,
                      VALE_CALC=0.043550934338481,
                      ),
                   _F(NOEUD='NO15855',
                      NOM_CMP='DZ',
                      CHAM_GD=DEP2,
                      VALE_CALC=-4.5380874061657E-03,
                      ),
                   _F(NOEUD='NO15858',
                      NOM_CMP='DX',
                      CHAM_GD=DEP2,
                      VALE_CALC=3.1724536621384E-03,
                      ),
                   _F(NOEUD='NO15858',
                      NOM_CMP='DY',
                      CHAM_GD=DEP2,
                      VALE_CALC=0.028244377005665,
                      ),
                   _F(NOEUD='NO15858',
                      NOM_CMP='DZ',
                      CHAM_GD=DEP2,
                      VALE_CALC=-2.9278418075649E-03,
                      ),
                   _F(NOEUD='NO15860',
                      NOM_CMP='DX',
                      CHAM_GD=DEP2,
                      VALE_CALC=3.6758821744205E-03,
                      ),
                   _F(NOEUD='NO15860',
                      NOM_CMP='DY',
                      CHAM_GD=DEP2,
                      VALE_CALC=0.012584550179909,
                      ),
                   _F(NOEUD='NO15860',
                      NOM_CMP='DZ',
                      CHAM_GD=DEP2,
                      VALE_CALC=-1.2193265870123E-03,
                      ),
                   _F(NOEUD='NO15862',
                      NOM_CMP='DX',
                      CHAM_GD=DEP2,
                      VALE_CALC=3.8304202973729E-03,
                      ),
                   _F(NOEUD='NO15862',
                      NOM_CMP='DY',
                      PRECISION=3.0000000000000001E-3,
                      CHAM_GD=DEP2,
                      VALE_CALC=-3.1278255240104E-03,
                      VALE_REFE=-3.1278E-3,
                      REFERENCE='NON_DEFINI',),
                   _F(NOEUD='NO15862',
                      NOM_CMP='DZ',
                      PRECISION=2.E-3,
                      CHAM_GD=DEP2,
                      VALE_CALC=4.8319955598605E-04,
                      VALE_REFE=4.8319999999999998E-4,
                      REFERENCE='NON_DEFINI',),
                   _F(NOEUD='NO15863',
                      NOM_CMP='DX',
                      CHAM_GD=DEP2,
                      VALE_CALC=3.5835323655184E-03,
                      ),
                   _F(NOEUD='NO15863',
                      NOM_CMP='DY',
                      CHAM_GD=DEP2,
                      VALE_CALC=-0.018952797688830,
                      ),
                   _F(NOEUD='NO15863',
                      NOM_CMP='DZ',
                      CHAM_GD=DEP2,
                      VALE_CALC=2.1508291915554E-03,
                      ),
                   _F(NOEUD='NO15868',
                      NOM_CMP='DX',
                      CHAM_GD=DEP2,
                      VALE_CALC=2.9511570064558E-03,
                      ),
                   _F(NOEUD='NO15868',
                      NOM_CMP='DY',
                      CHAM_GD=DEP2,
                      VALE_CALC=-0.034850956432402,
                      ),
                   _F(NOEUD='NO15868',
                      NOM_CMP='DZ',
                      CHAM_GD=DEP2,
                      VALE_CALC=3.7679244280517E-03,
                      ),
                   _F(NOEUD='NO15869',
                      NOM_CMP='DX',
                      CHAM_GD=DEP2,
                      VALE_CALC=1.7339637791524E-03,
                      ),
                   _F(NOEUD='NO15869',
                      NOM_CMP='DY',
                      CHAM_GD=DEP2,
                      VALE_CALC=-0.050995006140325,
                      ),
                   _F(NOEUD='NO15869',
                      NOM_CMP='DZ',
                      CHAM_GD=DEP2,
                      VALE_CALC=4.9748687578138E-03,
                      ),
                   _F(NOEUD='NO15866',
                      CRITERE='ABSOLU',
                      NOM_CMP='DX',
                      CHAM_GD=DEP2,
                      VALE_CALC=-8.5746726284331E-22,
                      ),
                   _F(NOEUD='NO15866',
                      NOM_CMP='DY',
                      CHAM_GD=DEP2,
                      VALE_CALC=-0.067225994827690,
                      ),
                   _F(NOEUD='NO15866',
                      NOM_CMP='DZ',
                      CHAM_GD=DEP2,
                      VALE_CALC=5.820394959599E-03,
                      ),
                   ),
          )

FIN();

