# MODIF  DATE 18/05/2010   AUTEUR SELLENET N.SELLENET 
# TITRE DSR3 SANS RENUM/AFFE_CHAR_MECA/MECA_STAT(GCPC)
# gcpc002c.para = tps_job 250 mem_job 800Mo ncpus 1 liste_test S
#            CONFIGURATION MANAGEMENT OF EDF VERSION
# ======================================================================
# COPYRIGHT (C) 1991 - 2010  EDF R&D                  WWW.CODE-ASTER.ORG
# THIS PROGRAM IS FREE SOFTWARE; YOU CAN REDISTRIBUTE IT AND/OR MODIFY  
# IT UNDER THE TERMS OF THE GNU GENERAL PUBLIC LICENSE AS PUBLISHED BY  
# THE FREE SOFTWARE FOUNDATION; EITHER VERSION 2 OF THE LICENSE, OR     
# (AT YOUR OPTION) ANY LATER VERSION.                                                    
#                                                                       
# THIS PROGRAM IS DISTRIBUTED IN THE HOPE THAT IT WILL BE USEFUL, BUT   
# WITHOUT ANY WARRANTY; WITHOUT EVEN THE IMPLIED WARRANTY OF            
# MERCHANTABILITY OR FITNESS FOR A PARTICULAR PURPOSE. SEE THE GNU      
# GENERAL PUBLIC LICENSE FOR MORE DETAILS.                              
#                                                                       
# YOU SHOULD HAVE RECEIVED A COPY OF THE GNU GENERAL PUBLIC LICENSE     
# ALONG WITH THIS PROGRAM; IF NOT, WRITE TO EDF R&D CODE_ASTER,         
#    1 AVENUE DU GENERAL DE GAULLE, 92141 CLAMART CEDEX, FRANCE.        
# ======================================================================
# TEST DE PERFORMANCE ANCIENNEMENT NOMME SSLV130K

DEBUT(CODE=_F(NOM='GCPC002C',
              NIV_PUB_WEB='INTERNET',),);

MA=LIRE_MAILLAGE();

MO=AFFE_MODELE(MAILLAGE=MA,
               AFFE=_F(TOUT='OUI',
                       PHENOMENE='MECANIQUE',
                       MODELISATION='3D',),);

MAT=DEFI_MATERIAU(ELAS=_F(E=210000.0,
                          NU=.3,),);

CHMAT=AFFE_MATERIAU(MAILLAGE=MA,
                    AFFE=_F(TOUT='OUI',
                            MATER=MAT,),);

CHA=AFFE_CHAR_MECA(MODELE=MO,
                   DDL_IMPO=(_F(GROUP_NO='SUPY',
                                DY=0.,),
                             _F(GROUP_NO='APPUI',
                                DX=0.,),
                             _F(GROUP_NO='SUPZ',
                                DZ=0.,),
                             _F(GROUP_NO='CHARGE',
                                DX=-1.,),),);

# ----------------------------------------------------------------------

VECAS=MECA_STATIQUE(MODELE=MO,
                    CHAM_MATER=CHMAT,
                    EXCIT=_F(CHARGE=CHA,),
                    SOLVEUR=_F(METHODE='GCPC',
                               PRE_COND='LDLT_INC',
                               RENUM='SANS',
                               RESI_RELA=1.E-10,
                               NMAX_ITER=0,),);

VECAS=CALC_ELEM(reuse =VECAS,
                RESULTAT=VECAS,
                OPTION='SIGM_ELNO_DEPL',);

VECAS2=MECA_STATIQUE(MODELE=MO,
                    CHAM_MATER=CHMAT,
                    EXCIT=_F(CHARGE=CHA,),
                    SOLVEUR=_F(METHODE='GCPC',
                               PRE_COND='LDLT_SP',
                               RESI_RELA=1.E-10,
                               NMAX_ITER=0,),);

# ----------------------------------------------------------------------
# GCP + LDLT_INC

TEST_RESU(RESU=(_F(RESULTAT=VECAS,
                   NUME_ORDRE=1,
                   NOM_CHAM='DEPL',
                   NOM_CMP='DX',
                   NOEUD='NO13943',
                   VALE=0.00065855,
                   PRECISION=0.001,
                   REFERENCE='SOURCE_EXTERNE',),
                _F(RESULTAT=VECAS,
                   NUME_ORDRE=1,
                   NOM_CHAM='DEPL',
                   NOM_CMP='DY',
                   NOEUD='NO13943',
                   VALE=0.064428,
                   PRECISION=0.001,
                   REFERENCE='SOURCE_EXTERNE',),
                _F(RESULTAT=VECAS,
                   NUME_ORDRE=1,
                   NOM_CHAM='DEPL',
                   NOM_CMP='DZ',
                   NOEUD='NO13943',
                   VALE=-0.0063926,
                   PRECISION=0.001,
                   REFERENCE='SOURCE_EXTERNE',),
                _F(RESULTAT=VECAS,
                   NUME_ORDRE=1,
                   NOM_CHAM='DEPL',
                   NOM_CMP='DX',
                   NOEUD='NO13944',
                   VALE=0.00086831,
                   PRECISION=0.001,
                   REFERENCE='SOURCE_EXTERNE',),
                _F(RESULTAT=VECAS,
                   NUME_ORDRE=1,
                   NOM_CHAM='DEPL',
                   NOM_CMP='DY',
                   NOEUD='NO13944',
                   VALE=0.061357,
                   PRECISION=0.001,
                   REFERENCE='SOURCE_EXTERNE',),
                _F(RESULTAT=VECAS,
                   NUME_ORDRE=1,
                   NOM_CHAM='DEPL',
                   NOM_CMP='DZ',
                   NOEUD='NO13944',
                   VALE=-0.0062244,
                   PRECISION=0.001,
                   REFERENCE='SOURCE_EXTERNE',),
                _F(RESULTAT=VECAS,
                   NUME_ORDRE=1,
                   NOM_CHAM='DEPL',
                   NOM_CMP='DX',
                   NOEUD='NO15854',
                   VALE=0.0011315,
                   PRECISION=0.001,
                   REFERENCE='SOURCE_EXTERNE',),
                _F(RESULTAT=VECAS,
                   NUME_ORDRE=1,
                   NOM_CHAM='DEPL',
                   NOM_CMP='DY',
                   NOEUD='NO15854',
                   VALE=0.058735,
                   PRECISION=0.001,
                   REFERENCE='SOURCE_EXTERNE',),
                _F(RESULTAT=VECAS,
                   NUME_ORDRE=1,
                   NOM_CHAM='DEPL',
                   NOM_CMP='DZ',
                   NOEUD='NO15854',
                   VALE=-0.0060645,
                   PRECISION=0.001,
                   REFERENCE='SOURCE_EXTERNE',),
                _F(RESULTAT=VECAS,
                   NUME_ORDRE=1,
                   NOM_CHAM='DEPL',
                   NOM_CMP='DX',
                   NOEUD='NO15855',
                   VALE=0.0023537,
                   PRECISION=0.001,
                   REFERENCE='SOURCE_EXTERNE',),
                _F(RESULTAT=VECAS,
                   NUME_ORDRE=1,
                   NOM_CHAM='DEPL',
                   NOM_CMP='DY',
                   NOEUD='NO15855',
                   VALE=0.043551,
                   PRECISION=0.001,
                   REFERENCE='SOURCE_EXTERNE',),
                _F(RESULTAT=VECAS,
                   NUME_ORDRE=1,
                   NOM_CHAM='DEPL',
                   NOM_CMP='DZ',
                   NOEUD='NO15855',
                   VALE=-0.0045381,
                   PRECISION=0.001,
                   REFERENCE='SOURCE_EXTERNE',),
                _F(RESULTAT=VECAS,
                   NUME_ORDRE=1,
                   NOM_CHAM='DEPL',
                   NOM_CMP='DX',
                   NOEUD='NO15858',
                   VALE=0.0031725,
                   PRECISION=0.001,
                   REFERENCE='SOURCE_EXTERNE',),
                _F(RESULTAT=VECAS,
                   NUME_ORDRE=1,
                   NOM_CHAM='DEPL',
                   NOM_CMP='DY',
                   NOEUD='NO15858',
                   VALE=0.028244,
                   PRECISION=0.001,
                   REFERENCE='SOURCE_EXTERNE',),
                _F(RESULTAT=VECAS,
                   NUME_ORDRE=1,
                   NOM_CHAM='DEPL',
                   NOM_CMP='DZ',
                   NOEUD='NO15858',
                   VALE=-0.0029278,
                   PRECISION=0.001,
                   REFERENCE='SOURCE_EXTERNE',),
                _F(RESULTAT=VECAS,
                   NUME_ORDRE=1,
                   NOM_CHAM='DEPL',
                   NOM_CMP='DX',
                   NOEUD='NO15860',
                   VALE=0.0036759,
                   PRECISION=0.001,
                   REFERENCE='SOURCE_EXTERNE',),
                _F(RESULTAT=VECAS,
                   NUME_ORDRE=1,
                   NOM_CHAM='DEPL',
                   NOM_CMP='DY',
                   NOEUD='NO15860',
                   VALE=0.012585,
                   PRECISION=0.001,
                   REFERENCE='SOURCE_EXTERNE',),
                _F(RESULTAT=VECAS,
                   NUME_ORDRE=1,
                   NOM_CHAM='DEPL',
                   NOM_CMP='DZ',
                   NOEUD='NO15860',
                   VALE=-0.0012193,
                   PRECISION=0.001,
                   REFERENCE='SOURCE_EXTERNE',),
                _F(RESULTAT=VECAS,
                   NUME_ORDRE=1,
                   NOM_CHAM='DEPL',
                   NOM_CMP='DX',
                   NOEUD='NO15862',
                   VALE=0.0038304,
                   PRECISION=0.001,
                   REFERENCE='SOURCE_EXTERNE',),
                _F(RESULTAT=VECAS,
                   NUME_ORDRE=1,
                   NOM_CHAM='DEPL',
                   NOM_CMP='DY',
                   NOEUD='NO15862',
                   VALE=-0.0031278,
                   PRECISION=0.001,
                   REFERENCE='SOURCE_EXTERNE',),
                _F(RESULTAT=VECAS,
                   NUME_ORDRE=1,
                   NOM_CHAM='DEPL',
                   NOM_CMP='DZ',
                   NOEUD='NO15862',
                   VALE=0.0004832,
                   PRECISION=0.001,
                   REFERENCE='SOURCE_EXTERNE',),
                _F(RESULTAT=VECAS,
                   NUME_ORDRE=1,
                   NOM_CHAM='DEPL',
                   NOM_CMP='DX',
                   NOEUD='NO15863',
                   VALE=0.0035835,
                   PRECISION=0.001,
                   REFERENCE='SOURCE_EXTERNE',),
                _F(RESULTAT=VECAS,
                   NUME_ORDRE=1,
                   NOM_CHAM='DEPL',
                   NOM_CMP='DY',
                   NOEUD='NO15863',
                   VALE=-0.018953,
                   PRECISION=0.001,
                   REFERENCE='SOURCE_EXTERNE',),
                _F(RESULTAT=VECAS,
                   NUME_ORDRE=1,
                   NOM_CHAM='DEPL',
                   NOM_CMP='DZ',
                   NOEUD='NO15863',
                   VALE=0.0021508,
                   PRECISION=0.001,
                   REFERENCE='SOURCE_EXTERNE',),
                _F(RESULTAT=VECAS,
                   NUME_ORDRE=1,
                   NOM_CHAM='DEPL',
                   NOM_CMP='DX',
                   NOEUD='NO15868',
                   VALE=0.0029512,
                   PRECISION=0.001,
                   REFERENCE='SOURCE_EXTERNE',),
                _F(RESULTAT=VECAS,
                   NUME_ORDRE=1,
                   NOM_CHAM='DEPL',
                   NOM_CMP='DY',
                   NOEUD='NO15868',
                   VALE=-0.034851,
                   PRECISION=0.001,
                   REFERENCE='SOURCE_EXTERNE',),
                _F(RESULTAT=VECAS,
                   NUME_ORDRE=1,
                   NOM_CHAM='DEPL',
                   NOM_CMP='DZ',
                   NOEUD='NO15868',
                   VALE=0.0037679,
                   PRECISION=0.001,
                   REFERENCE='SOURCE_EXTERNE',),
                _F(RESULTAT=VECAS,
                   NUME_ORDRE=1,
                   NOM_CHAM='DEPL',
                   NOM_CMP='DX',
                   NOEUD='NO15869',
                   VALE=0.001734,
                   PRECISION=0.001,
                   REFERENCE='SOURCE_EXTERNE',),
                _F(RESULTAT=VECAS,
                   NUME_ORDRE=1,
                   NOM_CHAM='DEPL',
                   NOM_CMP='DY',
                   NOEUD='NO15869',
                   VALE=-0.050995,
                   PRECISION=0.001,
                   REFERENCE='SOURCE_EXTERNE',),
                _F(RESULTAT=VECAS,
                   NUME_ORDRE=1,
                   NOM_CHAM='DEPL',
                   NOM_CMP='DZ',
                   NOEUD='NO15869',
                   VALE=0.0049749,
                   PRECISION=0.001,
                   REFERENCE='SOURCE_EXTERNE',),
                _F(RESULTAT=VECAS,
                   NUME_ORDRE=1,
                   NOM_CHAM='DEPL',
                   NOM_CMP='DX',
                   NOEUD='NO15866',
                   VALE=0.0,
                   CRITERE='ABSOLU',
                   PRECISION=1e-10,
                   REFERENCE='SOURCE_EXTERNE',),
                _F(RESULTAT=VECAS,
                   NUME_ORDRE=1,
                   NOM_CHAM='DEPL',
                   NOM_CMP='DY',
                   NOEUD='NO15866',
                   VALE=-0.067226,
                   PRECISION=0.001,
                   REFERENCE='SOURCE_EXTERNE',),
                _F(RESULTAT=VECAS,
                   NUME_ORDRE=1,
                   NOM_CHAM='DEPL',
                   NOM_CMP='DZ',
                   NOEUD='NO15866',
                   VALE=0.0058204,
                   PRECISION=0.001,
                   REFERENCE='SOURCE_EXTERNE',),),);

TEST_RESU(RESU=(_F(RESULTAT=VECAS,
                   NUME_ORDRE=1,
                   PARA='ITER_GCPC',
                   VALE_I=0,
                   CRITERE='ABSOLU',
                   PRECISION=520.0,
                   REFERENCE='NON_REGRESSION',),
                _F(RESULTAT=VECAS,
                   NUME_ORDRE=1,
                   PARA='RESI_GCPC',
                   VALE=0.0,
                   CRITERE='ABSOLU',
                   PRECISION=0.4,
                   REFERENCE='NON_REGRESSION',),),);

# VALEUR DU TENSEUR DES CONTRAINTES PROVENANT D'UN CALCUL PAR PERMAS

TEST_RESU(RESU=(_F(RESULTAT=VECAS,
                   NUME_ORDRE=1,
                   NOM_CHAM='SIGM_ELNO_DEPL',
                   NOM_CMP='SIXX',
                   MAILLE='MA4204',
                   NOEUD='NO15854',
                   VALE=-3.5204,
                   PRECISION=0.01,
                   REFERENCE='SOURCE_EXTERNE',),
                _F(RESULTAT=VECAS,
                   NUME_ORDRE=1,
                   NOM_CHAM='SIGM_ELNO_DEPL',
                   NOM_CMP='SIXY',
                   MAILLE='MA4204',
                   NOEUD='NO15854',
                   VALE=-1.8101,
                   PRECISION=0.015,
                   REFERENCE='SOURCE_EXTERNE',),
                _F(RESULTAT=VECAS,
                   NUME_ORDRE=1,
                   NOM_CHAM='SIGM_ELNO_DEPL',
                   NOM_CMP='SIYY',
                   MAILLE='MA4204',
                   NOEUD='NO15854',
                   VALE=53.914,
                   PRECISION=0.001,
                   REFERENCE='SOURCE_EXTERNE',),
                _F(RESULTAT=VECAS,
                   NUME_ORDRE=1,
                   NOM_CHAM='SIGM_ELNO_DEPL',
                   NOM_CMP='SIXZ',
                   MAILLE='MA4204',
                   NOEUD='NO15854',
                   VALE=-0.715,
                   PRECISION=0.03,
                   REFERENCE='SOURCE_EXTERNE',),
                _F(RESULTAT=VECAS,
                   NUME_ORDRE=1,
                   NOM_CHAM='SIGM_ELNO_DEPL',
                   NOM_CMP='SIYZ',
                   MAILLE='MA4204',
                   NOEUD='NO15854',
                   VALE=-1.0373,
                   PRECISION=0.005,
                   REFERENCE='SOURCE_EXTERNE',),
                _F(RESULTAT=VECAS,
                   NUME_ORDRE=1,
                   NOM_CHAM='SIGM_ELNO_DEPL',
                   NOM_CMP='SIZZ',
                   MAILLE='MA4204',
                   NOEUD='NO15854',
                   VALE=-1.0672,
                   PRECISION=0.065,
                   REFERENCE='SOURCE_EXTERNE',),),);


# ----------------------------------------------------------------------
# GCP + LDLT_SP

TEST_RESU(RESU=(_F(RESULTAT=VECAS2,
                   NUME_ORDRE=1,
                   NOM_CHAM='DEPL',
                   NOM_CMP='DX',
                   NOEUD='NO13943',
                   VALE=0.00065855,
                   PRECISION=0.001,
                   REFERENCE='SOURCE_EXTERNE',),
                _F(RESULTAT=VECAS2,
                   NUME_ORDRE=1,
                   NOM_CHAM='DEPL',
                   NOM_CMP='DY',
                   NOEUD='NO13943',
                   VALE=0.064428,
                   PRECISION=0.001,
                   REFERENCE='SOURCE_EXTERNE',),
                _F(RESULTAT=VECAS2,
                   NUME_ORDRE=1,
                   NOM_CHAM='DEPL',
                   NOM_CMP='DZ',
                   NOEUD='NO13943',
                   VALE=-0.0063926,
                   PRECISION=0.001,
                   REFERENCE='SOURCE_EXTERNE',),
                _F(RESULTAT=VECAS2,
                   NUME_ORDRE=1,
                   NOM_CHAM='DEPL',
                   NOM_CMP='DX',
                   NOEUD='NO13944',
                   VALE=0.00086831,
                   PRECISION=0.001,
                   REFERENCE='SOURCE_EXTERNE',),
                _F(RESULTAT=VECAS2,
                   NUME_ORDRE=1,
                   NOM_CHAM='DEPL',
                   NOM_CMP='DY',
                   NOEUD='NO13944',
                   VALE=0.061357,
                   PRECISION=0.001,
                   REFERENCE='SOURCE_EXTERNE',),
                _F(RESULTAT=VECAS2,
                   NUME_ORDRE=1,
                   NOM_CHAM='DEPL',
                   NOM_CMP='DZ',
                   NOEUD='NO13944',
                   VALE=-0.0062244,
                   PRECISION=0.001,
                   REFERENCE='SOURCE_EXTERNE',),
                _F(RESULTAT=VECAS2,
                   NUME_ORDRE=1,
                   NOM_CHAM='DEPL',
                   NOM_CMP='DX',
                   NOEUD='NO15854',
                   VALE=0.0011315,
                   PRECISION=0.001,
                   REFERENCE='SOURCE_EXTERNE',),
                _F(RESULTAT=VECAS2,
                   NUME_ORDRE=1,
                   NOM_CHAM='DEPL',
                   NOM_CMP='DY',
                   NOEUD='NO15854',
                   VALE=0.058735,
                   PRECISION=0.001,
                   REFERENCE='SOURCE_EXTERNE',),
                _F(RESULTAT=VECAS2,
                   NUME_ORDRE=1,
                   NOM_CHAM='DEPL',
                   NOM_CMP='DZ',
                   NOEUD='NO15854',
                   VALE=-0.0060645,
                   PRECISION=0.001,
                   REFERENCE='SOURCE_EXTERNE',),
                _F(RESULTAT=VECAS2,
                   NUME_ORDRE=1,
                   NOM_CHAM='DEPL',
                   NOM_CMP='DX',
                   NOEUD='NO15855',
                   VALE=0.0023537,
                   PRECISION=0.001,
                   REFERENCE='SOURCE_EXTERNE',),
                _F(RESULTAT=VECAS2,
                   NUME_ORDRE=1,
                   NOM_CHAM='DEPL',
                   NOM_CMP='DY',
                   NOEUD='NO15855',
                   VALE=0.043551,
                   PRECISION=0.001,
                   REFERENCE='SOURCE_EXTERNE',),
                _F(RESULTAT=VECAS2,
                   NUME_ORDRE=1,
                   NOM_CHAM='DEPL',
                   NOM_CMP='DZ',
                   NOEUD='NO15855',
                   VALE=-0.0045381,
                   PRECISION=0.001,
                   REFERENCE='SOURCE_EXTERNE',),
                _F(RESULTAT=VECAS2,
                   NUME_ORDRE=1,
                   NOM_CHAM='DEPL',
                   NOM_CMP='DX',
                   NOEUD='NO15858',
                   VALE=0.0031725,
                   PRECISION=0.001,
                   REFERENCE='SOURCE_EXTERNE',),
                _F(RESULTAT=VECAS2,
                   NUME_ORDRE=1,
                   NOM_CHAM='DEPL',
                   NOM_CMP='DY',
                   NOEUD='NO15858',
                   VALE=0.028244,
                   PRECISION=0.001,
                   REFERENCE='SOURCE_EXTERNE',),
                _F(RESULTAT=VECAS2,
                   NUME_ORDRE=1,
                   NOM_CHAM='DEPL',
                   NOM_CMP='DZ',
                   NOEUD='NO15858',
                   VALE=-0.0029278,
                   PRECISION=0.001,
                   REFERENCE='SOURCE_EXTERNE',),
                _F(RESULTAT=VECAS2,
                   NUME_ORDRE=1,
                   NOM_CHAM='DEPL',
                   NOM_CMP='DX',
                   NOEUD='NO15860',
                   VALE=0.0036759,
                   PRECISION=0.001,
                   REFERENCE='SOURCE_EXTERNE',),
                _F(RESULTAT=VECAS2,
                   NUME_ORDRE=1,
                   NOM_CHAM='DEPL',
                   NOM_CMP='DY',
                   NOEUD='NO15860',
                   VALE=0.012585,
                   PRECISION=0.001,
                   REFERENCE='SOURCE_EXTERNE',),
                _F(RESULTAT=VECAS2,
                   NUME_ORDRE=1,
                   NOM_CHAM='DEPL',
                   NOM_CMP='DZ',
                   NOEUD='NO15860',
                   VALE=-0.0012193,
                   PRECISION=0.001,
                   REFERENCE='SOURCE_EXTERNE',),
                _F(RESULTAT=VECAS2,
                   NUME_ORDRE=1,
                   NOM_CHAM='DEPL',
                   NOM_CMP='DX',
                   NOEUD='NO15862',
                   VALE=0.0038304,
                   PRECISION=0.001,
                   REFERENCE='SOURCE_EXTERNE',),
                _F(RESULTAT=VECAS2,
                   NUME_ORDRE=1,
                   NOM_CHAM='DEPL',
                   NOM_CMP='DY',
                   NOEUD='NO15862',
                   VALE=-0.0031278,
                   PRECISION=0.001,
                   REFERENCE='SOURCE_EXTERNE',),
                _F(RESULTAT=VECAS2,
                   NUME_ORDRE=1,
                   NOM_CHAM='DEPL',
                   NOM_CMP='DZ',
                   NOEUD='NO15862',
                   VALE=0.0004832,
                   PRECISION=0.001,
                   REFERENCE='SOURCE_EXTERNE',),
                _F(RESULTAT=VECAS2,
                   NUME_ORDRE=1,
                   NOM_CHAM='DEPL',
                   NOM_CMP='DX',
                   NOEUD='NO15863',
                   VALE=0.0035835,
                   PRECISION=0.001,
                   REFERENCE='SOURCE_EXTERNE',),
                _F(RESULTAT=VECAS2,
                   NUME_ORDRE=1,
                   NOM_CHAM='DEPL',
                   NOM_CMP='DY',
                   NOEUD='NO15863',
                   VALE=-0.018953,
                   PRECISION=0.001,
                   REFERENCE='SOURCE_EXTERNE',),
                _F(RESULTAT=VECAS2,
                   NUME_ORDRE=1,
                   NOM_CHAM='DEPL',
                   NOM_CMP='DZ',
                   NOEUD='NO15863',
                   VALE=0.0021508,
                   PRECISION=0.001,
                   REFERENCE='SOURCE_EXTERNE',),
                _F(RESULTAT=VECAS2,
                   NUME_ORDRE=1,
                   NOM_CHAM='DEPL',
                   NOM_CMP='DX',
                   NOEUD='NO15868',
                   VALE=0.0029512,
                   PRECISION=0.001,
                   REFERENCE='SOURCE_EXTERNE',),
                _F(RESULTAT=VECAS2,
                   NUME_ORDRE=1,
                   NOM_CHAM='DEPL',
                   NOM_CMP='DY',
                   NOEUD='NO15868',
                   VALE=-0.034851,
                   PRECISION=0.001,
                   REFERENCE='SOURCE_EXTERNE',),
                _F(RESULTAT=VECAS2,
                   NUME_ORDRE=1,
                   NOM_CHAM='DEPL',
                   NOM_CMP='DZ',
                   NOEUD='NO15868',
                   VALE=0.0037679,
                   PRECISION=0.001,
                   REFERENCE='SOURCE_EXTERNE',),
                _F(RESULTAT=VECAS2,
                   NUME_ORDRE=1,
                   NOM_CHAM='DEPL',
                   NOM_CMP='DX',
                   NOEUD='NO15869',
                   VALE=0.001734,
                   PRECISION=0.001,
                   REFERENCE='SOURCE_EXTERNE',),
                _F(RESULTAT=VECAS2,
                   NUME_ORDRE=1,
                   NOM_CHAM='DEPL',
                   NOM_CMP='DY',
                   NOEUD='NO15869',
                   VALE=-0.050995,
                   PRECISION=0.001,
                   REFERENCE='SOURCE_EXTERNE',),
                _F(RESULTAT=VECAS2,
                   NUME_ORDRE=1,
                   NOM_CHAM='DEPL',
                   NOM_CMP='DZ',
                   NOEUD='NO15869',
                   VALE=0.0049749,
                   PRECISION=0.001,
                   REFERENCE='SOURCE_EXTERNE',),
                _F(RESULTAT=VECAS2,
                   NUME_ORDRE=1,
                   NOM_CHAM='DEPL',
                   NOM_CMP='DX',
                   NOEUD='NO15866',
                   VALE=0.0,
                   CRITERE='ABSOLU',
                   PRECISION=1e-10,
                   REFERENCE='SOURCE_EXTERNE',),
                _F(RESULTAT=VECAS2,
                   NUME_ORDRE=1,
                   NOM_CHAM='DEPL',
                   NOM_CMP='DY',
                   NOEUD='NO15866',
                   VALE=-0.067226,
                   PRECISION=0.001,
                   REFERENCE='SOURCE_EXTERNE',),
                _F(RESULTAT=VECAS2,
                   NUME_ORDRE=1,
                   NOM_CHAM='DEPL',
                   NOM_CMP='DZ',
                   NOEUD='NO15866',
                   VALE=0.0058204,
                   PRECISION=0.001,
                   REFERENCE='SOURCE_EXTERNE',),),);

TEST_RESU(RESU=(_F(RESULTAT=VECAS2,
                   NUME_ORDRE=1,
                   PARA='ITER_GCPC',
                   VALE_I=0,
                   CRITERE='ABSOLU',
                   PRECISION=520.0,
                   REFERENCE='NON_REGRESSION',),
                _F(RESULTAT=VECAS2,
                   NUME_ORDRE=1,
                   PARA='RESI_GCPC',
                   VALE=0.0,
                   CRITERE='ABSOLU',
                   PRECISION=0.4,
                   REFERENCE='NON_REGRESSION',),),);



FIN();
