# TITRE  DSR3 - RENUM RCMK / AFFE_CHAR_MECA / SOLVE
# ======================================================================
# COPYRIGHT (C) 1991 - 2015  EDF R&D                  WWW.CODE-ASTER.ORG
# THIS PROGRAM IS FREE SOFTWARE; YOU CAN REDISTRIBUTE IT AND/OR MODIFY
# IT UNDER THE TERMS OF THE GNU GENERAL PUBLIC LICENSE AS PUBLISHED BY
# THE FREE SOFTWARE FOUNDATION; EITHER VERSION 2 OF THE LICENSE, OR
# (AT YOUR OPTION) ANY LATER VERSION.
#
# THIS PROGRAM IS DISTRIBUTED IN THE HOPE THAT IT WILL BE USEFUL, BUT
# WITHOUT ANY WARRANTY; WITHOUT EVEN THE IMPLIED WARRANTY OF
# MERCHANTABILITY OR FITNESS FOR A PARTICULAR PURPOSE. SEE THE GNU
# GENERAL PUBLIC LICENSE FOR MORE DETAILS.
#
# YOU SHOULD HAVE RECEIVED A COPY OF THE GNU GENERAL PUBLIC LICENSE
# ALONG WITH THIS PROGRAM; IF NOT, WRITE TO EDF R&D CODE_ASTER,
#    1 AVENUE DU GENERAL DE GAULLE, 92141 CLAMART CEDEX, FRANCE.
# ======================================================================
# TEST DE PERFORMANCE ANCIENNEMENT NOMME SSLV130G

DEBUT(CODE=_F(
NIV_PUB_WEB='INTERNET',),DEBUG=_F(SDVERI='OUI'))

MA=LIRE_MAILLAGE(FORMAT='MED',);

MO=AFFE_MODELE(MAILLAGE=MA,
               AFFE=_F(TOUT='OUI',
                       PHENOMENE='MECANIQUE',
                       MODELISATION='3D',),);

MAT=DEFI_MATERIAU(ELAS=_F(E=210000.0,
                          NU=.3,),);

CHMAT=AFFE_MATERIAU(MAILLAGE=MA,
                    AFFE=_F(TOUT='OUI',
                            MATER=MAT,),);

CHA=AFFE_CHAR_MECA(MODELE=MO,
                   DDL_IMPO=(_F(GROUP_NO='SUPY',
                                DY=0.,),
                             _F(GROUP_NO='APPUI',
                                DX=0.,),
                             _F(GROUP_NO='SUPZ',
                                DZ=0.,),
                             _F(GROUP_NO='CHARGE',
                                DX=-1.,),),);

MEL=CALC_MATR_ELEM(OPTION='RIGI_MECA',
                   MODELE=MO,
                   CHAM_MATER=CHMAT,
                   CHARGE=CHA,);

NU=NUME_DDL(MATR_RIGI=MEL);

MATAS=ASSE_MATRICE(MATR_ELEM=MEL,
                   NUME_DDL=NU,);

VEL=CALC_VECT_ELEM(OPTION='CHAR_MECA',
                   CHARGE=CHA,);

VECAS=ASSE_VECTEUR(VECT_ELEM=VEL,
                   NUME_DDL=NU,);

# GCP + LDLT_INC
KMATAS=FACTORISER(MATR_ASSE=MATAS, METHODE='GCPC',PRE_COND='LDLT_INC');

DEP=RESOUDRE(MATR=MATAS,
             CHAM_NO=VECAS,
             RESI_RELA=1.0E-10,
             MATR_PREC=KMATAS,);

RESU=CREA_RESU(OPERATION='AFFE',
               TYPE_RESU='EVOL_ELAS',
               NOM_CHAM='DEPL',
               AFFE=_F(CHAM_GD=DEP,
                       INST=0.,
                       MODELE=MO,
                       CHAM_MATER=CHMAT,),);

RESU=CALC_CHAMP(reuse=RESU,RESULTAT=RESU,INST=0.,CONTRAINTE=('SIGM_ELNO'))


TEST_RESU(CHAM_NO=(_F(NOEUD='NO13943',
                      NOM_CMP='DX',
                      CHAM_GD=DEP,
                      VALE_CALC=0.000658548996131,
                      TOLE_MACHINE=1.E-3,                # TODO TOLE_MACHINE
                      ),
                   _F(NOEUD='NO13943',
                      NOM_CMP='DY',
                      CHAM_GD=DEP,
                      VALE_CALC=0.0644277137557,
                      TOLE_MACHINE=1.E-3,                # TODO TOLE_MACHINE
                      ),
                   _F(NOEUD='NO13943',
                      NOM_CMP='DZ',
                      CHAM_GD=DEP,
                      VALE_CALC=-0.00639262968235,
                      TOLE_MACHINE=1.E-3,                # TODO TOLE_MACHINE
                      ),
                   _F(NOEUD='NO13944',
                      NOM_CMP='DX',
                      CHAM_GD=DEP,
                      VALE_CALC=0.000868313412504,
                      TOLE_MACHINE=1.E-3,                # TODO TOLE_MACHINE
                      ),
                   _F(NOEUD='NO13944',
                      NOM_CMP='DY',
                      CHAM_GD=DEP,
                      VALE_CALC=0.0613567243737,
                      TOLE_MACHINE=1.E-3,                # TODO TOLE_MACHINE
                      ),
                   _F(NOEUD='NO13944',
                      NOM_CMP='DZ',
                      CHAM_GD=DEP,
                      VALE_CALC=-0.0062243542935,
                      TOLE_MACHINE=1.E-3,                # TODO TOLE_MACHINE
                      ),
                   _F(NOEUD='NO15854',
                      NOM_CMP='DX',
                      CHAM_GD=DEP,
                      VALE_CALC=0.00113148288779,
                      TOLE_MACHINE=1.E-3,                # TODO TOLE_MACHINE
                      ),
                   _F(NOEUD='NO15854',
                      NOM_CMP='DY',
                      CHAM_GD=DEP,
                      VALE_CALC=0.058734955896,
                      TOLE_MACHINE=1.E-3,                # TODO TOLE_MACHINE
                      ),
                   _F(NOEUD='NO15854',
                      NOM_CMP='DZ',
                      CHAM_GD=DEP,
                      VALE_CALC=-0.00606448784583,
                      TOLE_MACHINE=1.E-3,                # TODO TOLE_MACHINE
                      ),
                   _F(NOEUD='NO15855',
                      NOM_CMP='DX',
                      CHAM_GD=DEP,
                      VALE_CALC=0.002353710583,
                      TOLE_MACHINE=1.E-3,                # TODO TOLE_MACHINE
                      ),
                   _F(NOEUD='NO15855',
                      NOM_CMP='DY',
                      CHAM_GD=DEP,
                      VALE_CALC=0.0435509344046,
                      TOLE_MACHINE=1.E-3,                # TODO TOLE_MACHINE
                      ),
                   _F(NOEUD='NO15855',
                      NOM_CMP='DZ',
                      CHAM_GD=DEP,
                      VALE_CALC=-0.00453808741728,
                      TOLE_MACHINE=1.E-3,                # TODO TOLE_MACHINE
                      ),
                   _F(NOEUD='NO15858',
                      NOM_CMP='DX',
                      CHAM_GD=DEP,
                      VALE_CALC=0.00317245369797,
                      TOLE_MACHINE=1.E-3,                # TODO TOLE_MACHINE
                      ),
                   _F(NOEUD='NO15858',
                      NOM_CMP='DY',
                      CHAM_GD=DEP,
                      VALE_CALC=0.0282443770161,
                      TOLE_MACHINE=1.E-3,                # TODO TOLE_MACHINE
                      ),
                   _F(NOEUD='NO15858',
                      NOM_CMP='DZ',
                      CHAM_GD=DEP,
                      VALE_CALC=-0.00292784184029,
                      TOLE_MACHINE=1.E-3,                # TODO TOLE_MACHINE
                      ),
                   _F(NOEUD='NO15860',
                      NOM_CMP='DX',
                      CHAM_GD=DEP,
                      VALE_CALC=0.00367588216347,
                      TOLE_MACHINE=1.E-3,                # TODO TOLE_MACHINE
                      ),
                   _F(NOEUD='NO15860',
                      NOM_CMP='DY',
                      CHAM_GD=DEP,
                      VALE_CALC=0.0125845501075,
                      TOLE_MACHINE=1.E-3,                # TODO TOLE_MACHINE
                      ),
                   _F(NOEUD='NO15860',
                      NOM_CMP='DZ',
                      CHAM_GD=DEP,
                      VALE_CALC=-0.00121932659643,
                      TOLE_MACHINE=1.E-3,                # TODO TOLE_MACHINE
                      ),
                   _F(NOEUD='NO15862',
                      NOM_CMP='DX',
                      CHAM_GD=DEP,
                      VALE_CALC=0.003830420242,
                      TOLE_MACHINE=1.E-3,                # TODO TOLE_MACHINE
                      ),
                   _F(NOEUD='NO15862',
                      NOM_CMP='DY',
                      CHAM_GD=DEP,
                      VALE_CALC=-0.00312782561423,
                      TOLE_MACHINE=1.E-3,                # TODO TOLE_MACHINE
                      ),
                   _F(NOEUD='NO15862',
                      NOM_CMP='DZ',
                      CHAM_GD=DEP,
                      VALE_CALC=0.000483199522347,
                      TOLE_MACHINE=1.E-3,                # TODO TOLE_MACHINE
                      ),
                   _F(NOEUD='NO15863',
                      NOM_CMP='DX',
                      CHAM_GD=DEP,
                      VALE_CALC=0.00358353230318,
                      TOLE_MACHINE=1.E-3,                # TODO TOLE_MACHINE
                      ),
                   _F(NOEUD='NO15863',
                      NOM_CMP='DY',
                      CHAM_GD=DEP,
                      VALE_CALC=-0.0189527978095,
                      TOLE_MACHINE=1.E-3,                # TODO TOLE_MACHINE
                      ),
                   _F(NOEUD='NO15863',
                      NOM_CMP='DZ',
                      CHAM_GD=DEP,
                      VALE_CALC=0.00215082915825,
                      TOLE_MACHINE=1.E-3,                # TODO TOLE_MACHINE
                      ),
                   _F(NOEUD='NO15868',
                      NOM_CMP='DX',
                      CHAM_GD=DEP,
                      VALE_CALC=0.00295115690907,
                      TOLE_MACHINE=1.E-3,                # TODO TOLE_MACHINE
                      ),
                   _F(NOEUD='NO15868',
                      NOM_CMP='DY',
                      CHAM_GD=DEP,
                      VALE_CALC=-0.0348509565703,
                      TOLE_MACHINE=1.E-3,                # TODO TOLE_MACHINE
                      ),
                   _F(NOEUD='NO15868',
                      NOM_CMP='DZ',
                      CHAM_GD=DEP,
                      VALE_CALC=0.0037679244547,
                      TOLE_MACHINE=1.E-3,                # TODO TOLE_MACHINE
                      ),
                   _F(NOEUD='NO15869',
                      NOM_CMP='DX',
                      CHAM_GD=DEP,
                      VALE_CALC=0.00173396371186,
                      TOLE_MACHINE=1.E-3,                # TODO TOLE_MACHINE
                      ),
                   _F(NOEUD='NO15869',
                      NOM_CMP='DY',
                      CHAM_GD=DEP,
                      VALE_CALC=-0.0509950063509,
                      TOLE_MACHINE=1.E-3,                # TODO TOLE_MACHINE
                      ),
                   _F(NOEUD='NO15869',
                      NOM_CMP='DZ',
                      CHAM_GD=DEP,
                      VALE_CALC=0.00497486876235,
                      TOLE_MACHINE=1.E-3,                # TODO TOLE_MACHINE
                      ),
                   _F(NOEUD='NO15866',
                      CRITERE='ABSOLU',
                      NOM_CMP='DX',
                      CHAM_GD=DEP,
                      VALE_CALC=7.43825539877E-13,
                      TOLE_MACHINE=1.E-3,                # TODO TOLE_MACHINE
                      ),
                   _F(NOEUD='NO15866',
                      NOM_CMP='DY',
                      CHAM_GD=DEP,
                      VALE_CALC=-0.0672259950024,
                      TOLE_MACHINE=1.E-3,                # TODO TOLE_MACHINE
                      ),
                   _F(NOEUD='NO15866',
                      NOM_CMP='DZ',
                      CHAM_GD=DEP,
                      VALE_CALC=0.00582039492294,
                      TOLE_MACHINE=1.E-3,                # TODO TOLE_MACHINE
                      ),
                   ),
          )

#
# VALEUR DU TENSEUR DES CONTRAINTES PROVENANT D'UN CALCUL PAR PERMAS

TEST_RESU(RESU=(_F(INST=0.0,
                   REFERENCE='SOURCE_EXTERNE',
                   RESULTAT=RESU,
                   NOM_CHAM='SIGM_ELNO',
                   NOEUD='NO15854',
                   NOM_CMP='SIXX',
                   VALE_CALC=-3.55461211904,
                   VALE_REFE=-3.5204,
                   TOLE_MACHINE=1.E-3,                # TODO TOLE_MACHINE
                   PRECISION=0.015,
                   MAILLE='MA4204',),
                _F(INST=0.0,
                   REFERENCE='SOURCE_EXTERNE',
                   RESULTAT=RESU,
                   NOM_CHAM='SIGM_ELNO',
                   NOEUD='NO15854',
                   NOM_CMP='SIXY',
                   VALE_CALC=-1.78556508724,
                   VALE_REFE=-1.8101,
                   TOLE_MACHINE=1.E-3,                # TODO TOLE_MACHINE
                   PRECISION=0.015,
                   MAILLE='MA4204',),
                _F(INST=0.0,
                   REFERENCE='SOURCE_EXTERNE',
                   RESULTAT=RESU,
                   NOM_CHAM='SIGM_ELNO',
                   NOEUD='NO15854',
                   NOM_CMP='SIYY',
                   VALE_CALC=53.8840042242,
                   VALE_REFE=53.9140,
                   TOLE_MACHINE=1.E-3,                # TODO TOLE_MACHINE
                   PRECISION=1.E-3,
                   MAILLE='MA4204',),
                _F(INST=0.0,
                   REFERENCE='SOURCE_EXTERNE',
                   RESULTAT=RESU,
                   NOM_CHAM='SIGM_ELNO',
                   NOEUD='NO15854',
                   NOM_CMP='SIXZ',
                   VALE_CALC=-0.695905360289,
                   VALE_REFE=-0.71499999999999997,
                   TOLE_MACHINE=1.E-3,                # TODO TOLE_MACHINE
                   PRECISION=0.04,
                   MAILLE='MA4204',),
                _F(INST=0.0,
                   REFERENCE='SOURCE_EXTERNE',
                   RESULTAT=RESU,
                   NOM_CHAM='SIGM_ELNO',
                   NOEUD='NO15854',
                   NOM_CMP='SIYZ',
                   VALE_CALC=-1.03484270994,
                   VALE_REFE=-1.0373000000000001,
                   TOLE_MACHINE=1.E-3,                # TODO TOLE_MACHINE
                   PRECISION=7.7E-3,
                   MAILLE='MA4204',),
                _F(INST=0.0,
                   REFERENCE='SOURCE_EXTERNE',
                   RESULTAT=RESU,
                   NOM_CHAM='SIGM_ELNO',
                   NOEUD='NO15854',
                   NOM_CMP='SIZZ',
                   VALE_CALC=-1.13193930259,
                   VALE_REFE=-1.0671999999999999,
                   PRECISION=0.065199999999999994,
                   TOLE_MACHINE=1.E-3,                # TODO TOLE_MACHINE
                   MAILLE='MA4204',),
                ),
          )

# GCP + LDLT_SP
MATAS=FACTORISER(reuse=MATAS,MATR_ASSE=MATAS,METHODE='GCPC', PRE_COND='LDLT_SP');

DEP2=RESOUDRE(MATR=MATAS,
             CHAM_NO=VECAS,
             RESI_RELA=1.0E-10,
             MATR_PREC=MATAS,);

TEST_RESU(CHAM_NO=(_F(NOEUD='NO13943',
                      NOM_CMP='DX',
                      CHAM_GD=DEP2,
                      VALE_CALC=0.000658548947702,),
                   _F(NOEUD='NO13943',
                      NOM_CMP='DY',
                      CHAM_GD=DEP2,
                      VALE_CALC=0.0644277136887,),
                   _F(NOEUD='NO13943',
                      NOM_CMP='DZ',
                      CHAM_GD=DEP2,
                      VALE_CALC=-0.00639262971448,),
                   _F(NOEUD='NO13944',
                      NOM_CMP='DX',
                      CHAM_GD=DEP2,
                      VALE_CALC=0.000868313361988,),
                   _F(NOEUD='NO13944',
                      NOM_CMP='DY',
                      CHAM_GD=DEP2,
                      VALE_CALC=0.0613567243129,),
                   _F(NOEUD='NO13944',
                      NOM_CMP='DZ',
                      CHAM_GD=DEP2,
                      VALE_CALC=-0.00622435434822,),
                   _F(NOEUD='NO15854',
                      NOM_CMP='DX',
                      CHAM_GD=DEP2,
                      VALE_CALC=0.00113148283326,),
                   _F(NOEUD='NO15854',
                      NOM_CMP='DY',
                      CHAM_GD=DEP2,
                      VALE_CALC=0.0587349558235,),
                   _F(NOEUD='NO15854',
                      NOM_CMP='DZ',
                      CHAM_GD=DEP2,
                      VALE_CALC=-0.00606448790059,),
                   _F(NOEUD='NO15855',
                      NOM_CMP='DX',
                      CHAM_GD=DEP2,
                      VALE_CALC=0.00235371052666,),
                   _F(NOEUD='NO15855',
                      NOM_CMP='DY',
                      CHAM_GD=DEP2,
                      VALE_CALC=0.0435509343394,),
                   _F(NOEUD='NO15855',
                      NOM_CMP='DZ',
                      CHAM_GD=DEP2,
                      VALE_CALC=-0.00453808740633,),
                   _F(NOEUD='NO15858',
                      NOM_CMP='DX',
                      CHAM_GD=DEP2,
                      VALE_CALC=0.00317245366251,),
                   _F(NOEUD='NO15858',
                      NOM_CMP='DY',
                      CHAM_GD=DEP2,
                      VALE_CALC=0.0282443770063,),
                   _F(NOEUD='NO15858',
                      NOM_CMP='DZ',
                      CHAM_GD=DEP2,
                      VALE_CALC=-0.00292784180767,),
                   _F(NOEUD='NO15860',
                      NOM_CMP='DX',
                      CHAM_GD=DEP2,
                      VALE_CALC=0.0036758821748,),
                   _F(NOEUD='NO15860',
                      NOM_CMP='DY',
                      CHAM_GD=DEP2,
                      VALE_CALC=0.0125845501802,),
                   _F(NOEUD='NO15860',
                      NOM_CMP='DZ',
                      CHAM_GD=DEP2,
                      VALE_CALC=-0.00121932658707,),
                   _F(NOEUD='NO15862',
                      NOM_CMP='DX',
                      CHAM_GD=DEP2,
                      VALE_CALC=0.00383042029774,),
                   _F(NOEUD='NO15862',
                      NOM_CMP='DY',
                      CHAM_GD=DEP2,
                      VALE_CALC=-0.00312782552407,),
                   _F(NOEUD='NO15862',
                      NOM_CMP='DZ',
                      CHAM_GD=DEP2,
                      VALE_CALC=0.000483199555975,),
                   _F(NOEUD='NO15863',
                      NOM_CMP='DX',
                      CHAM_GD=DEP2,
                      VALE_CALC=0.00358353236584,),
                   _F(NOEUD='NO15863',
                      NOM_CMP='DY',
                      CHAM_GD=DEP2,
                      VALE_CALC=-0.0189527976892,),
                   _F(NOEUD='NO15863',
                      NOM_CMP='DZ',
                      CHAM_GD=DEP2,
                      VALE_CALC=0.00215082919159,),
                   _F(NOEUD='NO15868',
                      NOM_CMP='DX',
                      CHAM_GD=DEP2,
                      VALE_CALC=0.00295115700671,),
                   _F(NOEUD='NO15868',
                      NOM_CMP='DY',
                      CHAM_GD=DEP2,
                      VALE_CALC=-0.0348509564332,),
                   _F(NOEUD='NO15868',
                      NOM_CMP='DZ',
                      CHAM_GD=DEP2,
                      VALE_CALC=0.00376792442814,),
                   _F(NOEUD='NO15869',
                      NOM_CMP='DX',
                      CHAM_GD=DEP2,
                      VALE_CALC=0.00173396377929,),
                   _F(NOEUD='NO15869',
                      NOM_CMP='DY',
                      CHAM_GD=DEP2,
                      VALE_CALC=-0.0509950061414,),
                   _F(NOEUD='NO15869',
                      NOM_CMP='DZ',
                      CHAM_GD=DEP2,
                      VALE_CALC=0.00497486875793,),
                   _F(NOEUD='NO15866',
                      CRITERE='ABSOLU',
                      NOM_CMP='DX',
                      CHAM_GD=DEP2,
                      VALE_CALC=0.,),
                   _F(NOEUD='NO15866',
                      NOM_CMP='DY',
                      CHAM_GD=DEP2,
                      VALE_CALC=-0.067225994829,),
                   _F(NOEUD='NO15866',
                      NOM_CMP='DZ',
                      CHAM_GD=DEP2,
                      VALE_CALC=0.00582039495974,),
                   ),
          )

FIN();
