# MODIF  DATE 08/12/2009   AUTEUR PROIX J-M.PROIX 
# TITRE CYLINDRE CREUX THERMOELASTIQUE PESANT EN ROTATION UNIFORME
# hpla100c.para = tps_job 60 mem_job 100Mo ncpus 1 liste_test R
#            CONFIGURATION MANAGEMENT OF EDF VERSION
# ======================================================================
# COPYRIGHT (C) 1991 - 2001  EDF R&D                  WWW.CODE-ASTER.ORG
# THIS PROGRAM IS FREE SOFTWARE; YOU CAN REDISTRIBUTE IT AND/OR MODIFY
# IT UNDER THE TERMS OF THE GNU GENERAL PUBLIC LICENSE AS PUBLISHED BY
# THE FREE SOFTWARE FOUNDATION; EITHER VERSION 2 OF THE LICENSE, OR
# (AT YOUR OPTION) ANY LATER VERSION.
#
# THIS PROGRAM IS DISTRIBUTED IN THE HOPE THAT IT WILL BE USEFUL, BUT
# WITHOUT ANY WARRANTY; WITHOUT EVEN THE IMPLIED WARRANTY OF
# MERCHANTABILITY OR FITNESS FOR A PARTICULAR PURPOSE. SEE THE GNU
# GENERAL PUBLIC LICENSE FOR MORE DETAILS.
#
# YOU SHOULD HAVE RECEIVED A COPY OF THE GNU GENERAL PUBLIC LICENSE
# ALONG WITH THIS PROGRAM; IF NOT, WRITE TO EDF R&D CODE_ASTER,
#    1 AVENUE DU GENERAL DE GAULLE, 92141 CLAMART CEDEX, FRANCE.
# ======================================================================

DEBUT(CODE=_F( NOM = 'HPLA100C',NIV_PUB_WEB='INTERNET')  )

#......................................................................
#
# MODELISATION COQUE 3D   121 NOEUDS EXTERNES -- 32 QUAD9 + 8 SEG3
#......................................................................

MA=LIRE_MAILLAGE(  )

DEFI_GROUP( reuse=MA,   MAILLAGE=MA,
            CREA_GROUP_MA=_F(  NOM = 'TOUT', TOUT = 'OUI'))

MO=AFFE_MODELE(  MAILLAGE=MA,
                 AFFE=_F(  TOUT = 'OUI',PHENOMENE = 'MECANIQUE',
                           MODELISATION = 'COQUE_3D'))

MOTHER=AFFE_MODELE(  MAILLAGE=MA,
                     AFFE=_F(  TOUT = 'OUI',PHENOMENE = 'THERMIQUE',
                               MODELISATION = 'COQUE'))


E_TEMP=DEFI_FONCTION(NOM_PARA='TEMP',
                     VALE=(-1., 2.0E+05,
                            0., 2.0E+05,
                            1., 2.0E+05))

NU_FO=DEFI_CONSTANTE(VALE=0.3)

ALPHA_FO=DEFI_CONSTANTE(VALE=1.E-5)

MAT=DEFI_MATERIAU(ELAS=_F( E = 2.0E+5, NU = 0.3, RHO = 8.E-6, ALPHA = 1.E-5),
                  ECRO_LINE=_F(  D_SIGM_EPSI = 2.0E+3, SY = 1.E+9)     )

MATTH=DEFI_MATERIAU(ELAS_FO=_F(E=E_TEMP,NU=NU_FO,ALPHA=ALPHA_FO,RHO = 8.E-6,
                                TEMP_DEF_ALPHA=0.) )

MATHER=DEFI_MATERIAU(THER=_F( LAMBDA = 1.0, RHO_CP = 0.0) )

CARE=AFFE_CARA_ELEM( MODELE=MO,
                           COQUE=_F( COQUE_NCOU=2,
                                     GROUP_MA = 'TOUT',
                                     EPAIS = 1.,
                                     A_CIS = 0.83333333333333) )

CARETHE=AFFE_CARA_ELEM(   MODELE=MOTHER,
                           COQUE=_F(  GROUP_MA = 'TOUT',
                                      EPAIS = 1.00)       )
# ------------------------------------------------------------------

T_INIT=CREA_CHAMP( OPERATION='AFFE', TYPE_CHAM='NOEU_TEMP_R', MAILLAGE=MA,
                   AFFE=_F( TOUT='OUI',
                            NOM_CMP=('TEMP_INF','TEMP','TEMP_SUP'),
                            VALE=   (    0.0   ,  0.0 ,    0.0   ), ), )

T_FIN1=CREA_CHAMP( OPERATION='AFFE', TYPE_CHAM='NOEU_TEMP_R', MAILLAGE=MA,
                   AFFE=_F( TOUT='OUI',
                            NOM_CMP=('TEMP_INF','TEMP','TEMP_SUP'),
                            VALE=   (   -0.5   ,   0. ,    0.5   ), ), )

T_FIN2=CREA_CHAMP( OPERATION='AFFE', TYPE_CHAM='NOEU_TEMP_R', MAILLAGE=MA,
                   AFFE=_F( TOUT='OUI',
                            NOM_CMP=('TEMP_INF','TEMP','TEMP_SUP'),
                            VALE=   (    0.1   ,  0.1 ,    0.1   ), ), )


TEMPLI1=CREA_RESU( OPERATION='AFFE',
                   TYPE_RESU='EVOL_THER',
                   NOM_CHAM='TEMP',
                   AFFE=(_F( CHAM_GD=T_INIT,
                             INST=0.0,      ),
                         _F( CHAM_GD=T_FIN1,
                             INST=1.0,      ), ), );

TEMPLI2=CREA_RESU( OPERATION='AFFE',
                   TYPE_RESU='EVOL_THER',
                   NOM_CHAM='TEMP',
                   AFFE=(_F( CHAM_GD=T_FIN2,
                             INST=0.0,      ), ), );

TEMPER1=CREA_RESU(  OPERATION='PREP_VRC2', TYPE_RESU='EVOL_THER',
    PREP_VRC2= _F(  MODELE=MO, CARA_ELEM=CARE, EVOL_THER = TEMPLI1, ),)
TEMPER2=CREA_RESU(  OPERATION='PREP_VRC2', TYPE_RESU='EVOL_THER',
    PREP_VRC2= _F(  MODELE=MO, CARA_ELEM=CARE, EVOL_THER = TEMPLI2, ),)

# ------------------------------------------------------------------

CHMAT=AFFE_MATERIAU(  MAILLAGE=MA,
                      AFFE=_F(  TOUT = 'OUI', MATER = MAT))
CHMAT1=AFFE_MATERIAU(  MAILLAGE=MA,
                      AFFE=_F(  TOUT = 'OUI', MATER = MAT),
                      AFFE_VARC=  _F(TOUT='OUI',EVOL=TEMPER1,NOM_VARC='TEMP',
                                     NOM_CHAM='TEMP',VALE_REF=0.0), )

CHMAT2=AFFE_MATERIAU(  MAILLAGE=MA,
                      AFFE=_F(  TOUT = 'OUI', MATER = MAT),
                      AFFE_VARC=  _F(TOUT='OUI',EVOL=TEMPER2,NOM_VARC='TEMP',
                                     NOM_CHAM='TEMP',VALE_REF=0.0), )

CHMATH1=AFFE_MATERIAU(  MAILLAGE=MA,
                       AFFE=_F(  TOUT = 'OUI', MATER = MATTH),
                       AFFE_VARC=  _F(TOUT='OUI',EVOL=TEMPER1,NOM_VARC='TEMP',
                                      NOM_CHAM='TEMP',VALE_REF=0.0), );

CHMATHE=AFFE_MATERIAU(  MAILLAGE=MA,
                        AFFE=_F(  TOUT = 'OUI', MATER = MATHER))


# ------------------------------------------------------------------

CHPES=AFFE_CHAR_MECA(  MODELE=MO,
           PESANTEUR=( 10.0,  0.,  0.,  -1., ),
         FORCE_ARETE=_F(  GROUP_MA = 'HAUT',        FZ = 8.E-4),
         DDL_IMPO=(_F(  GROUP_NO = 'LM',              DZ = 0.),
                   _F(  GROUP_NO = 'KL',          DY = 0.,  DRX = 0.,        DRZ = 0.),
                   _F(  GROUP_NO = 'MN',   DX = 0.,                 DRY = 0., DRZ = 0.))
                                                            )

CHROT=AFFE_CHAR_MECA(  MODELE=MO,
           ROTATION=(  1.00,  0.,  0.,   1., ),
           DDL_IMPO=(_F(  GROUP_NO = 'KNSANSKN',     DZ = 0.,  DRX = 0., DRY = 0.),
                     _F(  GROUP_NO = 'LMSANSLM',     DZ = 0.,  DRX = 0., DRY = 0.),
                     _F(  GROUP_NO = 'KL',   DY = 0.,          DRX = 0., DRZ = 0.),
                     _F(  GROUP_NO = 'MN',   DX = 0.,          DRY = 0., DRZ = 0.),
                     _F(  GROUP_NO = 'KETL',         DZ = 0.,  DRY = 0.),
                     _F(  GROUP_NO = 'METN',         DZ = 0.,  DRX = 0.))
                                                            )

CHDIL=AFFE_CHAR_MECA(  MODELE=MO,
           DDL_IMPO=(_F(  GROUP_NO = 'KNSANSKN',     DZ = 0.,  DRX = 0., DRY = 0.),
                     _F(  GROUP_NO = 'LMSANSLM',     DZ = 0.,  DRX = 0., DRY = 0.),
                     _F(  GROUP_NO = 'KL',   DY = 0.,          DRX = 0., DRZ = 0.),
                     _F(  GROUP_NO = 'MN',   DX = 0.,          DRY = 0., DRZ = 0.),
                     _F(  GROUP_NO = 'KETL',         DZ = 0.,  DRY = 0.),
                     _F(  GROUP_NO = 'METN',         DZ = 0.,  DRX = 0.))
                                                            )


# ------------------------------------------------------------------

DEPLPES=MECA_STATIQUE(
                  MODELE=MO,
               CARA_ELEM=CARE,
              CHAM_MATER=CHMAT,
                   EXCIT=_F( CHARGE = CHPES),
                         )

SIGMA=CREA_CHAMP(TYPE_CHAM='ELGA_SIEF_R',
                 OPERATION='EXTR',
                 RESULTAT=DEPLPES,
                 NOM_CHAM='SIEF_ELGA_DEPL',
                 NUME_ORDRE=1,
                 );

CALC_ELEM( reuse= DEPLPES ,RESULTAT= DEPLPES ,
           OPTION=('EFGE_ELNO_DEPL','SIGM_ELNO_DEPL',),
           REPE_COQUE=_F(NIVE_COUCHE='INF',),
                         )

# ------------------------------------------------------------------

DEPLROT=MECA_STATIQUE(
                  MODELE=MO,
               CARA_ELEM=CARE,
              CHAM_MATER=CHMAT,
                   EXCIT=_F( CHARGE = CHROT),
                         )

CALC_ELEM( reuse= DEPLROT ,RESULTAT= DEPLROT ,
           OPTION=('EFGE_ELNO_DEPL','SIGM_ELNO_DEPL',),
           REPE_COQUE=_F(NIVE_COUCHE='INF',),
                         )

# ------------------------------------------------------------------

LISTIME=DEFI_LIST_REEL(VALE=( 0.0, 1.0, ), )

STATNL1=STAT_NON_LINE(
                  MODELE=MO,
              CHAM_MATER=CHMAT1,
               CARA_ELEM=CARE,
               COMP_INCR=_F(RELATION='ELAS'),
                   EXCIT=_F( CHARGE = CHDIL),
               INCREMENT=_F(LIST_INST=LISTIME,),
                         )

DEP1=CREA_CHAMP( OPERATION='EXTR', TYPE_CHAM='NOEU_DEPL_R',
                 RESULTAT=STATNL1, NOM_CHAM='DEPL', INST=1. )

DEPLDIL=CREA_RESU(  OPERATION='AFFE', TYPE_RESU='EVOL_ELAS',  NOM_CHAM='DEPL',
                    AFFE=_F(  INST = 1.,  CHAM_GD = DEP1,
                              MODELE=MO, CHAM_MATER=CHMAT1, CARA_ELEM=CARE, )     )

CALC_ELEM( reuse= DEPLDIL ,RESULTAT= DEPLDIL ,
           OPTION=('SIEF_ELGA_DEPL',),
           EXCIT=_F( CHARGE = CHDIL),
           REPE_COQUE=_F(
           NUME_COUCHE=1,
           NIVE_COUCHE='INF',),
                         )

CALC_ELEM( reuse= DEPLDIL ,RESULTAT= DEPLDIL ,
           OPTION=('EFGE_ELNO_DEPL','SIGM_ELNO_DEPL',),
           EXCIT=_F( CHARGE = CHDIL),
           REPE_COQUE=_F(NIVE_COUCHE='INF',),
                         )


STATNL2=STAT_NON_LINE(
                  MODELE=MO,
              CHAM_MATER=CHMATH1,
               CARA_ELEM=CARE,
               COMP_INCR=_F(RELATION='ELAS'),
                   EXCIT=_F( CHARGE = CHDIL),
               INCREMENT=_F(LIST_INST=LISTIME,),
                         )

DEP2=CREA_CHAMP( OPERATION='EXTR', TYPE_CHAM='NOEU_DEPL_R',
                 RESULTAT=STATNL2, NOM_CHAM='DEPL', INST=1. )

DEPLDILT=CREA_RESU(  OPERATION='AFFE', TYPE_RESU='EVOL_ELAS',  NOM_CHAM='DEPL',
                     AFFE=_F(  INST = 1.,  CHAM_GD = DEP2,
                               MODELE=MO, CHAM_MATER=CHMATH1, CARA_ELEM=CARE, )     )

CALC_ELEM( reuse= DEPLDILT ,RESULTAT= DEPLDILT ,
           OPTION=('SIEF_ELGA_DEPL',),
           EXCIT=_F( CHARGE = CHDIL),
           REPE_COQUE=_F(
           NUME_COUCHE=1,
           NIVE_COUCHE='INF',),
                         )

CALC_ELEM( reuse= DEPLDILT ,RESULTAT= DEPLDILT ,
           OPTION=('EFGE_ELNO_DEPL','SIGM_ELNO_DEPL',),
           EXCIT=_F( CHARGE = CHDIL),
             REPE_COQUE=_F(NIVE_COUCHE='INF',),
                         )

# ------------------------------------------------------------------

DEPLDI2=MECA_STATIQUE(
                  MODELE=MO,
              CHAM_MATER=CHMAT2,
               CARA_ELEM=CARE,
                   EXCIT=_F( CHARGE = CHDIL),
                         )


CALC_ELEM( reuse= DEPLDI2 ,RESULTAT= DEPLDI2 ,
           OPTION=('EFGE_ELNO_DEPL','SIGM_ELNO_DEPL',),
           REPE_COQUE=_F(NIVE_COUCHE='INF',),
                         )


DEPLDI2T=MECA_STATIQUE(
                  MODELE=MO,
              CHAM_MATER=CHMAT2,
               CARA_ELEM=CARE,
                   EXCIT=_F( CHARGE = CHDIL),
                         )

CALC_ELEM( reuse= DEPLDI2T ,RESULTAT= DEPLDI2T ,
           OPTION=('EFGE_ELNO_DEPL','SIGM_ELNO_DEPL',),
           REPE_COQUE=_F(NIVE_COUCHE='INF',),
                         )

#---------------------------------------------------------------------

TEST_RESU(RESU=(

      # DEPLACEMENTS
             _F(  RESULTAT = DEPLPES,  CRITERE = 'RELATIF',   PRECISION = 3.E-2,
              NUME_ORDRE = 1,     NOM_CHAM = 'DEPL',
               NOEUD = 'NO000072', NOM_CMP = 'DX',     VALE = -2.40000E-8),
             _F(  RESULTAT = DEPLPES,  CRITERE = 'RELATIF',   PRECISION = 3.04E-2,
              NUME_ORDRE = 1,     NOM_CHAM = 'DEPL',
               NOEUD = 'NO000039', NOM_CMP = 'DY',     VALE = -2.40000E-8),
             _F(  RESULTAT = DEPLPES,  CRITERE = 'RELATIF',   PRECISION = 2.E-4,
              NUME_ORDRE = 1,     NOM_CHAM = 'DEPL',
               NOEUD = 'NO000186', NOM_CMP = 'DZ',     VALE = 5.00000E-9),
             _F(  RESULTAT = DEPLPES,  CRITERE = 'RELATIF',   PRECISION = 2.E-4,
              NUME_ORDRE = 1,     NOM_CHAM = 'DEPL',
               NOEUD = 'NO000190', NOM_CMP = 'DZ',     VALE = 5.00000E-9),
             _F(  RESULTAT = DEPLPES,  CRITERE = 'RELATIF',   PRECISION = 2.E-2,
              NUME_ORDRE = 1,     NOM_CHAM = 'DEPL',
               NOEUD = 'NO000186', NOM_CMP = 'DRY',    VALE = -2.40000E-9),
             _F(  RESULTAT = DEPLPES,  CRITERE = 'RELATIF',   PRECISION = 2.E-2,
              NUME_ORDRE = 1,     NOM_CHAM = 'DEPL',
               NOEUD = 'NO000190', NOM_CMP = 'DRX',    VALE = 2.40000E-9),
#
             _F(  RESULTAT = DEPLROT,  CRITERE = 'RELATIF',   PRECISION = 5.E-4,
               NUME_ORDRE = 1,     NOM_CHAM = 'DEPL',
               NOEUD = 'NO000001', NOM_CMP = 'DX',     VALE = 2.91200E-7),
             _F(  RESULTAT = DEPLROT,  CRITERE = 'RELATIF',   PRECISION = 5.E-4,
               NUME_ORDRE = 1,     NOM_CHAM = 'DEPL',
               NOEUD = 'NO000033', NOM_CMP = 'DY',     VALE = 2.91200E-7),
#
             _F(  RESULTAT = DEPLDI2,  CRITERE = 'RELATIF',   PRECISION = 4.E-4,
               NUME_ORDRE = 1,     NOM_CHAM = 'DEPL',
               NOEUD = 'NO000001', NOM_CMP = 'DX',     VALE = 25.9946E-6),
             _F(  RESULTAT = DEPLDI2,  CRITERE = 'RELATIF',   PRECISION = 4.E-4,
               NUME_ORDRE = 1,     NOM_CHAM = 'DEPL',
               NOEUD = 'NO000033', NOM_CMP = 'DY',     VALE = 25.9946E-6),
#
             _F(  RESULTAT = DEPLDI2T,  CRITERE = 'RELATIF',   PRECISION = 4.E-4,
               NUME_ORDRE = 1,     NOM_CHAM = 'DEPL',
               NOEUD = 'NO000001', NOM_CMP = 'DX',     VALE = 25.9946E-6),
             _F(  RESULTAT = DEPLDI2T,  CRITERE = 'RELATIF',   PRECISION = 4.E-4,
               NUME_ORDRE = 1,     NOM_CHAM = 'DEPL',
               NOEUD = 'NO000033', NOM_CMP = 'DY',     VALE = 25.9946E-6),
#
    # EFFORTS GENERALISES
             _F(  RESULTAT = DEPLPES,  CRITERE = 'RELATIF',   PRECISION = 3.E-4,
        NUME_ORDRE = 1,     MAILLE = 'MA000004', NOM_CHAM = 'EFGE_ELNO_DEPL',
               NOEUD = 'NO000072', NOM_CMP = 'NYY',   VALE = 8.00000E-4),
             _F(  RESULTAT = DEPLPES,  CRITERE = 'RELATIF',   PRECISION = 3.E-4,
        NUME_ORDRE = 1,     MAILLE = 'MA000032', NOM_CHAM = 'EFGE_ELNO_DEPL',
               NOEUD = 'NO000039', NOM_CMP = 'NYY',   VALE = 8.00000E-4),
#
             _F(  RESULTAT = DEPLROT,  CRITERE = 'RELATIF',   PRECISION = 1.E-5,
        NUME_ORDRE = 1,     MAILLE = 'MA000001', NOM_CHAM = 'EFGE_ELNO_DEPL',
               NOEUD = 'NO000001', NOM_CMP = 'NYY',   VALE = 0.96000E-3),
             _F(  RESULTAT = DEPLROT,  CRITERE = 'RELATIF',   PRECISION = 1.E-5,
        NUME_ORDRE = 1,     MAILLE = 'MA000029', NOM_CHAM = 'EFGE_ELNO_DEPL',
               NOEUD = 'NO000033', NOM_CMP = 'NYY',   VALE = 0.96000E-3),
#
             _F(  RESULTAT = DEPLDIL,  CRITERE = 'RELATIF',   PRECISION = 1.E-5,
        NUME_ORDRE = 1,     MAILLE = 'MA000001', NOM_CHAM = 'EFGE_ELNO_DEPL',
               NOEUD = 'NO000001', NOM_CMP = 'MYY',   VALE = -2.38095E-1),
             _F(  RESULTAT = DEPLDIL,  CRITERE = 'RELATIF',   PRECISION = 1.E-5,
        NUME_ORDRE = 1,     MAILLE = 'MA000029', NOM_CHAM = 'EFGE_ELNO_DEPL',
               NOEUD = 'NO000033', NOM_CMP = 'MYY',   VALE = -2.38095E-1),
#
             _F(  RESULTAT = DEPLDILT,  CRITERE = 'RELATIF',   PRECISION = 1.E-5,
        NUME_ORDRE = 1,     MAILLE = 'MA000001', NOM_CHAM = 'EFGE_ELNO_DEPL',
               NOEUD = 'NO000001', NOM_CMP = 'MYY',   VALE = -2.38095E-1),
             _F(  RESULTAT = DEPLDILT,  CRITERE = 'RELATIF',   PRECISION = 1.E-5,
        NUME_ORDRE = 1,     MAILLE = 'MA000029', NOM_CHAM = 'EFGE_ELNO_DEPL',
               NOEUD = 'NO000033', NOM_CMP = 'MYY',   VALE = -2.38095E-1),
#
             _F(  RESULTAT = DEPLDI2,  CRITERE = 'RELATIF',   PRECISION = 1.E-5,
        NUME_ORDRE = 1,     MAILLE = 'MA000001', NOM_CHAM = 'EFGE_ELNO_DEPL',
               NOEUD = 'NO000001', NOM_CMP = 'NYY',   VALE = -0.20000E+0),
             _F(  RESULTAT = DEPLDI2,  CRITERE = 'RELATIF',   PRECISION = 1.E-5,
        NUME_ORDRE = 1,     MAILLE = 'MA000029', NOM_CHAM = 'EFGE_ELNO_DEPL',
               NOEUD = 'NO000033', NOM_CMP = 'NYY',   VALE = -0.20000E+0),
#
             _F(  RESULTAT = DEPLDI2T,  CRITERE = 'RELATIF',   PRECISION = 1.E-5,
        NUME_ORDRE = 1,     MAILLE = 'MA000001', NOM_CHAM = 'EFGE_ELNO_DEPL',
               NOEUD = 'NO000001', NOM_CMP = 'NYY',   VALE = -0.20000E+0),
             _F(  RESULTAT = DEPLDI2T,  CRITERE = 'RELATIF',   PRECISION = 1.E-5,
        NUME_ORDRE = 1,     MAILLE = 'MA000029', NOM_CHAM = 'EFGE_ELNO_DEPL',
               NOEUD = 'NO000033', NOM_CMP = 'NYY',   VALE = -0.20000E+0),
#
     # CONTRAINTES AUX PTS DE GAUSS SUR LES SOUS POINTS
            _F(  RESULTAT = DEPLPES,  REFERENCE = 'NON_REGRESSION',   
        NUME_ORDRE = 1,     MAILLE = 'MA000001', NOM_CHAM = 'SIEF_ELGA_DEPL',
               POINT = 2,SOUS_POINT = 6, NOM_CMP = 'SIXX',  VALE = 9.844726E-05),
            _F(  RESULTAT = DEPLPES,  REFERENCE = 'NON_REGRESSION',   
        NUME_ORDRE = 1,     MAILLE = 'MA000001', NOM_CHAM = 'SIEF_ELGA_DEPL',
               POINT = 2,SOUS_POINT = 1, NOM_CMP = 'SIXX',  VALE = 1.015881E-04),
     # CONTRAINTES EN PEAU MOYENNE
           _F(  RESULTAT = DEPLPES,  CRITERE = 'RELATIF',   PRECISION = 2.6E-2,
        NUME_ORDRE = 1,     MAILLE = 'MA000004', NOM_CHAM = 'SIGM_ELNO_DEPL',
               NOEUD = 'NO000072', NOM_CMP = 'SIYY',  VALE = 8.00000E-4),
            _F(  RESULTAT = DEPLPES,  CRITERE = 'RELATIF',   PRECISION = 2.6E-2,
        NUME_ORDRE = 1,     MAILLE = 'MA000032', NOM_CHAM = 'SIGM_ELNO_DEPL',
              NOEUD = 'NO000039', NOM_CMP = 'SIYY',  VALE = 8.00000E-4),
#
            _F(  RESULTAT = DEPLROT,  CRITERE = 'RELATIF',   PRECISION = 2.6E-2,
        NUME_ORDRE = 1,     MAILLE = 'MA000001', NOM_CHAM = 'SIGM_ELNO_DEPL',
              NOEUD = 'NO000001', NOM_CMP = 'SIYY',  VALE = 0.98460E-3),
            _F(  RESULTAT = DEPLROT,  CRITERE = 'RELATIF',   PRECISION = 2.6E-2,
        NUME_ORDRE = 1,     MAILLE = 'MA000029', NOM_CHAM = 'SIGM_ELNO_DEPL',
              NOEUD = 'NO000033', NOM_CMP = 'SIYY',  VALE = 0.98460E-3),
#
            _F(  RESULTAT = DEPLDIL,  REFERENCE = 'ANALYTIQUE',   
        NUME_ORDRE = 1,     MAILLE = 'MA000001', NOM_CHAM = 'SIEF_ELGA_DEPL',
               POINT = 4,SOUS_POINT = 1, NOM_CMP = 'SIXX',  VALE = 1.428571E+0),
            _F(  RESULTAT = DEPLDIL,  REFERENCE = 'ANALYTIQUE',   
        NUME_ORDRE = 1,     MAILLE = 'MA000011', NOM_CHAM = 'SIEF_ELGA_DEPL',
               POINT = 6,SOUS_POINT = 1, NOM_CMP = 'SIXX',  VALE = 1.428571E+0),
            _F(  RESULTAT = DEPLDIL,  CRITERE = 'RELATIF',   PRECISION = 1.E-5,
        NUME_ORDRE = 1,     MAILLE = 'MA000001', NOM_CHAM = 'SIGM_ELNO_DEPL',
              NOEUD = 'NO000001', NOM_CMP = 'SIYY',  VALE = 1.428571E+0),
            _F(  RESULTAT = DEPLDIL,  CRITERE = 'RELATIF',   PRECISION = 1.E-5,
        NUME_ORDRE = 1,     MAILLE = 'MA000029', NOM_CHAM = 'SIGM_ELNO_DEPL',
              NOEUD = 'NO000033', NOM_CMP = 'SIYY',  VALE = 1.428571E+0),
#
            _F(  RESULTAT = DEPLDILT,  REFERENCE = 'ANALYTIQUE',   
        NUME_ORDRE = 1,     MAILLE = 'MA000001', NOM_CHAM = 'SIEF_ELGA_DEPL',
               POINT = 4,SOUS_POINT = 1, NOM_CMP = 'SIXX',  VALE = 1.428571E+0),
            _F(  RESULTAT = DEPLDILT,  REFERENCE = 'ANALYTIQUE',   
        NUME_ORDRE = 1,     MAILLE = 'MA000021', NOM_CHAM = 'SIEF_ELGA_DEPL',
               POINT = 1,SOUS_POINT = 1, NOM_CMP = 'SIXX',  VALE = 1.428571E+0),
            _F(  RESULTAT = DEPLDILT,  CRITERE = 'RELATIF',   PRECISION = 1.E-5,
        NUME_ORDRE = 1,     MAILLE = 'MA000001', NOM_CHAM = 'SIGM_ELNO_DEPL',
              NOEUD = 'NO000001', NOM_CMP = 'SIYY',  VALE = 1.428571E+0),
            _F(  RESULTAT = DEPLDILT,  CRITERE = 'RELATIF',   PRECISION = 1.E-5,
        NUME_ORDRE = 1,     MAILLE = 'MA000029', NOM_CHAM = 'SIGM_ELNO_DEPL',
              NOEUD = 'NO000033', NOM_CMP = 'SIYY',  VALE = 1.428571E+0),
#
            _F(  RESULTAT = DEPLDI2,  REFERENCE = 'ANALYTIQUE',   
        NUME_ORDRE = 1,     MAILLE = 'MA000001', NOM_CHAM = 'SIEF_ELGA_DEPL',
               POINT = 4,SOUS_POINT = 1, NOM_CMP = 'SIXX',  VALE = -0.19780+0),
            _F(  RESULTAT = DEPLDI2,  REFERENCE = 'ANALYTIQUE',   
        NUME_ORDRE = 1,     MAILLE = 'MA000021', NOM_CHAM = 'SIEF_ELGA_DEPL',
               POINT = 3,SOUS_POINT = 1, NOM_CMP = 'SIXX',  VALE = -0.19780+0),
            _F(  RESULTAT = DEPLDI2,  CRITERE = 'RELATIF',   PRECISION = 4.E-4,
        NUME_ORDRE = 1,     MAILLE = 'MA000001', NOM_CHAM = 'SIGM_ELNO_DEPL',
              NOEUD = 'NO000001', NOM_CMP = 'SIYY',  VALE = -0.19780E+0),
            _F(  RESULTAT = DEPLDI2,  CRITERE = 'RELATIF',   PRECISION = 4.E-4,
        NUME_ORDRE = 1,     MAILLE = 'MA000029', NOM_CHAM = 'SIGM_ELNO_DEPL',
              NOEUD = 'NO000033', NOM_CMP = 'SIYY',  VALE = -0.19780E+0),
#
            _F(  RESULTAT = DEPLDI2T,  CRITERE = 'RELATIF',   PRECISION = 4.E-4,
        NUME_ORDRE = 1,     MAILLE = 'MA000001', NOM_CHAM = 'SIGM_ELNO_DEPL',
              NOEUD = 'NO000001', NOM_CMP = 'SIYY',  VALE = -0.19780E+0),
            _F(  RESULTAT = DEPLDI2T,  CRITERE = 'RELATIF',   PRECISION = 4.E-4,
        NUME_ORDRE = 1,     MAILLE = 'MA000029', NOM_CHAM = 'SIGM_ELNO_DEPL',
              NOEUD = 'NO000033', NOM_CMP = 'SIYY',  VALE = -0.19780E+0))
            )

#---------------------------------------------------------------------
CHTH2=AFFE_CHAR_THER( MODELE=MOTHER,
        TEMP_IMPO=_F( TOUT = 'OUI', TEMP_INF = 0.1,   TEMP_SUP = 0.1)
                       )
LINST=DEFI_LIST_REEL(VALE=(0., 1., 2.,))

TEMPLI3=THER_LINEAIRE(MODELE=MOTHER, CHAM_MATER=CHMATHE, CARA_ELEM=CARETHE,
                      INCREMENT=_F(LIST_INST=LINST),
                      EXCIT=_F( CHARGE = CHTH2) )

CREA_RESU( reuse=TEMPLI3,  OPERATION='AFFE', TYPE_RESU='EVOL_THER',
           NOM_CHAM='TEMP',
           AFFE=_F(  CHAM_GD = T_INIT, INST = -1.), )


TEMPER3=CREA_RESU(  OPERATION='PREP_VRC2', TYPE_RESU='EVOL_THER',
    PREP_VRC2= _F(  MODELE=MO, CARA_ELEM=CARE, EVOL_THER = TEMPLI3, ),)


CHMAT3=AFFE_MATERIAU(  MAILLAGE=MA,
                        AFFE=_F(  TOUT = 'OUI', MATER = MAT),
                        AFFE_VARC=  _F(TOUT='OUI',EVOL=TEMPER3,NOM_VARC='TEMP',
                     NOM_CHAM='TEMP',PROL_DROITE='CONSTANT',VALE_REF=0.0),)

CHDI3=AFFE_CHAR_MECA(  MODELE=MO,
           DDL_IMPO=(_F(  GROUP_NO = 'KNSANSKN',     DZ = 0.,  DRX = 0., DRY = 0.),
                     _F(  GROUP_NO = 'LMSANSLM',     DZ = 0.,  DRX = 0., DRY = 0.),
                     _F(  GROUP_NO = 'KL',   DY = 0.,          DRX = 0., DRZ = 0.),
                     _F(  GROUP_NO = 'MN',   DX = 0.,          DRY = 0., DRZ = 0.),
                     _F(  GROUP_NO = 'KETL',         DZ = 0.,  DRY = 0.),
                     _F(  GROUP_NO = 'METN',         DZ = 0.,  DRX = 0.))
                                                            )

RAMPE=DEFI_FONCTION(   NOM_PARA='INST',
            PROL_GAUCHE='LINEAIRE',   PROL_DROITE='LINEAIRE',
            VALE=(0.0,0.0,1.0,1.0,)
           )

L_INST=DEFI_LIST_REEL(  DEBUT=-1.0,
                INTERVALLE=_F( JUSQU_A = 1.,  NOMBRE = 2) )

U=STAT_NON_LINE(            MODELE=MO,
                        CHAM_MATER=CHMAT3,
                         CARA_ELEM=CARE,
                             EXCIT=_F( CHARGE = CHDI3),
                         COMP_INCR=_F( RELATION = 'VMIS_ISOT_LINE',
                                       ITER_INTE_MAXI = 30,
                                       RESI_INTE_RELA = 1.E-8,),
                         INCREMENT=_F( LIST_INST = L_INST),
                            NEWTON=_F( MATRICE = 'TANGENTE',
                                       REAC_ITER = 1),
                       CONVERGENCE=_F( RESI_GLOB_RELA = 1.E-8,
                                       ITER_GLOB_MAXI = 30),
                     RECH_LINEAIRE=_F( ITER_LINE_MAXI = 3)
              )

CALC_ELEM( reuse=U, RESULTAT=U,
           OPTION=('SIEF_ELNO_ELGA',  'VARI_ELNO_ELGA',),  )


V=STAT_NON_LINE(            MODELE=MO,
                        CHAM_MATER=CHMAT3,
                         CARA_ELEM=CARE,
                             EXCIT=_F( CHARGE = CHDI3),
                         COMP_ELAS=_F( RELATION = 'ELAS',
                                       DEFORMATION = 'GROT_GDEP', ),
                         INCREMENT=_F( LIST_INST = L_INST),
                            NEWTON=_F( MATRICE = 'ELASTIQUE',
                                       REAC_ITER = 1),
                       CONVERGENCE=_F( RESI_GLOB_RELA = 1.E-8,
                                       ITER_GLOB_MAXI = 30),
                     RECH_LINEAIRE=_F( ITER_LINE_MAXI = 3)
              )

CALC_ELEM( reuse=V, RESULTAT=V,
           OPTION=( 'SIEF_ELNO_ELGA',  'VARI_ELNO_ELGA',), )

W=STAT_NON_LINE(           MODELE=MO,
                        CHAM_MATER=CHMAT3,
                         CARA_ELEM=CARE,
                             EXCIT=_F( CHARGE = CHDI3),
                         COMP_INCR=_F( RELATION = 'ELAS',
                                       DEFORMATION = 'GROT_GDEP', ),
                         INCREMENT=_F( LIST_INST = L_INST),
                            NEWTON=_F( MATRICE = 'ELASTIQUE',
                                       REAC_ITER = 1),
                       CONVERGENCE=_F( RESI_GLOB_RELA = 1.E-8,
                                       ITER_GLOB_MAXI = 30),
                     RECH_LINEAIRE=_F( ITER_LINE_MAXI = 3)
              )

CALC_ELEM( reuse=W, RESULTAT=W,
           OPTION=('SIEF_ELNO_ELGA',  'VARI_ELNO_ELGA',), )

# ------------------------------------------------------------------

TEST_RESU(RESU=(

      # DEPLACEMENTS
             _F(  RESULTAT = U,        CRITERE = 'RELATIF',   PRECISION = 1.E-4,
               NUME_ORDRE = 2,     NOM_CHAM = 'DEPL',
               NOEUD = 'NO000001', NOM_CMP = 'DX',     VALE = 25.9956E-6),
             _F(  RESULTAT = U,        CRITERE = 'RELATIF',   PRECISION = 1.E-4,
               NUME_ORDRE = 2,     NOM_CHAM = 'DEPL',
               NOEUD = 'NO000033', NOM_CMP = 'DY',     VALE = 25.9946E-6),
#
             _F(  RESULTAT = V,        CRITERE = 'RELATIF',   PRECISION = 1.E-4,
               NUME_ORDRE = 2,     NOM_CHAM = 'DEPL',
               NOEUD = 'NO000001', NOM_CMP = 'DX',     VALE = 25.9956E-6),
             _F(  RESULTAT = V,        CRITERE = 'RELATIF',   PRECISION = 1.E-4,
               NUME_ORDRE = 2,     NOM_CHAM = 'DEPL',
               NOEUD = 'NO000033', NOM_CMP = 'DY',     VALE = 25.9946E-6),
#
             _F(  RESULTAT = W,        CRITERE = 'RELATIF',   PRECISION = 1.E-4,
               NUME_ORDRE = 2,     NOM_CHAM = 'DEPL',
               NOEUD = 'NO000001', NOM_CMP = 'DX',     VALE = 25.9956E-6),
             _F(  RESULTAT = W,        CRITERE = 'RELATIF',   PRECISION = 1.E-4,
               NUME_ORDRE = 2,     NOM_CHAM = 'DEPL',
               NOEUD = 'NO000033', NOM_CMP = 'DY',     VALE = 25.9946E-6),
#
    # EFFORTS GENERALISES
             _F(  RESULTAT = U,        CRITERE = 'RELATIF',   PRECISION = 1.E-5,
        NUME_ORDRE = 2,     MAILLE = 'MA000001', NOM_CHAM = 'SIEF_ELNO_ELGA',
               NOEUD = 'NO000001', NOM_CMP = 'NYY',   VALE = -0.20000E+0),
             _F(  RESULTAT = U,        CRITERE = 'RELATIF',   PRECISION = 1.E-5,
        NUME_ORDRE = 2,     MAILLE = 'MA000029', NOM_CHAM = 'SIEF_ELNO_ELGA',
               NOEUD = 'NO000033', NOM_CMP = 'NYY',   VALE = -0.20000E+0),
#
             _F(  RESULTAT = V,        CRITERE = 'RELATIF',   PRECISION = 1.E-5,
        NUME_ORDRE = 2,     MAILLE = 'MA000001', NOM_CHAM = 'SIEF_ELNO_ELGA',
               NOEUD = 'NO000001', NOM_CMP = 'NYY',   VALE = -0.20000E+0),
             _F(  RESULTAT = V,        CRITERE = 'RELATIF',   PRECISION = 1.E-5,
        NUME_ORDRE = 2,     MAILLE = 'MA000029', NOM_CHAM = 'SIEF_ELNO_ELGA',
               NOEUD = 'NO000033', NOM_CMP = 'NYY',   VALE = -0.20000E+0),
#
             _F(  RESULTAT = W,        CRITERE = 'RELATIF',   PRECISION = 1.E-5,
        NUME_ORDRE = 2,     MAILLE = 'MA000001', NOM_CHAM = 'SIEF_ELNO_ELGA',
               NOEUD = 'NO000001', NOM_CMP = 'NYY',   VALE = -0.20000E+0),
             _F(  RESULTAT = W,        CRITERE = 'RELATIF',   PRECISION = 1.E-5,
        NUME_ORDRE = 2,     MAILLE = 'MA000029', NOM_CHAM = 'SIEF_ELNO_ELGA',
               NOEUD = 'NO000033', NOM_CMP = 'NYY',   VALE = -0.20000E+0),),
            )

#---------------------------------------------------------------------

T_POT=POST_ELEM(  RESULTAT=U,
                  CHARGE=CHDI3,
                  NIVE_COUCHE='INF',
                  ENER_POT=_F( TOUT = 'OUI',)  )

IMPR_TABLE ( TABLE=T_POT )

# VERSION=6.02.21 avec ou sans charge thermique :  5.83316E-05  (1/2U)
#                 on ne tenait pas compte de la dilatation thermique
# VERSION=6.02.22 avec charge thermique : -5.83316E-05  (1/2U - Th)

TEST_TABLE ( TABLE=T_POT,
             FILTRE=_F(NOM_PARA='NUME_ORDRE',
                       VALE_I=1),
             NOM_PARA='TOTALE',
             REFERENCE='NON_REGRESSION', VERSION='6.02.22',
             VALE=-5.83316E-05    )

#
FIN()
