# MODIF  DATE 11/06/2012   AUTEUR PELLET J.PELLET 
# TITRE CYLINDRE CREUX THERMOELASTIQUE PESANT EN ROTATION UNIFORME
# hpla100a.para = tps_job 60 mem_job 300Mo ncpus 1 liste_test S
#            CONFIGURATION MANAGEMENT OF EDF VERSION
# ======================================================================
# COPYRIGHT (C) 1991 - 2012  EDF R&D                  WWW.CODE-ASTER.ORG
# THIS PROGRAM IS FREE SOFTWARE; YOU CAN REDISTRIBUTE IT AND/OR MODIFY
# IT UNDER THE TERMS OF THE GNU GENERAL PUBLIC LICENSE AS PUBLISHED BY
# THE FREE SOFTWARE FOUNDATION; EITHER VERSION 2 OF THE LICENSE, OR
# (AT YOUR OPTION) ANY LATER VERSION.
#
# THIS PROGRAM IS DISTRIBUTED IN THE HOPE THAT IT WILL BE USEFUL, BUT
# WITHOUT ANY WARRANTY; WITHOUT EVEN THE IMPLIED WARRANTY OF
# MERCHANTABILITY OR FITNESS FOR A PARTICULAR PURPOSE. SEE THE GNU
# GENERAL PUBLIC LICENSE FOR MORE DETAILS.
#
# YOU SHOULD HAVE RECEIVED A COPY OF THE GNU GENERAL PUBLIC LICENSE
# ALONG WITH THIS PROGRAM; IF NOT, WRITE TO EDF R&D CODE_ASTER,
#    1 AVENUE DU GENERAL DE GAULLE, 92141 CLAMART CEDEX, FRANCE.
# ======================================================================

DEBUT(CODE=_F(NOM='HPLA100A',
              NIV_PUB_WEB='INTERNET',),
      DEBUG=_F(SDVERI='OUI',),);

#......................................................................
#
# MODELISATION 2D_AXIS:   121 NOEUDS -- 32 MAILLES QUA8
#......................................................................
#
#        INTERNE                   EXTERNE
#               D -----+----- C
# !               !    J    !
#                 !         !
# !               !         !
#                 !         !        10 MM
# !               !         !
#                 !         !
# !               !    F    !
#     19.5 MM   A -----+-----  B
# !-------------->   1.0 MM
#                 <--------->
#======================================================================
#PRE_GIBI()

MA=LIRE_MAILLAGE(FORMAT='MED',);

MA=DEFI_GROUP(reuse =MA,
              MAILLAGE=MA,
              CREA_GROUP_NO=_F(TOUT_GROUP_MA='OUI',),);

MO=AFFE_MODELE(MAILLAGE=MA,
               AFFE=_F(TOUT='OUI',
                       PHENOMENE='MECANIQUE',
                       MODELISATION='AXIS',),);

MOTHER=AFFE_MODELE(MAILLAGE=MA,
                   AFFE=_F(TOUT='OUI',
                           PHENOMENE='THERMIQUE',
                           MODELISATION='PLAN',),);

MAT=DEFI_MATERIAU(ELAS=_F(E=2.0E+5,
                          NU=0.3,
                          RHO=8.E-6,
                          ALPHA=1.E-5,),);

MATHER=DEFI_MATERIAU(THER=_F(LAMBDA=1.0,
                             RHO_CP=0.0,),);

CHMAT=AFFE_MATERIAU(MAILLAGE=MA,
                    AFFE=_F(TOUT='OUI',
                            MATER=MAT,),);

CHMATHE=AFFE_MATERIAU(MAILLAGE=MA,
                      AFFE=_F(TOUT='OUI',
                              MATER=MATHER,),);

# ------------------------------------------------------------------

CHTHE=AFFE_CHAR_THER(MODELE=MOTHER,
                     TEMP_IMPO=(_F(GROUP_NO='BC',
                                   TEMP=0.5,),
                                _F(GROUP_NO='DA',
                                   TEMP=-0.5,),),);

CHTH2=AFFE_CHAR_THER(MODELE=MOTHER,
                     TEMP_IMPO=(_F(GROUP_NO='BC',
                                   TEMP=0.1,),
                                _F(GROUP_NO='DA',
                                   TEMP=0.1,),),);

TEMPLIN=THER_LINEAIRE(MODELE=MOTHER,
                      CHAM_MATER=CHMATHE,
                      EXCIT=_F(CHARGE=CHTHE,),);

TEMPLI2=THER_LINEAIRE(MODELE=MOTHER,
                      CHAM_MATER=CHMATHE,
                      EXCIT=_F(CHARGE=CHTH2,),);

# ------------------------------------------------------------------

CHPES=AFFE_CHAR_MECA(MODELE=MO,
                     PESANTEUR=_F(GRAVITE=10.0,
                                  DIRECTION=(0.,-1.,0.,),),
                     DDL_IMPO=_F(GROUP_NO='F',
                                 DY=0.,),
                     PRES_REP=_F(GROUP_MA='HAUT',
                                 PRES=-8.E-4,),);

CHROT=AFFE_CHAR_MECA(MODELE=MO,
                     ROTATION=_F(GROUP_MA='ZONE1',
                                 MAILLE=
                                 ('M17','M18','M19','M20','M21','M22','M23','M24','M25',
                                          'M26','M27','M28','M29','M30','M31','M32',),
                                 VITESSE=1.,
                                 AXE=(0.,1.,0.,),),
                     DDL_IMPO=(_F(GROUP_NO='BAS',
                                  DY=0.,),
                               _F(GROUP_NO='HAUT',
                                  DY=0.,),),);

IMPR_CO(CONCEPT=_F(NOM=CHROT,),);

CHDIL=AFFE_CHAR_MECA(MODELE=MO,
                     DDL_IMPO=_F(GROUP_NO='TOUT',
                                 DY=0.,),);

CHDI2=AFFE_CHAR_MECA(MODELE=MO,
                     DDL_IMPO=(_F(GROUP_NO='BAS',
                                  DY=0.,),
                               _F(GROUP_NO='HAUT',
                                  DY=0.,),),);

CHMTM=AFFE_MATERIAU(MAILLAGE=MA,
                    AFFE=_F(TOUT='OUI',
                            MATER=MAT,),
                    AFFE_VARC=_F(TOUT='OUI',
                                 NOM_VARC='TEMP',
                                 EVOL=TEMPLIN,
                                 NOM_CHAM='TEMP',
                                 VALE_REF=0.0,),);

CHMTM2=AFFE_MATERIAU(MAILLAGE=MA,
                     AFFE=_F(TOUT='OUI',
                             MATER=MAT,),
                     AFFE_VARC=_F(TOUT='OUI',
                                  NOM_VARC='TEMP',
                                  EVOL=TEMPLI2,
                                  NOM_CHAM='TEMP',
                                  VALE_REF=0.0,),);

# ------------------------------------------------------------------

DEPLPES=MECA_STATIQUE(MODELE=MO,
                      CHAM_MATER=CHMAT,
                      EXCIT=_F(CHARGE=CHPES,),);

DEPLPES=CALC_CHAMP(reuse=DEPLPES,RESULTAT=DEPLPES,CONTRAINTE=('SIGM_ELNO'),DEFORMATION=('EPME_ELNO','EPSI_ELNO'))


DEPLROT=MECA_STATIQUE(MODELE=MO,
                      CHAM_MATER=CHMAT,
                      EXCIT=_F(CHARGE=CHROT,),);

DEPLROT=CALC_CHAMP(reuse=DEPLROT,RESULTAT=DEPLROT,CONTRAINTE=('SIGM_ELNO'),DEFORMATION=('EPME_ELNO','EPSI_ELNO'))


DEPLDIL=MECA_STATIQUE(MODELE=MO,
                      CHAM_MATER=CHMTM,
                      EXCIT=_F(CHARGE=CHDIL,),);

DEPLDIL=CALC_CHAMP(reuse=DEPLDIL,RESULTAT=DEPLDIL,CONTRAINTE=('SIGM_ELNO'),DEFORMATION=('EPME_ELNO','EPSI_ELNO'))


DEPLDI2=MECA_STATIQUE(MODELE=MO,
                      CHAM_MATER=CHMTM2,
                      EXCIT=_F(CHARGE=CHDI2,),);

DEPLDI2=CALC_CHAMP(reuse=DEPLDI2,RESULTAT=DEPLDI2,CONTRAINTE=('SIGM_ELNO'),DEFORMATION=('EPME_ELNO','EPSI_ELNO'))


#---------------------------------------------------------------------

T_POT=POST_ELEM(ENER_POT=_F(TOUT='OUI',),
                CHARGE=CHDIL,
                RESULTAT=DEPLDIL,);

IMPR_TABLE(TABLE=T_POT,);

# VERSION=6.02.21 sans charge thermique :  7.73874E-04  (1/2U)
# VERSION=6.02.21 avec charge thermique :  5.43077E-19  (1/2U - 1/2Th)
# VERSION=6.02.22 avec charge thermique : -7.73874E-04  (1/2U - Th)

TEST_TABLE(TABLE=T_POT,
           NOM_PARA='TOTALE',
           VALE=0.000476125999961,
           REFERENCE='NON_REGRESSION',
           VERSION='6.03.20',);

#---------------------------------------------------------------------

TEST_RESU(RESU=(_F(RESULTAT=DEPLPES,
                   NUME_ORDRE=1,
                   NOM_CHAM='DEPL',
                   NOM_CMP='DX',
                   GROUP_NO='D',
                   VALE=-2.34e-08,
                   CRITERE='RELATIF',
                   PRECISION=1e-05,),
                _F(RESULTAT=DEPLPES,
                   NUME_ORDRE=1,
                   NOM_CHAM='DEPL',
                   NOM_CMP='DY',
                   GROUP_NO='A',
                   VALE=-1.185e-09,
                   CRITERE='RELATIF',
                   PRECISION=1e-05,),
                _F(RESULTAT=DEPLPES,
                   NUME_ORDRE=1,
                   NOM_CHAM='DEPL',
                   NOM_CMP='DX',
                   GROUP_NO='D',
                   VALE=-2.34e-08,
                   CRITERE='RELATIF',
                   PRECISION=1e-05,),
                _F(RESULTAT=DEPLPES,
                   NUME_ORDRE=1,
                   NOM_CHAM='DEPL',
                   NOM_CMP='DY',
                   GROUP_NO='B',
                   VALE=1.215e-09,
                   CRITERE='RELATIF',
                   PRECISION=1e-05,),
                _F(RESULTAT=DEPLROT,
                   NUME_ORDRE=1,
                   NOM_CHAM='DEPL',
                   NOM_CMP='DX',
                   GROUP_NO='A',
                   VALE=2.9424e-07,
                   CRITERE='RELATIF',
                   PRECISION=2e-05,),
                _F(RESULTAT=DEPLROT,
                   NUME_ORDRE=1,
                   NOM_CHAM='DEPL',
                   NOM_CMP='DX',
                   GROUP_NO='B',
                   VALE=2.8801e-07,
                   CRITERE='RELATIF',
                   PRECISION=2e-05,),
                _F(RESULTAT=DEPLDIL,
                   NUME_ORDRE=1,
                   NOM_CHAM='DEPL',
                   NOM_CMP='DX',
                   GROUP_NO='A',
                   VALE=1.056145e-06,
                   CRITERE='RELATIF',
                   PRECISION=0.0002,),
                _F(RESULTAT=DEPLDIL,
                   NUME_ORDRE=1,
                   NOM_CHAM='DEPL',
                   NOM_CMP='DX',
                   GROUP_NO='B',
                   VALE=1.110317e-06,
                   CRITERE='RELATIF',
                   PRECISION=0.0001,),
                _F(RESULTAT=DEPLDI2,
                   NUME_ORDRE=1,
                   NOM_CHAM='DEPL',
                   NOM_CMP='DX',
                   GROUP_NO='A',
                   VALE=2.535e-05,
                   CRITERE='RELATIF',
                   PRECISION=1e-05,),
                _F(RESULTAT=DEPLPES,
                   NUME_ORDRE=1,
                   NOM_CHAM='SIGM_ELNO',
                   NOM_CMP='SIYY',
                   MAILLE='M13',
                   GROUP_NO='D',
                   VALE=0.0008,
                   CRITERE='RELATIF',
                   PRECISION=2e-05,),
                _F(RESULTAT=DEPLROT,
                   NUME_ORDRE=1,
                   NOM_CHAM='SIGM_ELNO',
                   NOM_CMP='SIYY',
                   MAILLE='M1',
                   GROUP_NO='A',
                   VALE=0.00099488,
                   CRITERE='RELATIF',
                   PRECISION=2e-05,),
                _F(RESULTAT=DEPLROT,
                   NUME_ORDRE=1,
                   NOM_CHAM='SIGM_ELNO',
                   NOM_CMP='SIYY',
                   MAILLE='M32',
                   GROUP_NO='B',
                   VALE=0.00092631,
                   CRITERE='RELATIF',
                   PRECISION=2e-05,),
                _F(RESULTAT=DEPLDIL,
                   NUME_ORDRE=1,
                   NOM_CHAM='SIGM_ELNO',
                   NOM_CMP='SIYY',
                   MAILLE='M1',
                   GROUP_NO='A',
                   VALE=1.4321583,
                   CRITERE='RELATIF',
                   PRECISION=1e-05,),
                _F(RESULTAT=DEPLDI2,
                   NUME_ORDRE=1,
                   NOM_CHAM='SIGM_ELNO',
                   NOM_CMP='SIYY',
                   MAILLE='M1',
                   GROUP_NO='A',
                   VALE=-0.2,
                   CRITERE='RELATIF',
                   PRECISION=1e-05,),
                _F(RESULTAT=DEPLDIL,
                   NUME_ORDRE=1,
                   NOM_CHAM='EPME_ELNO',
                   NOM_CMP='EPYY',
                   MAILLE='M1',
                   GROUP_NO='A',
                   VALE=5e-06,
                   CRITERE='RELATIF',
                   PRECISION=1e-05,),
                _F(RESULTAT=DEPLDI2,
                   NUME_ORDRE=1,
                   NOM_CHAM='EPME_ELNO',
                   NOM_CMP='EPYY',
                   MAILLE='M1',
                   GROUP_NO='A',
                   VALE=-1e-06,
                   CRITERE='RELATIF',
                   PRECISION=1e-05,),),);

FIN();

#

