# TITRE CYLINDRE CREUX THERMOELASTIQUE PESANT EN ROTATION UNIFORME
# ======================================================================
# COPYRIGHT (C) 1991 - 2013  EDF R&D                  WWW.CODE-ASTER.ORG
# THIS PROGRAM IS FREE SOFTWARE; YOU CAN REDISTRIBUTE IT AND/OR MODIFY
# IT UNDER THE TERMS OF THE GNU GENERAL PUBLIC LICENSE AS PUBLISHED BY
# THE FREE SOFTWARE FOUNDATION; EITHER VERSION 2 OF THE LICENSE, OR
# (AT YOUR OPTION) ANY LATER VERSION.
#
# THIS PROGRAM IS DISTRIBUTED IN THE HOPE THAT IT WILL BE USEFUL, BUT
# WITHOUT ANY WARRANTY; WITHOUT EVEN THE IMPLIED WARRANTY OF
# MERCHANTABILITY OR FITNESS FOR A PARTICULAR PURPOSE. SEE THE GNU
# GENERAL PUBLIC LICENSE FOR MORE DETAILS.
#
# YOU SHOULD HAVE RECEIVED A COPY OF THE GNU GENERAL PUBLIC LICENSE
# ALONG WITH THIS PROGRAM; IF NOT, WRITE TO EDF R&D CODE_ASTER,
#    1 AVENUE DU GENERAL DE GAULLE, 92141 CLAMART CEDEX, FRANCE.
# ======================================================================

DEBUT(CODE=_F(NIV_PUB_WEB='INTERNET'),DEBUG=_F(SDVERI='OUI'))

#......................................................................
#
# MODELISATION COQUE_AXIS:   21 NOEUDS -- 10 MAILLES SEG3
#                            LOVE_KIRCHHOFF (KAPPA = 1.0E6)
#......................................................................
# POINTS:   F:     H:      J:
# GROUP_:  GRNO6  GRNO14  GRNO13
#
#        INTERNE    EXTERNE
#               J -         -
# !               !         !
#                 !         !
# !               !         !
#               H !         ! 10 MM
# !               !         !
#                 !         !
# !               !         !
#     20.0 MM   F +         -
# !-------------->
#======================================================================

MA=LIRE_MAILLAGE(  )

DEFI_GROUP( reuse=MA,   MAILLAGE=MA,
            CREA_GROUP_MA=_F(  NOM = 'TOUT', TOUT = 'OUI'))

MO=AFFE_MODELE(  MAILLAGE=MA,
                 AFFE=_F( TOUT = 'OUI',PHENOMENE = 'MECANIQUE',
                          MODELISATION = 'COQUE_AXIS'))

MOTHER=AFFE_MODELE(  MAILLAGE=MA,
                     AFFE=_F( TOUT = 'OUI',PHENOMENE = 'THERMIQUE',
                              MODELISATION = 'COQUE_AXIS'))

E_TEMP=DEFI_FONCTION(NOM_PARA='TEMP',
                     VALE=(-1., 2.0E+05,
                            0., 2.0E+05,
                            1., 2.0E+05))

NU_FO=DEFI_CONSTANTE(VALE=0.3)

ALPHA_FO=DEFI_CONSTANTE(VALE=1.E-5)

MAT=DEFI_MATERIAU(ELAS=_F( E = 2.0E+5, NU = 0.3, RHO = 8.E-6 , ALPHA = 1.E-5))


RHOF=DEFI_CONSTANTE(VALE = 8.E-6,)
MATTH=DEFI_MATERIAU(ELAS_FO=_F( E = E_TEMP, NU = NU_FO, RHO = RHOF,
                                ALPHA = ALPHA_FO, TEMP_DEF_ALPHA=0.))

MATHER=DEFI_MATERIAU(THER=_F( LAMBDA = 1.0, RHO_CP = 0.0) )


CARE=AFFE_CARA_ELEM(   MODELE=MO,
                       COQUE=_F( GROUP_MA = 'TOUT',
                                 EPAIS = 1.00,
                                 A_CIS = 1.E3,    MODI_METRIQUE = 'NON'))
# ------------------------------------------------------------------
# ------------------------------------------------------------------
# ------------------------------------------------------------------
# ------------------------------------------------------------------

CHMATHER=AFFE_MATERIAU(  MAILLAGE=MA,
                      AFFE=_F(  TOUT = 'OUI', MATER = MATHER))


CH_INI=AFFE_CHAR_THER(MODELE=MOTHER,
                      TEMP_IMPO=_F( TOUT='OUI',
                      TEMP_INF = 0., 
                      TEMP_SUP = 0.,))
CH_FIN1=AFFE_CHAR_THER(MODELE=MOTHER,
                      TEMP_IMPO=_F( TOUT='OUI',
                      TEMP_INF = -0.5, 
TEMP_SUP = +0.5,))
CH_FIN2=AFFE_CHAR_THER(MODELE=MOTHER,
                      TEMP_IMPO=_F( TOUT='OUI',
                      TEMP_INF = 0.1, 
                      TEMP_SUP = 0.1,))
#
# RESOLUTION ------------------------------------------------------
#

TEM_INIT=THER_LINEAIRE(MODELE=MOTHER,
                       CARA_ELEM=CARE,
                       CHAM_MATER=CHMATHER,
                       EXCIT=_F(  CHARGE = CH_INI) )

IMPR_RESU(RESU=_F(RESULTAT=TEM_INIT))

TEM_FIN1=THER_LINEAIRE(MODELE=MOTHER,
                       CARA_ELEM=CARE,
                       CHAM_MATER=CHMATHER,
                       EXCIT=_F(  CHARGE = CH_FIN1) )

IMPR_RESU(RESU=_F(RESULTAT=TEM_FIN1))

TEM_FIN2=THER_LINEAIRE(MODELE=MOTHER,
                       CARA_ELEM=CARE,
                       CHAM_MATER=CHMATHER,
                       EXCIT=_F(  CHARGE = CH_FIN2) )

IMPR_RESU(RESU=_F(RESULTAT=TEM_FIN2))

# ------------------------------------------------------------------
# ------------------------------------------------------------------
# ------------------------------------------------------------------
# ------------------------------------------------------------------

T_INIT=CREA_CHAMP( OPERATION='EXTR', 
                   TYPE_CHAM='NOEU_TEMP_R', 
                   NOM_CHAM='TEMP',
                   RESULTAT=TEM_INIT)

IMPR_RESU(RESU=_F(CHAM_GD=T_INIT))

T_FIN1=CREA_CHAMP( OPERATION='EXTR', 
                   TYPE_CHAM='NOEU_TEMP_R', 
                   NOM_CHAM='TEMP',
                   RESULTAT=TEM_FIN1)

IMPR_RESU(RESU=_F(CHAM_GD=T_FIN1))

T_FIN2=CREA_CHAMP( OPERATION='EXTR', 
                   TYPE_CHAM='NOEU_TEMP_R', 
                   NOM_CHAM='TEMP',
                   RESULTAT=TEM_FIN2)

IMPR_RESU(RESU=_F(CHAM_GD=T_FIN2))

TEMPLI1=CREA_RESU( OPERATION='AFFE',
                   TYPE_RESU='EVOL_THER',
                   NOM_CHAM='TEMP',
                   AFFE=(_F( CHAM_GD=T_INIT,
                             INST=0.0,      ),
                         _F( CHAM_GD=T_FIN1,
                             INST=1.0,      ), ), );

TEMPLI2=CREA_RESU( OPERATION='AFFE',
                   TYPE_RESU='EVOL_THER',
                   NOM_CHAM='TEMP',
                   AFFE=(_F( CHAM_GD=T_FIN2,
                             INST=0.0,      ), ), );

TEMPER1=CREA_RESU(  OPERATION='PREP_VRC2', TYPE_RESU='EVOL_THER',
    PREP_VRC2= _F(  MODELE=MO, CARA_ELEM=CARE, EVOL_THER = TEMPLI1, ),)
TEMPER2=CREA_RESU(  OPERATION='PREP_VRC2', TYPE_RESU='EVOL_THER',
    PREP_VRC2= _F(  MODELE=MO, CARA_ELEM=CARE, EVOL_THER = TEMPLI2, ),)
# ------------------------------------------------------------------

CHMAT=AFFE_MATERIAU(  MAILLAGE=MA,
                      AFFE=_F(  TOUT = 'OUI', MATER = MAT))
CHMAT1=AFFE_MATERIAU(  MAILLAGE=MA,
                      AFFE=_F(  TOUT = 'OUI', MATER = MAT),
                      AFFE_VARC=  _F(TOUT='OUI',EVOL=TEMPER1,NOM_VARC='TEMP',
                                     NOM_CHAM='TEMP',VALE_REF=0.0), )

CHMAT2=AFFE_MATERIAU(  MAILLAGE=MA,
                      AFFE=_F(  TOUT = 'OUI', MATER = MAT),
                      AFFE_VARC=  _F(TOUT='OUI',EVOL=TEMPER2,NOM_VARC='TEMP',
                                     NOM_CHAM='TEMP',VALE_REF=0.0), )

CHMATH2=AFFE_MATERIAU(  MAILLAGE=MA,
                       AFFE=_F(  TOUT = 'OUI', MATER = MATTH),
                       AFFE_VARC=  _F(TOUT='OUI',EVOL=TEMPER2,NOM_VARC='TEMP',
                                      NOM_CHAM='TEMP',VALE_REF=0.0), );
CHMATH1=AFFE_MATERIAU(  MAILLAGE=MA,
                       AFFE=_F(  TOUT = 'OUI', MATER = MATTH),
                       AFFE_VARC=  _F(TOUT='OUI',EVOL=TEMPER1,NOM_VARC='TEMP',
                                      NOM_CHAM='TEMP',VALE_REF=0.0), );

# ------------------------------------------------------------------

CHPES=AFFE_CHAR_MECA(  MODELE=MO,
          PESANTEUR=_F(GRAVITE=10.0,
                     DIRECTION=(0.,-1.,0.,),),
          FORCE_NODALE=_F(  NOEUD = 'J',        FY = 160.E-4),
           DDL_IMPO=_F(  GROUP_NO = 'GRNO6',    DY = 0.) )

CHROT=AFFE_CHAR_MECA(  MODELE=MO,
           ROTATION=_F(VITESSE=1.0,
                       AXE=(0.0,1.0,0.0),),
           DDL_IMPO=(
           _F(  GROUP_NO = 'GRNO6',    DY = 0., DRZ = 0.),
                    _F(  GROUP_NO = 'GRNO13',   DY = 0., DRZ = 0.)) )

CHDIL=AFFE_CHAR_MECA(  MODELE=MO,
           DDL_IMPO= _F(  GROUP_NO = 'GRNO15',   DY = 0., DRZ = 0.) )

CHDI2=AFFE_CHAR_MECA(  MODELE=MO,
           DDL_IMPO=(_F(  GROUP_NO = 'GRNO6',    DY = 0., DRZ = 0.),
                     _F(  GROUP_NO = 'GRNO13',   DY = 0., DRZ = 0.)) )

# ------------------------------------------------------------------

DEPLPES=MECA_STATIQUE(MODELE=MO,
                      CHAM_MATER=CHMAT,
                      CARA_ELEM=CARE,
                      EXCIT=_F(CHARGE=CHPES),);

DEPLPES=CALC_CHAMP(reuse=DEPLPES,RESULTAT=DEPLPES,CONTRAINTE=('EFGE_ELNO','SIGM_ELNO'))


DEPLPES2=POST_CHAMP(RESULTAT=DEPLPES,
                    EXTR_COQUE=_F(NOM_CHAM='SIGM_ELNO',
                                  NUME_COUCHE=1,
                                  NIVE_COUCHE='INF',),);
# ------------------------------------------------------------------
DEPLROT=MECA_STATIQUE(MODELE=MO,
                      CHAM_MATER=CHMAT,
                      CARA_ELEM=CARE,
                      EXCIT=_F(CHARGE=CHROT),);

DEPLROT=CALC_CHAMP(reuse=DEPLROT,RESULTAT=DEPLROT,CONTRAINTE=('EFGE_ELNO','SIGM_ELNO'))


DEPLROT2=POST_CHAMP(RESULTAT=DEPLROT,
                    EXTR_COQUE=_F(NOM_CHAM='SIGM_ELNO',
                                  NUME_COUCHE=1,
                                  NIVE_COUCHE='INF',),);
# ------------------------------------------------------------------
LISTIME=DEFI_LIST_REEL(VALE=(0.0,1.0,),);

STATNL1=STAT_NON_LINE(MODELE=MO,
                      CHAM_MATER=CHMAT1,
                      CARA_ELEM=CARE,
                      COMPORTEMENT=_F(RELATION='ELAS'),
                      EXCIT=_F(CHARGE=CHDIL),
                      INCREMENT=_F(LIST_INST=LISTIME,),);

DEP1=CREA_CHAMP(OPERATION='EXTR',
                TYPE_CHAM='NOEU_DEPL_R',
                RESULTAT=STATNL1,
                NOM_CHAM='DEPL',
                INST=1.,);

DEPLDIL=CREA_RESU(OPERATION='AFFE',
                  TYPE_RESU='EVOL_ELAS',
                  NOM_CHAM='DEPL',
                  AFFE=_F(INST=1.,
                          CHAM_GD=DEP1,
                          MODELE=MO,
                          CHAM_MATER=CHMAT1,
                          CARA_ELEM=CARE,),);

DEPLDIL=CALC_CHAMP(reuse=DEPLDIL,RESULTAT=DEPLDIL,CONTRAINTE=('EFGE_ELNO','SIGM_ELNO'))


DEPLDIL2=POST_CHAMP(RESULTAT=DEPLDIL,
                    EXTR_COQUE=_F(NOM_CHAM='SIGM_ELNO',
                                  NUME_COUCHE=1,
                                  NIVE_COUCHE='INF',),);
STATNL2=STAT_NON_LINE(MODELE=MO,
                      CHAM_MATER=CHMATH1,
                      CARA_ELEM=CARE,
                      COMPORTEMENT=_F(RELATION='ELAS'),
                      EXCIT=_F(CHARGE=CHDIL),
                      INCREMENT=_F(LIST_INST=LISTIME,),);

DEP2=CREA_CHAMP(OPERATION='EXTR',
                TYPE_CHAM='NOEU_DEPL_R',
                RESULTAT=STATNL2,
                NOM_CHAM='DEPL',
                INST=1.,);

DEPLDILT=CREA_RESU(OPERATION='AFFE',
                   TYPE_RESU='EVOL_ELAS',
                   NOM_CHAM='DEPL',
                   AFFE=_F(INST=1.,
                           CHAM_GD=DEP2,
                           MODELE=MO,
                           CHAM_MATER=CHMATH1,
                           CARA_ELEM=CARE,),);

DEPLDILT=CALC_CHAMP(reuse=DEPLDILT,RESULTAT=DEPLDILT,CONTRAINTE=('EFGE_ELNO','SIGM_ELNO'))


DDILT2=POST_CHAMP(RESULTAT=DEPLDILT,
                    EXTR_COQUE=_F(NOM_CHAM='SIGM_ELNO',
                                  NUME_COUCHE=1,
                                  NIVE_COUCHE='INF',),);
DEPLDI2=MECA_STATIQUE(MODELE=MO,
                      CHAM_MATER=CHMAT2,
                      CARA_ELEM=CARE,
                      EXCIT=_F(CHARGE=CHDI2),);

DEPLDI2=CALC_CHAMP(reuse=DEPLDI2,RESULTAT=DEPLDI2,CONTRAINTE=('EFGE_ELNO','SIGM_ELNO'))


DDI2=POST_CHAMP(RESULTAT=DEPLDI2,
                EXTR_COQUE=_F(NOM_CHAM='SIGM_ELNO',
                              NUME_COUCHE=1,
                              NIVE_COUCHE='INF',),);
DEPLDI2T=MECA_STATIQUE(MODELE=MO,
                       CHAM_MATER=CHMATH2,
                       CARA_ELEM=CARE,
                       EXCIT=_F(CHARGE=CHDI2),);

DEPLDI2T=CALC_CHAMP(reuse=DEPLDI2T,RESULTAT=DEPLDI2T,CONTRAINTE=('EFGE_ELNO','SIGM_ELNO'))


DDI2T=POST_CHAMP(RESULTAT=DEPLDI2T,
                 EXTR_COQUE=_F(NOM_CHAM='SIGM_ELNO',
                               NUME_COUCHE=1,
                               NIVE_COUCHE='INF',),);
RELEVE_1=POST_RELEVE_T(  ACTION=_F(  GROUP_NO = 'GRNO14',
                                     INTITULE = 'EXT_TEMP',
                                     RESULTAT = TEMPLI1,
                                     NOM_CHAM = 'TEMP',
                                     TOUT_ORDRE = 'OUI',
                                     TOUT_CMP = 'OUI',
                                     OPERATION = 'EXTRACTION') )

RELEVE_2=POST_RELEVE_T(  ACTION=_F(  GROUP_NO = 'GRNO14',
                                     INTITULE = 'EXT_TEMP',
                                     RESULTAT = TEMPLI2,
                                     NOM_CHAM = 'TEMP',
                                     TOUT_ORDRE = 'OUI',
                                     TOUT_CMP = 'OUI',
                                     OPERATION = 'EXTRACTION') )

TABMASSE=POST_ELEM(        MODELE=MO,
                         CHAM_MATER=CHMAT,
                          CARA_ELEM=CARE,
                          MASS_INER=_F(  TOUT = 'OUI')
                     )

#---------------------------------------------------------------------

TEST_RESU(RESU=(_F(NUME_ORDRE=1,
                   GROUP_NO='GRNO13',
                   RESULTAT=DEPLPES,
                   NOM_CHAM='DEPL',
                   NOM_CMP='DX',
                   VALE_CALC=-2.4000000000264E-08,
                   VALE_REFE=-2.4E-08,
                   REFERENCE = 'ANALYTIQUE',
                   PRECISION=2.0E-05,
                   CRITERE='RELATIF',
                   ),
                _F(NUME_ORDRE=1,
                   GROUP_NO='GRNO14',
                   RESULTAT=DEPLPES,
                   NOM_CHAM='DEPL',
                   NOM_CMP='DY',
                   VALE_CALC=4.9999999999533E-09,
                   VALE_REFE=5.0000000000000001E-09,
                   REFERENCE = 'ANALYTIQUE',
                   PRECISION=2.0E-05,
                   CRITERE='RELATIF',
                   ),
                _F(NUME_ORDRE=1,
                   GROUP_NO='GRNO14',
                   RESULTAT=DEPLPES,
                   NOM_CHAM='DEPL',
                   NOM_CMP='DRZ',
                   VALE_CALC=2.4000000000962E-09,
                   VALE_REFE=2.4E-09,
                   REFERENCE = 'ANALYTIQUE',
                   PRECISION=2.0E-05,
                   CRITERE='RELATIF',
                   ),
                _F(NUME_ORDRE=1,
                   GROUP_NO='GRNO6',
                   RESULTAT=DEPLROT,
                   NOM_CHAM='DEPL',
                   NOM_CMP='DX',
                   VALE_CALC=2.91199999995E-07,
                   VALE_REFE=2.9120000000000001E-07,
                   REFERENCE = 'ANALYTIQUE',
                   PRECISION=2.0E-05,
                   CRITERE='RELATIF',
                   ),
                _F(NUME_ORDRE=1,
                   GROUP_NO='GRNO6',
                   RESULTAT=DEPLDI2,
                   NOM_CHAM='DEPL',
                   NOM_CMP='DX',
                   VALE_CALC=2.5999999999554E-05,
                   VALE_REFE=2.5999999999999998E-05,
                   REFERENCE = 'ANALYTIQUE',
                   PRECISION=2.0E-05,
                   CRITERE='RELATIF',
                   ),
                _F(NUME_ORDRE=1,
                   GROUP_NO='GRNO6',
                   RESULTAT=DEPLDI2T,
                   NOM_CHAM='DEPL',
                   NOM_CMP='DX',
                   VALE_CALC=2.5999999999554E-05,
                   VALE_REFE=2.5999999999999998E-05,
                   REFERENCE = 'ANALYTIQUE',
                   PRECISION=2.0E-05,
                   CRITERE='RELATIF',
                   ),
                _F(NUME_ORDRE=1,
                   GROUP_NO='GRNO13',
                   RESULTAT=DEPLPES,
                   NOM_CHAM='EFGE_ELNO',
                   NOM_CMP='NXX',
                   VALE_CALC=8.0E-04,
                   VALE_REFE=8.0000000000000004E-4,
                   REFERENCE = 'ANALYTIQUE',
                   PRECISION=2.0E-05,
                   CRITERE='RELATIF',
                   MAILLE='M10',),
                _F(NUME_ORDRE=1,
                   GROUP_NO='GRNO6',
                   RESULTAT=DEPLROT,
                   NOM_CHAM='EFGE_ELNO',
                   NOM_CMP='NXX',
                   VALE_CALC=9.5999999996773E-04,
                   VALE_REFE=9.6000000000000002E-4,
                   REFERENCE = 'ANALYTIQUE',
                   PRECISION=2.0E-05,
                   CRITERE='RELATIF',
                   MAILLE='M1',),
                _F(NUME_ORDRE=1,
                   GROUP_NO='GRNO6',
                   RESULTAT=DEPLDIL,
                   NOM_CHAM='EFGE_ELNO',
                   NOM_CMP='MXX',
                   VALE_CALC=-0.23809523809524,
                   VALE_REFE=-0.238095,
                   REFERENCE = 'ANALYTIQUE',
                   PRECISION=2.0E-05,
                   CRITERE='RELATIF',
                   MAILLE='M1',),
                _F(NUME_ORDRE=1,
                   GROUP_NO='GRNO6',
                   RESULTAT=DEPLDI2,
                   NOM_CHAM='EFGE_ELNO',
                   NOM_CMP='NXX',
                   VALE_CALC=-0.20000000000288,
                   VALE_REFE=-0.20000000000000001,
                   REFERENCE = 'ANALYTIQUE',
                   PRECISION=2.0E-05,
                   CRITERE='RELATIF',
                   MAILLE='M1',),
                _F(NUME_ORDRE=1,
                   GROUP_NO='GRNO6',
                   RESULTAT=DEPLDILT,
                   NOM_CHAM='EFGE_ELNO',
                   NOM_CMP='MXX',
                   VALE_CALC=-0.23809523809524,
                   VALE_REFE=-0.238095,
                   REFERENCE = 'ANALYTIQUE',
                   PRECISION=2.0E-05,
                   CRITERE='RELATIF',
                   MAILLE='M1',),
                _F(NUME_ORDRE=1,
                   GROUP_NO='GRNO6',
                   RESULTAT=DEPLDI2T,
                   NOM_CHAM='EFGE_ELNO',
                   NOM_CMP='NXX',
                   VALE_CALC=-0.20000000000288,
                   VALE_REFE=-0.20000000000000001,
                   REFERENCE = 'ANALYTIQUE',
                   PRECISION=2.0E-05,
                   CRITERE='RELATIF',
                   MAILLE='M1',),
                _F(NUME_ORDRE=1,
                   GROUP_NO='GRNO13',
                   RESULTAT=DEPLPES2,
                   NOM_CHAM='SIGM_ELNO',
                   NOM_CMP='SIXX',
                   VALE_CALC=8.0000000000014E-04,
                   VALE_REFE=8.0000000000000004E-4,
                   REFERENCE = 'ANALYTIQUE',
                   PRECISION=2.0E-05,
                   CRITERE='RELATIF',
                   MAILLE='M10',),
                _F(NUME_ORDRE=1,
                   GROUP_NO='GRNO6',
                   RESULTAT=DEPLROT2,
                   NOM_CHAM='SIGM_ELNO',
                   NOM_CMP='SIXX',
                   VALE_CALC=9.5999999972051E-04,
                   VALE_REFE=9.6000000000000002E-4,
                   REFERENCE = 'ANALYTIQUE',
                   PRECISION=2.0E-05,
                   CRITERE='RELATIF',
                   MAILLE='M1',),
                _F(NUME_ORDRE=1,
                   GROUP_NO='GRNO6',
                   RESULTAT=DEPLDIL2,
                   NOM_CHAM='SIGM_ELNO',
                   NOM_CMP='SIXX',
                   VALE_CALC=1.4285714285714,
                   VALE_REFE=1.428571,
                   REFERENCE = 'ANALYTIQUE',
                   PRECISION=2.0E-05,
                   CRITERE='RELATIF',
                   MAILLE='M1',),
                _F(NUME_ORDRE=1,
                   GROUP_NO='GRNO6',
                   RESULTAT=DDI2,
                   NOM_CHAM='SIGM_ELNO',
                   NOM_CMP='SIXX',
                   VALE_CALC=-0.20000000002496,
                   VALE_REFE=-0.20000000000000001,
                   REFERENCE = 'ANALYTIQUE',
                   PRECISION=2.0E-05,
                   CRITERE='RELATIF',
                   MAILLE='M1',),
                _F(NUME_ORDRE=1,
                   GROUP_NO='GRNO6',
                   RESULTAT=DDILT2,
                   NOM_CHAM='SIGM_ELNO',
                   NOM_CMP='SIXX',
                   VALE_CALC=1.4285714285714,
                   VALE_REFE=1.428571,
                   REFERENCE = 'ANALYTIQUE',
                   PRECISION=2.0E-05,
                   CRITERE='RELATIF',
                   MAILLE='M1',),
                _F(NUME_ORDRE=1,
                   GROUP_NO='GRNO6',
                   RESULTAT=DDI2T,
                   NOM_CHAM='SIGM_ELNO',
                   NOM_CMP='SIXX',
                   VALE_CALC=-0.20000000002496,
                   VALE_REFE=-0.20000000000000001,
                   REFERENCE = 'ANALYTIQUE',
                   PRECISION=2.0E-05,
                   CRITERE='RELATIF',
                   MAILLE='M1',),
                ),
          )

#

TEST_TABLE(
           VALE_CALC=0.010053096491487,
           VALE_REFE=0.01005312,
           REFERENCE = 'ANALYTIQUE',
           PRECISION=1.0000000000000001E-05,
           NOM_PARA='MASSE',
           TABLE=TABMASSE,)

#----------------------------------------------------------------------------
# Validation EFGE_ELGA pour les elements de coque_axis :
#----------------------------------------------------------------------
CALC_CHAMP(reuse=STATNL1, RESULTAT= STATNL1, CONTRAINTE=('EFGE_ELGA'), )
#IMPR_RESU(RESU=_F(RESULTAT=STATNL1, INST=1.))
TEST_RESU(RESU=_F(INST=1.0,
                  POINT=4,
                  RESULTAT=STATNL1,
                  NOM_CHAM='EFGE_ELGA',
                  NOM_CMP='MYY',
                  REFERENCE = 'ANALYTIQUE',
                  VALE_CALC=-0.23809523809524,
                  VALE_REFE=-0.23809523809524,
                  MAILLE='M2',),
          )

#----------------------------------------------------------------------------
FIN()
#
