# MODIF  DATE 09/05/2007   AUTEUR REZETTE C.REZETTE 
# TITRE PLAQUE AVEC MODULE D'YOUNG FONCTION DE LA TEMPERATURE
#            CONFIGURATION MANAGEMENT OF EDF VERSION
# ======================================================================
# COPYRIGHT (C) 1991 - 2001  EDF R&D                  WWW.CODE-ASTER.ORG
# THIS PROGRAM IS FREE SOFTWARE; YOU CAN REDISTRIBUTE IT AND/OR MODIFY
# IT UNDER THE TERMS OF THE GNU GENERAL PUBLIC LICENSE AS PUBLISHED BY
# THE FREE SOFTWARE FOUNDATION; EITHER VERSION 2 OF THE LICENSE, OR   
# (AT YOUR OPTION) ANY LATER VERSION.                                 
#
# THIS PROGRAM IS DISTRIBUTED IN THE HOPE THAT IT WILL BE USEFUL, BUT 
# WITHOUT ANY WARRANTY; WITHOUT EVEN THE IMPLIED WARRANTY OF          
# MERCHANTABILITY OR FITNESS FOR A PARTICULAR PURPOSE. SEE THE GNU    
# GENERAL PUBLIC LICENSE FOR MORE DETAILS.                            
#
# YOU SHOULD HAVE RECEIVED A COPY OF THE GNU GENERAL PUBLIC LICENSE   
# ALONG WITH THIS PROGRAM; IF NOT, WRITE TO EDF R&D CODE_ASTER,       
#    1 AVENUE DU GENERAL DE GAULLE, 92141 CLAMART CEDEX, FRANCE.      
# ======================================================================
DEBUT( CODE=_F(  NOM = 'HPLP300A',NIV_PUB_WEB='INTERNET') )

MAIL=LIRE_MAILLAGE( )

#
# DEFINITION DES GROUPES DE NOEUDS
MAIL=DEFI_GROUP( reuse=MAIL,   MAILLAGE=MAIL,
                      CREA_GROUP_NO=_F( GROUP_MA = ('A', 'B', 'C', 'D', 'O', 'B1', 'C1',))
                   )

#
# DEFINITION DU MODELE THERMIQUE
MODEL_TH=AFFE_MODELE(    MAILLAGE=MAIL,
                           AFFE=_F(  TOUT = 'OUI',
                         PHENOMENE = 'THERMIQUE',
                         MODELISATION = 'PLAN')  )

# DEFINITION DU MODELE MECANIQUE
MODEL_ME=AFFE_MODELE(    MAILLAGE=MAIL,
                           AFFE=_F(  TOUT = 'OUI',
                         PHENOMENE = 'MECANIQUE',
                         MODELISATION = 'C_PLAN')  )

#
# DETERMINATION DU MODULE D'YOUNG : 250 POINTS
F_E=DEFI_FONCTION(    NOM_PARA='TEMP',
                        VALE=(
                                -35.0000,    1.1976,
                                -34.5600,    1.1982,
                                -34.1200,    1.1989,
                                -33.6800,    1.1995,
                                -33.2400,    1.2001,
                                -32.8000,    1.2008,
                                -32.3600,    1.2014,
                                -31.9200,    1.2020,
                                -31.4800,    1.2027,
                                -31.0400,    1.2033,
                                -30.6000,    1.2039,
                                -30.1600,    1.2046,
                                -29.7200,    1.2052,
                                -29.2800,    1.2059,
                                -28.8400,    1.2065,
                                -28.4000,    1.2071,
                                -27.9600,    1.2078,
                                -27.5200,    1.2084,
                                -27.0800,    1.2091,
                                -26.6400,    1.2097,
# ... 231 like lines cut
                             )
                    )

F_NU=DEFI_FONCTION(    NOM_PARA='TEMP',
                         VALE=( -35.,  0.3,    75.,  0.3, ) )

# DEFINITION DU MATERIAU
ACIER=DEFI_MATERIAU(     ELAS_FO=_F(  E = F_E,
                                     NU = F_NU),
#                                    ALPHA : 1.E-5 )
                              THER=_F(  LAMBDA = 1.,  RHO_CP = 0.)
                      )

#
# ATTRIBUTION DU MATERIAU
CHMAT=AFFE_MATERIAU(    MAILLAGE=MAIL,
                             AFFE=_F(  TOUT = 'OUI',
                                    MATER = ACIER)  )

#
# DEFINITION DU CHARGEMENT THERMIQUE
CHAR_TH=AFFE_CHAR_THER(    MODELE=MODEL_TH,
                             TEMP_IMPO=_F(  GROUP_NO = 'O',
                                         TEMP = 40.),FLUX_REP=(
                              _F(  GROUP_MA = 'LNO',
                                         FLUN = -4.),
                              _F(  GROUP_MA = 'LPM',
                                         FLUN = 4.),
                              _F(  GROUP_MA = 'LOP',
                                         FLUN = -3.),
                              _F(  GROUP_MA = 'LMN',
                                         FLUN = 3.))
                         )

#
# CALCUL DU CHAMP THERMIQUE
TEMP=THER_LINEAIRE(    MODELE=MODEL_TH,
                         CHAM_MATER=CHMAT,
                         EXCIT=_F(  CHARGE = CHAR_TH),
                         TEMP_INIT=_F(  STATIONNAIRE = 'OUI')
                     )

# DEFINITION DES CONDITIONS AUX LIMITES ET CHARGEMENTS MECANIQUES
CHARGT=AFFE_CHAR_MECA(    MODELE=MODEL_ME,DDL_IMPO=(
                            _F(  GROUP_NO = 'O',
                                       DX = 0.,  DY = 0.),
                            _F(  GROUP_NO = 'B',
                                       DX = 0.)),
                            PRES_REP=_F(  GROUP_MA = 'CONTOUR',
                                       PRES = 1.),
                        )

# ATTRIBUTION DU MATERIAU
CHMTM=AFFE_MATERIAU(    MAILLAGE=MAIL,
                             AFFE=_F(  TOUT = 'OUI',
                                    MATER = ACIER),
                             AFFE_VARC=_F( TOUT='OUI',
                                    EVOL=TEMP,
                                    NOM_VARC='TEMP',
                                    NOM_CHAM='TEMP',),
  )

# RESOLUTION
DEF=MECA_STATIQUE(    MODELE=MODEL_ME,
                        CHAM_MATER=CHMTM,
                        EXCIT=_F(  CHARGE = CHARGT)  )

#
# RECUPERATION DU CHAMP DE DEPLACEMENTS
U=CREA_CHAMP(  OPERATION='EXTR', TYPE_CHAM='NOEU_DEPL_R',
NOM_CHAM='DEPL',  RESULTAT=DEF,
                 NUME_ORDRE=1
                  )

# RECUPERATION DU CHAMP DE TEMPERATURES
T=CREA_CHAMP(  OPERATION='EXTR', TYPE_CHAM='NOEU_TEMP_R',
NOM_CHAM='TEMP',  RESULTAT=TEMP,
                 NUME_ORDRE=0
                  )

#
T1=POST_RELEVE_T(    ACTION=_F( 
                        INTITULE = 'TEMP',
                        GROUP_NO = ('O', 'B', 'C', 'B1', 'C1', 'A', 'D',),
                        CHAM_GD = T,
                        TOUT_CMP = 'OUI',
                        OPERATION = 'EXTRACTION')
            )

T2=POST_RELEVE_T(    ACTION=_F( 
                        GROUP_NO = ('O', 'B', 'C', 'B1', 'C1', 'A', 'D',),
                        INTITULE = 'DEPL',
                        CHAM_GD = U,
                        NOM_CMP = ('DX',  'DY',),
                        OPERATION = 'EXTRACTION')
            )

#
TEST_TABLE(      TABLE=T1,
                 FILTRE=_F(  NOM_PARA = 'NOEUD',
                          VALE_K = 'N1'),
               NOM_PARA='TEMP',
                   VALE=75.        )

TEST_TABLE(      TABLE=T1,
                 FILTRE=_F(  NOM_PARA = 'NOEUD',
                          VALE_K = 'N23'),
               NOM_PARA='TEMP',
                   VALE=25.        )

TEST_TABLE(      TABLE=T1,
                 FILTRE=_F(  NOM_PARA = 'NOEUD',
                          VALE_K = 'N16'),
               NOM_PARA='TEMP',
                   VALE=20.        )

TEST_TABLE(      TABLE=T1,
                 FILTRE=_F(  NOM_PARA = 'NOEUD',
                          VALE_K = 'N3'),
               NOM_PARA='TEMP',
                   VALE=5.         )

TEST_TABLE(      TABLE=T1,
                 FILTRE=_F(  NOM_PARA = 'NOEUD',
                          VALE_K = 'N9'),
               NOM_PARA='TEMP',
                   VALE=55.        )

TEST_TABLE(      TABLE=T1,
                 FILTRE=_F(  NOM_PARA = 'NOEUD',
                          VALE_K = 'N30'),
               NOM_PARA='TEMP',
                   VALE=60.        )

TEST_TABLE(      TABLE=T1,
                 FILTRE=_F(  NOM_PARA = 'NOEUD',
                          VALE_K = 'N38'),
               NOM_PARA='TEMP',
                   VALE=40.        )

#
#
TEST_TABLE(      TABLE=T2,
                 FILTRE=_F(  NOM_PARA = 'NOEUD',
                          VALE_K = 'N1'),
               NOM_PARA='DX',
              PRECISION=0.018,
                   VALE=2.68975        )

TEST_TABLE(      TABLE=T2,
                 FILTRE=_F(  NOM_PARA = 'NOEUD',
                          VALE_K = 'N1'),
               NOM_PARA='DY',
              PRECISION=0.002,
                   VALE=2.55        )

TEST_TABLE(      TABLE=T2,
                 FILTRE=_F(  NOM_PARA = 'NOEUD',
                          VALE_K = 'N23'),
               NOM_PARA='DX',
                CRITERE='ABSOLU',
                   VALE=0.          )

TEST_TABLE(      TABLE=T2,
                 FILTRE=_F(  NOM_PARA = 'NOEUD',
                          VALE_K = 'N23'),
               NOM_PARA='DY',
              PRECISION=0.014,
                   VALE=-2.65125        )

TEST_TABLE(      TABLE=T2,
                 FILTRE=_F(  NOM_PARA = 'NOEUD',
                          VALE_K = 'N16'),
               NOM_PARA='DX',
                   VALE=-2.695        )

TEST_TABLE(      TABLE=T2,
                 FILTRE=_F(  NOM_PARA = 'NOEUD',
                          VALE_K = 'N3'),
               NOM_PARA='DX',
              PRECISION=0.018,
                   VALE=-2.70028        )

TEST_TABLE(      TABLE=T2,
                 FILTRE=_F(  NOM_PARA = 'NOEUD',
                          VALE_K = 'N3'),
               NOM_PARA='DY',
                   VALE=-2.695        )

TEST_TABLE(      TABLE=T2,
                 FILTRE=_F(  NOM_PARA = 'NOEUD',
                          VALE_K = 'N9'),
               NOM_PARA='DX',
                   VALE=0.0700        )

TEST_TABLE(      TABLE=T2,
                 FILTRE=_F(  NOM_PARA = 'NOEUD',
                          VALE_K = 'N9'),
               NOM_PARA='DY',
              PRECISION=0.014,
                   VALE=2.59875        )

TEST_TABLE(      TABLE=T2,
                 FILTRE=_F(  NOM_PARA = 'NOEUD',
                          VALE_K = 'N30'),
               NOM_PARA='DX',
                   VALE=2.625          )

FIN()
#
