# MODIF  DATE 16/06/2004   AUTEUR DURAND C.DURAND 
# TITRE BIBLIO_35  FISSURE RADIALE INTERNE DANS UN CYLINDRE EPAIS
#            CONFIGURATION MANAGEMENT OF EDF VERSION
# ======================================================================
# COPYRIGHT (C) 1991 - 2001  EDF R&D                  WWW.CODE-ASTER.ORG
#              SEE THE FILE "LICENSE.TERMS" FOR INFORMATION ON USAGE AND
#              REDISTRIBUTION OF THIS FILE.
# ======================================================================
#   SOUS PRESSION ET CHARGEMENT THERMIQUE EQUIVALENT A L'AUTOFRETTAGE
#

DEBUT( CODE=_F( NOM = 'HPLP310A',NIV_PUB_WEB='INTERNET'))

PRE_GIBI()

MA=LIRE_MAILLAGE(VERI_MAIL=_F(VERIF='NON'), )

MO=AFFE_MODELE(  MAILLAGE=MA, 
      AFFE=_F( TOUT = 'OUI',PHENOMENE = 'MECANIQUE',MODELISATION = 'D_PLAN'))

MAT=DEFI_MATERIAU(ELAS=_F(  E = 1000., NU = 0.3, ALPHA = 1.E-6))

MATFIC=DEFI_MATERIAU(ELAS=_F(  E = 1.E10, NU = 0.3, ALPHA = 0.))

CHMAT=AFFE_MATERIAU(  MAILLAGE=MA,AFFE=(
            _F( TOUT = 'OUI', MATER = MAT),
            _F( GROUP_MA = 'VBLOCON', MATER = MATFIC))
                         )

MA=DEFI_GROUP( reuse=MA,   MAILLAGE=MA,CREA_GROUP_NO=( 
                     _F( 
                   GROUP_MA = ( 'L_AB',  'L_DE',  'L_EA',  'LPOP8', 
                                'LP9P10S',  'LPOP8S',  'VTOT', )),
                     _F(  GROUP_MA = 'TOT')),
                     CREA_GROUP_MA=_F(  NOM = 'TOT', TOUT = 'OUI')
                 )

#
E=1000.

SIGMA0=1.

NU=.3

R1=1.

ALPHA=1.E-6

RHO=2.

#
TP=0.

#
T1F = FORMULE(REEL="""(REEL:TPV) =
TPV+((4.*SIGMA0*(1.-NU)*LOG(RHO/R1))
                                /(SQRT(3.)*E*ALPHA))
              """)

#
# ATTENTION : LA GENERATION DU MAILLAGE .MGIB A PARTIR DU FICHIER
# .DATG FAIT APPARAITRE DES NOEUDS EN 0. A SUPPRIMER, SINON LE
# LOG N'EST PAS DEFINI.
#
F_T = FORMULE(REEL="""(REEL:X,REEL:Y) =
(T1F(TP)-((T1F(TP)-TP)*
               LOG((SQRT((X*X)+(Y*Y)))/R1))/(LOG(RHO/R1))
                )""")

TEMP_IMP=CREA_CHAMP(  OPERATION='AFFE', TYPE_CHAM='NOEU_TEMP_F',
                         MAILLAGE=MA,
                         AFFE=_F( GROUP_NO = 'TOT',
                               NOM_CMP = 'TEMP',
                               VALE_F = F_T)
                        )

TEMP_EV=CREA_RESU(    OPERATION='AFFE', TYPE_RESU='EVOL_THER',
                        NOM_CHAM='TEMP',
                        AFFE=_F(  CHAM_GD = TEMP_IMP,
                                  INST = 1.)
                    )

CL=AFFE_CHAR_MECA(   MODELE=MO,DDL_IMPO=( 
            _F( GROUP_NO = ( 'L_AB',  'L_DE', ), DY = 0.),
                     _F( GROUP_NO = 'LP9P10S',  DX = 0.),
                     _F( GROUP_NO = 'LP9P10S',  DY = 0.)),
# BLOCAGE DE LA LEVRE
# (GROUP_NO: LPOP8 , DY:0.),
            LIAISON_DDL=_F(  GROUP_NO = ('PA',  'PE',),
                          DDL = ('DX',  'DX',),
                          COEF_MULT = (1., 1.,),
                          COEF_IMPO = 0.),
            CONTACT    =_F( 
                  NORMALE = 'MAIT_ESCL',
                  GROUP_MA_MAIT = 'LPOP8',
                  GROUP_MA_ESCL = 'LPOP8S')

                     )

CL_SL=AFFE_CHAR_MECA(   MODELE=MO,DDL_IMPO=( 
            _F( GROUP_NO = ( 'L_AB',  'L_DE', ), DY = 0.),
                     _F( GROUP_NO = 'LP9P10S',  DX = 0.),
                     _F( GROUP_NO = 'LP9P10S',  DY = 0.)),
            LIAISON_DDL=_F(  GROUP_NO = ('PA',  'PE',),
                          DDL = ('DX',  'DX',),
                          COEF_MULT = (1., 1.,),
                          COEF_IMPO = 0.)

                     )

CH0=AFFE_CHAR_MECA(   MODELE=MO, 
              PRES_REP=_F(  GROUP_MA = 'L_EA',   PRES = -.30)
                            )

CH1=AFFE_CHAR_MECA(   MODELE=MO, 
              PRES_REP=_F(  GROUP_MA = 'L_EA',   PRES = -.32)
                            )

CH2=AFFE_CHAR_MECA(   MODELE=MO, 
              PRES_REP=_F(  GROUP_MA = 'L_EA',   PRES = -.33)
                            )

CH3=AFFE_CHAR_MECA(   MODELE=MO, 
              PRES_REP=_F(  GROUP_MA = 'L_EA',   PRES = -.335)
                            )

CH4=AFFE_CHAR_MECA(   MODELE=MO, 
              PRES_REP=_F(  GROUP_MA = 'L_EA',   PRES = -.34)
                            )

CH5=AFFE_CHAR_MECA(   MODELE=MO, 
              PRES_REP=_F(  GROUP_MA = 'L_EA',   PRES = -.345)
                            )

CH6=AFFE_CHAR_MECA(   MODELE=MO, 
              PRES_REP=_F(  GROUP_MA = 'L_EA',   PRES = -.35)
                            )

CH7=AFFE_CHAR_MECA(   MODELE=MO, 
              PRES_REP=_F(  GROUP_MA = 'L_EA',   PRES = -.36)
                            )

CH8=AFFE_CHAR_MECA(   MODELE=MO, 
              PRES_REP=_F(  GROUP_MA = 'L_EA',   PRES = -.38)
                            )

CH9=AFFE_CHAR_MECA(   MODELE=MO, 
              PRES_REP=_F(  GROUP_MA = 'L_EA',   PRES = -.40)
                            )

CH10=AFFE_CHAR_MECA(   MODELE=MO, 
              PRES_REP=_F(  GROUP_MA = 'L_EA',   PRES = -1.)
                            )

CH_TEMP=AFFE_CHAR_MECA(   MODELE=MO, 
                TEMP_CALCULEE=TEMP_EV
                               )

L_INST=DEFI_LIST_REEL(
                             DEBUT=0.0,
                              INTERVALLE=_F( JUSQU_A = 1., NOMBRE = 1)
                           )

# -------------------------------------------------------------
# CALCUL AVEC LES CHARGEMENTS 1 ET 2 DE LA FICHE (SANS CONTACT)
# -------------------------------------------------------------

CHAMDEPP=MECA_STATIQUE(   MODELE=MO,   CHAM_MATER=CHMAT,EXCIT=( 
              _F( CHARGE = CH10),
              _F( CHARGE = CL_SL))
                          )

CHAMDEPT=MECA_STATIQUE(   MODELE=MO,   CHAM_MATER=CHMAT,EXCIT=( 
              _F( CHARGE = CH_TEMP),
              _F( CHARGE = CL_SL))
                          )

# -----------------------------------------------------------
# CALCUL AVEC LE CHARGEMENT 3 DE LA FICHE POUR DIFFERENTES
# VALEUR DU PARAMETRE ALPHA (AVEC CONTACT)
# -----------------------------------------------------------


CHAMDEP0=STAT_NON_LINE( 
                            MODELE=MO,
                        CHAM_MATER=CHMAT,EXCIT=(
                             _F( 
                CHARGE = CH0),
                             _F( 
                CHARGE = CH_TEMP),
                             _F( 
                CHARGE = CL)),
                         COMP_ELAS=_F( 
                RELATION = 'ELAS'),
                            NEWTON=_F( 
                MATRICE = 'ELASTIQUE'),
                         INCREMENT=_F( 
                LIST_INST = L_INST,
                        SUBD_PAS = 10,
                   SUBD_PAS_MINI = 0.000001),
                       CONVERGENCE=_F( 
                ITER_GLOB_MAXI = 4),
              INFO=2
              )

CHAMDEP0=CALC_ELEM( reuse=CHAMDEP0,
                            OPTION=(
                  'SIEF_ELNO_ELGA',  'VARI_ELNO_ELGA',),
                          RESULTAT=CHAMDEP0,
                            MODELE=MO,
                        CHAM_MATER=CHMAT
              )

CHAMDEP1=STAT_NON_LINE( 
                            MODELE=MO,
                        CHAM_MATER=CHMAT,EXCIT=(
                             _F( 
                CHARGE = CH1),
                             _F( 
                CHARGE = CH_TEMP),
                             _F( 
                CHARGE = CL)),
                         COMP_ELAS=_F( 
                RELATION = 'ELAS'),
                            NEWTON=_F( 
                MATRICE = 'ELASTIQUE'),
                         INCREMENT=_F( 
                LIST_INST = L_INST,
                        SUBD_PAS = 4,
                   SUBD_PAS_MINI = 0.000001),
                       CONVERGENCE=_F( 
                ITER_GLOB_MAXI = 4)
              )

CHAMDEP1=CALC_ELEM( reuse=CHAMDEP1,
                            OPTION=(
                  'SIEF_ELNO_ELGA',  'VARI_ELNO_ELGA',),
                          RESULTAT=CHAMDEP1,
                            MODELE=MO,
                        CHAM_MATER=CHMAT
              )

CHAMDEP2=STAT_NON_LINE( 
                            MODELE=MO,
                        CHAM_MATER=CHMAT,EXCIT=(
                             _F( 
                CHARGE = CH2),
                             _F( 
                CHARGE = CH_TEMP),
                             _F( 
                CHARGE = CL)),
                         COMP_ELAS=_F( 
                RELATION = 'ELAS'),
                            NEWTON=_F( 
                MATRICE = 'ELASTIQUE'),
                         INCREMENT=_F( 
                LIST_INST = L_INST,
                        SUBD_PAS = 4,
                   SUBD_PAS_MINI = 0.000001),
                       CONVERGENCE=_F( 
                ITER_GLOB_MAXI = 4)
              )

CHAMDEP2=CALC_ELEM( reuse=CHAMDEP2,
                            OPTION=(
                  'SIEF_ELNO_ELGA',  'VARI_ELNO_ELGA',),
                          RESULTAT=CHAMDEP2,
                            MODELE=MO,
                        CHAM_MATER=CHMAT
              )

CHAMDEP3=STAT_NON_LINE( 
                            MODELE=MO,
                        CHAM_MATER=CHMAT,EXCIT=(
                             _F( 
                CHARGE = CH3),
                             _F( 
                CHARGE = CH_TEMP),
                             _F( 
                CHARGE = CL)),
                         COMP_ELAS=_F( 
                RELATION = 'ELAS'),
                            NEWTON=_F( 
                MATRICE = 'ELASTIQUE'),
                         INCREMENT=_F( 
                LIST_INST = L_INST),
                       CONVERGENCE=_F( 
                ITER_GLOB_MAXI = 4)
              )

CHAMDEP3=CALC_ELEM( reuse=CHAMDEP3,
                            OPTION=(
                  'SIEF_ELNO_ELGA',  'VARI_ELNO_ELGA',),
                          RESULTAT=CHAMDEP3,
                            MODELE=MO,
                        CHAM_MATER=CHMAT
              )

CHAMDEP4=STAT_NON_LINE( 
                            MODELE=MO,
                        CHAM_MATER=CHMAT,EXCIT=(
                             _F( 
                CHARGE = CH4),
                             _F( 
                CHARGE = CH_TEMP),
                             _F( 
                CHARGE = CL)),
                         COMP_ELAS=_F( 
                RELATION = 'ELAS'),
                            NEWTON=_F( 
                MATRICE = 'ELASTIQUE'),
                         INCREMENT=_F( 
                LIST_INST = L_INST),
                       CONVERGENCE=_F( 
                ITER_GLOB_MAXI = 4)
              )

CHAMDEP4=CALC_ELEM( reuse=CHAMDEP4,
                            OPTION=(
                  'SIEF_ELNO_ELGA',  'VARI_ELNO_ELGA',),
                          RESULTAT=CHAMDEP4,
                            MODELE=MO,
                        CHAM_MATER=CHMAT
              )

CHAMDEP5=STAT_NON_LINE( 
                            MODELE=MO,
                        CHAM_MATER=CHMAT,EXCIT=(
                             _F( 
                CHARGE = CH5),
                             _F( 
                CHARGE = CH_TEMP),
                             _F( 
                CHARGE = CL)),
                         COMP_ELAS=_F( 
                RELATION = 'ELAS'),
                            NEWTON=_F( 
                MATRICE = 'ELASTIQUE'),
                         INCREMENT=_F( 
                LIST_INST = L_INST),
                       CONVERGENCE=_F( 
                ITER_GLOB_MAXI = 4)
              )

CHAMDEP5=CALC_ELEM( reuse=CHAMDEP5,
                            OPTION=(
                  'SIEF_ELNO_ELGA',  'VARI_ELNO_ELGA',),
                          RESULTAT=CHAMDEP5,
                            MODELE=MO,
                        CHAM_MATER=CHMAT
              )

CHAMDEP6=STAT_NON_LINE( 
                            MODELE=MO,
                        CHAM_MATER=CHMAT,EXCIT=(
                             _F( 
                CHARGE = CH6),
                             _F( 
                CHARGE = CH_TEMP),
                             _F( 
                CHARGE = CL)),
                         COMP_ELAS=_F( 
                RELATION = 'ELAS'),
                            NEWTON=_F( 
                MATRICE = 'ELASTIQUE'),
                         INCREMENT=_F( 
                LIST_INST = L_INST),
                       CONVERGENCE=_F( 
                ITER_GLOB_MAXI = 4)
              )

CHAMDEP6=CALC_ELEM( reuse=CHAMDEP6,
                            OPTION=(
                  'SIEF_ELNO_ELGA',  'VARI_ELNO_ELGA',),
                          RESULTAT=CHAMDEP6,
                            MODELE=MO,
                        CHAM_MATER=CHMAT
              )

CHAMDEP7=STAT_NON_LINE( 
                            MODELE=MO,
                        CHAM_MATER=CHMAT,EXCIT=(
                             _F( 
                CHARGE = CH7),
                             _F( 
                CHARGE = CH_TEMP),
                             _F( 
                CHARGE = CL)),
                         COMP_ELAS=_F( 
                RELATION = 'ELAS'),
                            NEWTON=_F( 
                MATRICE = 'ELASTIQUE'),
                         INCREMENT=_F( 
                LIST_INST = L_INST),
                       CONVERGENCE=_F( 
                ITER_GLOB_MAXI = 4)
              )

CHAMDEP7=CALC_ELEM( reuse=CHAMDEP7,
                            OPTION=(
                  'SIEF_ELNO_ELGA',  'VARI_ELNO_ELGA',),
                          RESULTAT=CHAMDEP7,
                            MODELE=MO,
                        CHAM_MATER=CHMAT
              )

CHAMDEP8=STAT_NON_LINE( 
                            MODELE=MO,
                        CHAM_MATER=CHMAT,EXCIT=(
                             _F( 
                CHARGE = CH8),
                             _F( 
                CHARGE = CH_TEMP),
                             _F( 
                CHARGE = CL)),
                         COMP_ELAS=_F( 
                RELATION = 'ELAS'),
                            NEWTON=_F( 
                MATRICE = 'ELASTIQUE'),
                         INCREMENT=_F( 
                LIST_INST = L_INST),
                       CONVERGENCE=_F( 
                ITER_GLOB_MAXI = 4)
              )

CHAMDEP8=CALC_ELEM( reuse=CHAMDEP8,
                            OPTION=(
                  'SIEF_ELNO_ELGA',  'VARI_ELNO_ELGA',),
                          RESULTAT=CHAMDEP8,
                            MODELE=MO,
                        CHAM_MATER=CHMAT
              )

CHAMDEP9=STAT_NON_LINE( 
                            MODELE=MO,
                        CHAM_MATER=CHMAT,EXCIT=(
                             _F( 
                CHARGE = CH9),
                             _F( 
                CHARGE = CH_TEMP),
                             _F( 
                CHARGE = CL)),
                         COMP_ELAS=_F( 
                RELATION = 'ELAS'),
                            NEWTON=_F( 
                MATRICE = 'ELASTIQUE'),
                         INCREMENT=_F( 
                LIST_INST = L_INST,
                        SUBD_PAS = 10,
                   SUBD_PAS_MINI = 0.000001),
                       CONVERGENCE=_F( 
                ITER_GLOB_MAXI = 4)
              )

CHAMDEP9=CALC_ELEM( reuse=CHAMDEP9,
                            OPTION=(
                  'SIEF_ELNO_ELGA',  'VARI_ELNO_ELGA',),
                          RESULTAT=CHAMDEP9,
                            MODELE=MO,
                        CHAM_MATER=CHMAT
              )

FOND=DEFI_FOND_FISS(    MAILLAGE=MA,
                         FOND_FISS=_F( GROUP_NO = ('P0',)),
                           NORMALE=(0., 1., 0.,)
                      )

#  RT = 0.01 (RAYON DU MAILLAGE RAYONNANT)
#  NOMBRE DE COURONNES DU MAILLAGE RAYONNANT = 4
#  LONGUEUR DE LA LEVRE = 0.05


# PREMIERE COURONNE DE QUADRANGLES
# --------------------------------
THETA0=CALC_THETA(    MODELE=MO,
                        THETA_2D=_F(  GROUP_NO = ('P0',),
                                   MODULE = 1.,
                                   R_INF = 0.0025,
                                   R_SUP = 0.005),
                        DIRECTION=(1., 0., 0.,)
                     )

#
# DEUXIEME COURONNE DE QUADRANGLES
# --------------------------------
THETA1=CALC_THETA(    MODELE=MO,
                        THETA_2D=_F(  GROUP_NO = ('P0',),
                                   MODULE = 1.,
                                   R_INF = 0.005,
                                   R_SUP = 0.0075),
                        DIRECTION=(1., 0., 0.,)
                     )

# TROISIEME COURONNE DE QUADRANGLES
# --------------------------------
THETA2=CALC_THETA(    MODELE=MO,
                        THETA_2D=_F(  GROUP_NO = ('P0',),
                                   MODULE = 1.,
                                   R_INF = 0.0075,
                                   R_SUP = 0.01),
                        DIRECTION=(1., 0., 0.,)
                     )

# COURONNE QUELCONQUE
# -------------------
THETA3=CALC_THETA(    MODELE=MO,
                        THETA_2D=_F(  GROUP_NO = ('P0',),
                                   MODULE = 1.,
                                   R_INF = 0.005,
                                   R_SUP = 0.03),
                        DIRECTION=(1., 0., 0.,)
                     )

# ------------------------------------------------
# CALCUL DE G AVEC CHARGEMENT 1 DE LA FICHE
# ------------------------------------------------
#
# COURONNE 0
# ----------

G0_P=CALC_G_THETA_T(    MODELE=MO,
                        RESULTAT=CHAMDEPP,
                         THETA=THETA0,
                        CHAM_MATER=CHMAT,
                        SYME_CHAR='SYME',
                        NUME_ORDRE=1
                    )

GK0_P=CALC_G_THETA_T(    MODELE=MO,
                         RESULTAT=CHAMDEPP,
                          THETA=THETA0,
                         FOND_FISS=FOND,
                         CHAM_MATER=CHMAT,
                         SYME_CHAR='SYME',
                         NUME_ORDRE=1,
                         OPTION='CALC_K_G'
                     )

# COURONNE 1
# ----------

G1_P=CALC_G_THETA_T(    MODELE=MO,
                        RESULTAT=CHAMDEPP,
                         THETA=THETA1,
                        CHAM_MATER=CHMAT,
                        SYME_CHAR='SYME',
                        NUME_ORDRE=1
                    )

GK1_P=CALC_G_THETA_T(    MODELE=MO,
                         RESULTAT=CHAMDEPP,
                          THETA=THETA1,
                         FOND_FISS=FOND,
                         CHAM_MATER=CHMAT,
                         SYME_CHAR='SYME',
                         NUME_ORDRE=1,
                         OPTION='CALC_K_G'
                     )

# COURONNE 2
# ----------

G2_P=CALC_G_THETA_T(    MODELE=MO,
                        RESULTAT=CHAMDEPP,
                         THETA=THETA2,
                        CHAM_MATER=CHMAT,
                        SYME_CHAR='SYME',
                        NUME_ORDRE=1
                    )

GK2_P=CALC_G_THETA_T(    MODELE=MO,
                         RESULTAT=CHAMDEPP,
                          THETA=THETA2,
                         FOND_FISS=FOND,
                         CHAM_MATER=CHMAT,
                         SYME_CHAR='SYME',
                         NUME_ORDRE=1,
                         OPTION='CALC_K_G'
                     )

# COURONNE 3
# ----------

G3_P=CALC_G_THETA_T(    MODELE=MO,
                        RESULTAT=CHAMDEPP,
                         THETA=THETA3,
                        CHAM_MATER=CHMAT,
                        SYME_CHAR='SYME',
                        NUME_ORDRE=1
                    )

GK3_P=CALC_G_THETA_T(    MODELE=MO,
                         RESULTAT=CHAMDEPP,
                          THETA=THETA3,
                         FOND_FISS=FOND,
                         CHAM_MATER=CHMAT,
                         SYME_CHAR='SYME',
                         NUME_ORDRE=1,
                         OPTION='CALC_K_G'
                     )

# ------------------------------------------------
# CALCUL DE G AVEC CHARGEMENT 2 DE LA FICHE
# ------------------------------------------------
#
# COURONNE 0
# ----------

G0_T=CALC_G_THETA_T(    MODELE=MO,
                        RESULTAT=CHAMDEPT,
                         THETA=THETA0,
                        CHAM_MATER=CHMAT,
                        EXCIT=_F(CHARGE=CH_TEMP,),
                        SYME_CHAR='SYME',
                        NUME_ORDRE=1
                    )

GK0_T=CALC_G_THETA_T(    MODELE=MO,
                         RESULTAT=CHAMDEPT,
                          THETA=THETA0,
                         FOND_FISS=FOND,
                         CHAM_MATER=CHMAT,
                         EXCIT=_F(CHARGE=CH_TEMP,),
                         SYME_CHAR='SYME',
                         NUME_ORDRE=1,
                         OPTION='CALC_K_G'
                     )

# COURONNE 1
# ----------

G1_T=CALC_G_THETA_T(    MODELE=MO,
                        RESULTAT=CHAMDEPT,
                         THETA=THETA1,
                        CHAM_MATER=CHMAT,
                        EXCIT=_F(CHARGE=CH_TEMP,),
                        SYME_CHAR='SYME',
                        NUME_ORDRE=1
                    )

GK1_T=CALC_G_THETA_T(    MODELE=MO,
                         RESULTAT=CHAMDEPT,
                          THETA=THETA1,
                         FOND_FISS=FOND,
                         CHAM_MATER=CHMAT,
                         EXCIT=_F(CHARGE=CH_TEMP,),
                         SYME_CHAR='SYME',
                         NUME_ORDRE=1,
                         OPTION='CALC_K_G'
                     )

# COURONNE 2
# ----------

G2_T=CALC_G_THETA_T(    MODELE=MO,
                        RESULTAT=CHAMDEPT,
                         THETA=THETA2,
                        CHAM_MATER=CHMAT,
                        EXCIT=_F(CHARGE=CH_TEMP,),
                        SYME_CHAR='SYME',
                        NUME_ORDRE=1
                    )

GK2_T=CALC_G_THETA_T(    MODELE=MO,
                         RESULTAT=CHAMDEPT,
                          THETA=THETA2,
                         FOND_FISS=FOND,
                         CHAM_MATER=CHMAT,
                         EXCIT=_F(CHARGE=CH_TEMP,),
                         SYME_CHAR='SYME',
                         NUME_ORDRE=1,
                         OPTION='CALC_K_G'
                     )

# COURONNE 3
# ----------

G3_T=CALC_G_THETA_T(    MODELE=MO,
                        RESULTAT=CHAMDEPT,
                         THETA=THETA3,
                        CHAM_MATER=CHMAT,
                        EXCIT=_F(CHARGE=CH_TEMP,),
                        SYME_CHAR='SYME',
                        NUME_ORDRE=1
                    )

GK3_T=CALC_G_THETA_T(    MODELE=MO,
                         RESULTAT=CHAMDEPT,
                          THETA=THETA3,
                         FOND_FISS=FOND,
                         CHAM_MATER=CHMAT,
                         EXCIT=_F(CHARGE=CH_TEMP,),
                         SYME_CHAR='SYME',
                         NUME_ORDRE=1,
                         OPTION='CALC_K_G'
                     )

# ------------------------------------------------
# CALCUL DE G AVEC CHARGEMENT 3 DE LA FICHE
# ------------------------------------------------

# ********************************************************
# ALPHA = 0.30
# ********************************************************

# COURONNE 0
# ----------

G0_30=CALC_G_THETA_T(    MODELE=MO,
                        RESULTAT=CHAMDEP0,
                         THETA=THETA0,
                        EXCIT=_F(CHARGE=CH_TEMP,),
                        CHAM_MATER=CHMAT,
                        SYME_CHAR='SYME',
                        NUME_ORDRE=1
                    )

GK0_30=CALC_G_THETA_T(    MODELE=MO,
                         RESULTAT=CHAMDEP0,
                          THETA=THETA0,
                         FOND_FISS=FOND,
                         EXCIT=_F(CHARGE=CH_TEMP,),
                         CHAM_MATER=CHMAT,
                         SYME_CHAR='SYME',
                         NUME_ORDRE=1,
                         OPTION='CALC_K_G'
                     )

# COURONNE 1
# ----------

G1_30=CALC_G_THETA_T(    MODELE=MO,
                        RESULTAT=CHAMDEP0,
                         THETA=THETA1,
                        EXCIT=_F(CHARGE=CH_TEMP,),
                        CHAM_MATER=CHMAT,
                        SYME_CHAR='SYME',
                        NUME_ORDRE=1
                    )

GK1_30=CALC_G_THETA_T(    MODELE=MO,
                         RESULTAT=CHAMDEP0,
                          THETA=THETA1,
                         FOND_FISS=FOND,
                         EXCIT=_F(CHARGE=CH_TEMP,),
                         CHAM_MATER=CHMAT,
                         SYME_CHAR='SYME',
                         NUME_ORDRE=1,
                         OPTION='CALC_K_G'
                     )

# COURONNE 2
# ----------

G2_30=CALC_G_THETA_T(    MODELE=MO,
                        RESULTAT=CHAMDEP0,
                         THETA=THETA2,
                        EXCIT=_F(CHARGE=CH_TEMP,),
                        CHAM_MATER=CHMAT,
                        SYME_CHAR='SYME',
                        NUME_ORDRE=1
                    )

GK2_30=CALC_G_THETA_T(    MODELE=MO,
                         RESULTAT=CHAMDEP0,
                          THETA=THETA2,
                         FOND_FISS=FOND,
                         EXCIT=_F(CHARGE=CH_TEMP,),
                         CHAM_MATER=CHMAT,
                         SYME_CHAR='SYME',
                         NUME_ORDRE=1,
                         OPTION='CALC_K_G'
                     )

# COURONNE 3
# ----------

G3_30=CALC_G_THETA_T(    MODELE=MO,
                        RESULTAT=CHAMDEP0,
                         THETA=THETA3,
                        EXCIT=_F(CHARGE=CH_TEMP,),
                        CHAM_MATER=CHMAT,
                        SYME_CHAR='SYME',
                        NUME_ORDRE=1
                    )

GK3_30=CALC_G_THETA_T(    MODELE=MO,
                         RESULTAT=CHAMDEP0,
                          THETA=THETA3,
                         FOND_FISS=FOND,
                         EXCIT=_F(CHARGE=CH_TEMP,),
                         CHAM_MATER=CHMAT,
                         SYME_CHAR='SYME',
                         NUME_ORDRE=1,
                         OPTION='CALC_K_G'
                     )

#
# ********************************************************
# ALPHA = 0.32
# ********************************************************

# COURONNE 0
# ----------

G0_32=CALC_G_THETA_T(    MODELE=MO,
                        RESULTAT=CHAMDEP1,
                         THETA=THETA0,
                        EXCIT=_F(CHARGE=CH_TEMP,),
                        CHAM_MATER=CHMAT,
                        SYME_CHAR='SYME',
                        NUME_ORDRE=1
                    )

GK0_32=CALC_G_THETA_T(    MODELE=MO,
                         RESULTAT=CHAMDEP1,
                          THETA=THETA0,
                         FOND_FISS=FOND,
                         EXCIT=_F(CHARGE=CH_TEMP,),
                         CHAM_MATER=CHMAT,
                         SYME_CHAR='SYME',
                         NUME_ORDRE=1,
                         OPTION='CALC_K_G'
                     )

# COURONNE 1
# ----------

G1_32=CALC_G_THETA_T(    MODELE=MO,
                        RESULTAT=CHAMDEP1,
                         THETA=THETA1,
                        EXCIT=_F(CHARGE=CH_TEMP,),
                        CHAM_MATER=CHMAT,
                        SYME_CHAR='SYME',
                        NUME_ORDRE=1
                    )

GK1_32=CALC_G_THETA_T(    MODELE=MO,
                         RESULTAT=CHAMDEP1,
                          THETA=THETA1,
                         FOND_FISS=FOND,
                         EXCIT=_F(CHARGE=CH_TEMP,),
                         CHAM_MATER=CHMAT,
                         SYME_CHAR='SYME',
                         NUME_ORDRE=1,
                         OPTION='CALC_K_G'
                     )

# COURONNE 2
# ----------

G2_32=CALC_G_THETA_T(    MODELE=MO,
                        RESULTAT=CHAMDEP1,
                         THETA=THETA2,
                        EXCIT=_F(CHARGE=CH_TEMP,),
                        CHAM_MATER=CHMAT,
                        SYME_CHAR='SYME',
                        NUME_ORDRE=1
                    )

GK2_32=CALC_G_THETA_T(    MODELE=MO,
                         RESULTAT=CHAMDEP1,
                          THETA=THETA2,
                         FOND_FISS=FOND,
                         EXCIT=_F(CHARGE=CH_TEMP,),
                         CHAM_MATER=CHMAT,
                         SYME_CHAR='SYME',
                         NUME_ORDRE=1,
                         OPTION='CALC_K_G'
                     )

# COURONNE 3
# ----------

G3_32=CALC_G_THETA_T(    MODELE=MO,
                        RESULTAT=CHAMDEP1,
                         THETA=THETA3,
                        EXCIT=_F(CHARGE=CH_TEMP,),
                        CHAM_MATER=CHMAT,
                        SYME_CHAR='SYME',
                        NUME_ORDRE=1
                    )

GK3_32=CALC_G_THETA_T(    MODELE=MO,
                         RESULTAT=CHAMDEP1,
                          THETA=THETA3,
                         FOND_FISS=FOND,
                         EXCIT=_F(CHARGE=CH_TEMP,),
                         CHAM_MATER=CHMAT,
                         SYME_CHAR='SYME',
                         NUME_ORDRE=1,
                         OPTION='CALC_K_G'
                     )

# ********************************************************
# ALPHA = 0.33
# ********************************************************

# COURONNE 0
# ----------

G0_33=CALC_G_THETA_T(    MODELE=MO,
                        RESULTAT=CHAMDEP2,
                         THETA=THETA0,
                        EXCIT=_F(CHARGE=CH_TEMP,),
                        CHAM_MATER=CHMAT,
                        SYME_CHAR='SYME',
                        NUME_ORDRE=1
                    )

GK0_33=CALC_G_THETA_T(    MODELE=MO,
                         RESULTAT=CHAMDEP2,
                          THETA=THETA0,
                         FOND_FISS=FOND,
                         EXCIT=_F(CHARGE=CH_TEMP,),
                         CHAM_MATER=CHMAT,
                         SYME_CHAR='SYME',
                         NUME_ORDRE=1,
                         OPTION='CALC_K_G'
                     )

# COURONNE 1
# ----------

G1_33=CALC_G_THETA_T(    MODELE=MO,
                        RESULTAT=CHAMDEP2,
                         THETA=THETA1,
                        EXCIT=_F(CHARGE=CH_TEMP,),
                        CHAM_MATER=CHMAT,
                        SYME_CHAR='SYME',
                        NUME_ORDRE=1
                    )

GK1_33=CALC_G_THETA_T(    MODELE=MO,
                         RESULTAT=CHAMDEP2,
                          THETA=THETA1,
                         FOND_FISS=FOND,
                         EXCIT=_F(CHARGE=CH_TEMP,),
                         CHAM_MATER=CHMAT,
                         SYME_CHAR='SYME',
                         NUME_ORDRE=1,
                         OPTION='CALC_K_G'
                     )

# COURONNE 2
# ----------

G2_33=CALC_G_THETA_T(    MODELE=MO,
                        RESULTAT=CHAMDEP2,
                         THETA=THETA2,
                        EXCIT=_F(CHARGE=CH_TEMP,),
                        CHAM_MATER=CHMAT,
                        SYME_CHAR='SYME',
                        NUME_ORDRE=1
                    )

GK2_33=CALC_G_THETA_T(    MODELE=MO,
                         RESULTAT=CHAMDEP2,
                          THETA=THETA2,
                         FOND_FISS=FOND,
                         EXCIT=_F(CHARGE=CH_TEMP,),
                         CHAM_MATER=CHMAT,
                         SYME_CHAR='SYME',
                         NUME_ORDRE=1,
                         OPTION='CALC_K_G'
                     )

# COURONNE 3
# ----------

G3_33=CALC_G_THETA_T(    MODELE=MO,
                        RESULTAT=CHAMDEP2,
                         THETA=THETA3,
                        EXCIT=_F(CHARGE=CH_TEMP,),
                        CHAM_MATER=CHMAT,
                        SYME_CHAR='SYME',
                        NUME_ORDRE=1
                    )

GK3_33=CALC_G_THETA_T(    MODELE=MO,
                         RESULTAT=CHAMDEP2,
                          THETA=THETA3,
                         FOND_FISS=FOND,
                         EXCIT=_F(CHARGE=CH_TEMP,),
                         CHAM_MATER=CHMAT,
                         SYME_CHAR='SYME',
                         NUME_ORDRE=1,
                         OPTION='CALC_K_G'
                     )

# ********************************************************
# ALPHA = 0.335
# ********************************************************

# COURONNE 0
# ----------

G0_335=CALC_G_THETA_T(    MODELE=MO,
                        RESULTAT=CHAMDEP3,
                         THETA=THETA0,
                        EXCIT=_F(CHARGE=CH_TEMP,),
                        CHAM_MATER=CHMAT,
                        SYME_CHAR='SYME',
                        NUME_ORDRE=1
                    )

GK0_335=CALC_G_THETA_T(    MODELE=MO,
                         RESULTAT=CHAMDEP3,
                          THETA=THETA0,
                         FOND_FISS=FOND,
                         EXCIT=_F(CHARGE=CH_TEMP,),
                         CHAM_MATER=CHMAT,
                         SYME_CHAR='SYME',
                         NUME_ORDRE=1,
                         OPTION='CALC_K_G'
                     )

# COURONNE 1
# ----------

G1_335=CALC_G_THETA_T(    MODELE=MO,
                        RESULTAT=CHAMDEP3,
                         THETA=THETA1,
                        EXCIT=_F(CHARGE=CH_TEMP,),
                        CHAM_MATER=CHMAT,
                        SYME_CHAR='SYME',
                        NUME_ORDRE=1
                    )

GK1_335=CALC_G_THETA_T(    MODELE=MO,
                         RESULTAT=CHAMDEP3,
                          THETA=THETA1,
                         FOND_FISS=FOND,
                         EXCIT=_F(CHARGE=CH_TEMP,),
                         CHAM_MATER=CHMAT,
                         SYME_CHAR='SYME',
                         NUME_ORDRE=1,
                         OPTION='CALC_K_G'
                     )

# COURONNE 2
# ----------

G2_335=CALC_G_THETA_T(    MODELE=MO,
                        RESULTAT=CHAMDEP3,
                         THETA=THETA2,
                        EXCIT=_F(CHARGE=CH_TEMP,),
                        CHAM_MATER=CHMAT,
                        SYME_CHAR='SYME',
                        NUME_ORDRE=1
                    )

GK2_335=CALC_G_THETA_T(    MODELE=MO,
                         RESULTAT=CHAMDEP3,
                          THETA=THETA2,
                         FOND_FISS=FOND,
                         EXCIT=_F(CHARGE=CH_TEMP,),
                         CHAM_MATER=CHMAT,
                         SYME_CHAR='SYME',
                         NUME_ORDRE=1,
                         OPTION='CALC_K_G'
                     )

# COURONNE 3
# ----------

G3_335=CALC_G_THETA_T(    MODELE=MO,
                        RESULTAT=CHAMDEP3,
                         THETA=THETA3,
                        EXCIT=_F(CHARGE=CH_TEMP,),
                        CHAM_MATER=CHMAT,
                        SYME_CHAR='SYME',
                        NUME_ORDRE=1
                    )

GK3_335=CALC_G_THETA_T(    MODELE=MO,
                         RESULTAT=CHAMDEP3,
                          THETA=THETA3,
                         FOND_FISS=FOND,
                         EXCIT=_F(CHARGE=CH_TEMP,),
                         CHAM_MATER=CHMAT,
                         SYME_CHAR='SYME',
                         NUME_ORDRE=1,
                         OPTION='CALC_K_G'
                     )

# ********************************************************
# ALPHA = 0.34
# ********************************************************

# COURONNE 0
# ----------

G0_34=CALC_G_THETA_T(    MODELE=MO,
                        RESULTAT=CHAMDEP4,
                         THETA=THETA0,
                        EXCIT=_F(CHARGE=CH_TEMP,),
                        CHAM_MATER=CHMAT,
                        SYME_CHAR='SYME',
                        NUME_ORDRE=1
                    )

GK0_34=CALC_G_THETA_T(    MODELE=MO,
                         RESULTAT=CHAMDEP4,
                          THETA=THETA0,
                         FOND_FISS=FOND,
                         EXCIT=_F(CHARGE=CH_TEMP,),
                         CHAM_MATER=CHMAT,
                         SYME_CHAR='SYME',
                         NUME_ORDRE=1,
                         OPTION='CALC_K_G'
                     )

# COURONNE 1
# ----------

G1_34=CALC_G_THETA_T(    MODELE=MO,
                        RESULTAT=CHAMDEP4,
                         THETA=THETA1,
                        EXCIT=_F(CHARGE=CH_TEMP,),
                        CHAM_MATER=CHMAT,
                        SYME_CHAR='SYME',
                        NUME_ORDRE=1
                    )

GK1_34=CALC_G_THETA_T(    MODELE=MO,
                         RESULTAT=CHAMDEP4,
                          THETA=THETA1,
                         FOND_FISS=FOND,
                         EXCIT=_F(CHARGE=CH_TEMP,),
                         CHAM_MATER=CHMAT,
                         SYME_CHAR='SYME',
                         NUME_ORDRE=1,
                         OPTION='CALC_K_G'
                     )

# COURONNE 2
# ----------

G2_34=CALC_G_THETA_T(    MODELE=MO,
                        RESULTAT=CHAMDEP4,
                         THETA=THETA2,
                        EXCIT=_F(CHARGE=CH_TEMP,),
                        CHAM_MATER=CHMAT,
                        SYME_CHAR='SYME',
                        NUME_ORDRE=1
                    )

GK2_34=CALC_G_THETA_T(    MODELE=MO,
                         RESULTAT=CHAMDEP4,
                          THETA=THETA2,
                         FOND_FISS=FOND,
                         EXCIT=_F(CHARGE=CH_TEMP,),
                         CHAM_MATER=CHMAT,
                         SYME_CHAR='SYME',
                         NUME_ORDRE=1,
                         OPTION='CALC_K_G'
                     )

# COURONNE 3
# ----------

G3_34=CALC_G_THETA_T(    MODELE=MO,
                        RESULTAT=CHAMDEP4,
                         THETA=THETA3,
                        EXCIT=_F(CHARGE=CH_TEMP,),
                        CHAM_MATER=CHMAT,
                        SYME_CHAR='SYME',
                        NUME_ORDRE=1
                    )

GK3_34=CALC_G_THETA_T(    MODELE=MO,
                         RESULTAT=CHAMDEP4,
                          THETA=THETA3,
                         FOND_FISS=FOND,
                         EXCIT=_F(CHARGE=CH_TEMP,),
                         CHAM_MATER=CHMAT,
                         SYME_CHAR='SYME',
                         NUME_ORDRE=1,
                         OPTION='CALC_K_G'
                     )

# ********************************************************
# ALPHA = 0.345
# ********************************************************

# COURONNE 0
# ----------

G0_345=CALC_G_THETA_T(    MODELE=MO,
                        RESULTAT=CHAMDEP5,
                         THETA=THETA0,
                        EXCIT=_F(CHARGE=CH_TEMP,),
                        CHAM_MATER=CHMAT,
                        SYME_CHAR='SYME',
                        NUME_ORDRE=1
                    )

GK0_345=CALC_G_THETA_T(    MODELE=MO,
                         RESULTAT=CHAMDEP5,
                          THETA=THETA0,
                         FOND_FISS=FOND,
                         EXCIT=_F(CHARGE=CH_TEMP,),
                         CHAM_MATER=CHMAT,
                         SYME_CHAR='SYME',
                         NUME_ORDRE=1,
                         OPTION='CALC_K_G'
                     )

# COURONNE 1
# ----------

G1_345=CALC_G_THETA_T(    MODELE=MO,
                        RESULTAT=CHAMDEP5,
                         THETA=THETA1,
                        EXCIT=_F(CHARGE=CH_TEMP,),
                        CHAM_MATER=CHMAT,
                        SYME_CHAR='SYME',
                        NUME_ORDRE=1
                    )

GK1_345=CALC_G_THETA_T(    MODELE=MO,
                         RESULTAT=CHAMDEP5,
                          THETA=THETA1,
                         FOND_FISS=FOND,
                         EXCIT=_F(CHARGE=CH_TEMP,),
                         CHAM_MATER=CHMAT,
                         SYME_CHAR='SYME',
                         NUME_ORDRE=1,
                         OPTION='CALC_K_G'
                     )

# COURONNE 2
# ----------

G2_345=CALC_G_THETA_T(    MODELE=MO,
                        RESULTAT=CHAMDEP5,
                         THETA=THETA2,
                        EXCIT=_F(CHARGE=CH_TEMP,),
                        CHAM_MATER=CHMAT,
                        SYME_CHAR='SYME',
                        NUME_ORDRE=1
                    )

GK2_345=CALC_G_THETA_T(    MODELE=MO,
                         RESULTAT=CHAMDEP5,
                          THETA=THETA2,
                         FOND_FISS=FOND,
                         EXCIT=_F(CHARGE=CH_TEMP,),
                         CHAM_MATER=CHMAT,
                         SYME_CHAR='SYME',
                         NUME_ORDRE=1,
                         OPTION='CALC_K_G'
                     )

# COURONNE 3
# ----------

G3_345=CALC_G_THETA_T(    MODELE=MO,
                        RESULTAT=CHAMDEP5,
                         THETA=THETA3,
                        EXCIT=_F(CHARGE=CH_TEMP,),
                        CHAM_MATER=CHMAT,
                        SYME_CHAR='SYME',
                        NUME_ORDRE=1
                    )

GK3_345=CALC_G_THETA_T(    MODELE=MO,
                         RESULTAT=CHAMDEP5,
                          THETA=THETA3,
                         FOND_FISS=FOND,
                         EXCIT=_F(CHARGE=CH_TEMP,),
                         CHAM_MATER=CHMAT,
                         SYME_CHAR='SYME',
                         NUME_ORDRE=1,
                         OPTION='CALC_K_G'
                     )

# ********************************************************
# ALPHA = 0.35
# ********************************************************

# COURONNE 0
# ----------

G0_35=CALC_G_THETA_T(    MODELE=MO,
                        RESULTAT=CHAMDEP6,
                         THETA=THETA0,
                        EXCIT=_F(CHARGE=CH_TEMP,),
                        CHAM_MATER=CHMAT,
                        SYME_CHAR='SYME',
                        NUME_ORDRE=1
                    )

GK0_35=CALC_G_THETA_T(    MODELE=MO,
                         RESULTAT=CHAMDEP6,
                          THETA=THETA0,
                         FOND_FISS=FOND,
                         EXCIT=_F(CHARGE=CH_TEMP,),
                         CHAM_MATER=CHMAT,
                         SYME_CHAR='SYME',
                         NUME_ORDRE=1,
                         OPTION='CALC_K_G'
                     )

# COURONNE 1
# ----------

G1_35=CALC_G_THETA_T(    MODELE=MO,
                        RESULTAT=CHAMDEP6,
                         THETA=THETA1,
                        EXCIT=_F(CHARGE=CH_TEMP,),
                        CHAM_MATER=CHMAT,
                        SYME_CHAR='SYME',
                        NUME_ORDRE=1
                    )

GK1_35=CALC_G_THETA_T(    MODELE=MO,
                         RESULTAT=CHAMDEP6,
                          THETA=THETA1,
                         FOND_FISS=FOND,
                         EXCIT=_F(CHARGE=CH_TEMP,),
                         CHAM_MATER=CHMAT,
                         SYME_CHAR='SYME',
                         NUME_ORDRE=1,
                         OPTION='CALC_K_G'
                     )

# COURONNE 2
# ----------

G2_35=CALC_G_THETA_T(    MODELE=MO,
                        RESULTAT=CHAMDEP6,
                         THETA=THETA2,
                        EXCIT=_F(CHARGE=CH_TEMP,),
                        CHAM_MATER=CHMAT,
                        SYME_CHAR='SYME',
                        NUME_ORDRE=1
                    )

GK2_35=CALC_G_THETA_T(    MODELE=MO,
                         RESULTAT=CHAMDEP6,
                          THETA=THETA2,
                         FOND_FISS=FOND,
                         EXCIT=_F(CHARGE=CH_TEMP,),
                         CHAM_MATER=CHMAT,
                         SYME_CHAR='SYME',
                         NUME_ORDRE=1,
                         OPTION='CALC_K_G'
                     )

# COURONNE 3
# ----------

G3_35=CALC_G_THETA_T(    MODELE=MO,
                        RESULTAT=CHAMDEP6,
                         THETA=THETA3,
                        EXCIT=_F(CHARGE=CH_TEMP,),
                        CHAM_MATER=CHMAT,
                        SYME_CHAR='SYME',
                        NUME_ORDRE=1
                    )

GK3_35=CALC_G_THETA_T(    MODELE=MO,
                         RESULTAT=CHAMDEP6,
                          THETA=THETA3,
                         FOND_FISS=FOND,
                         EXCIT=_F(CHARGE=CH_TEMP,),
                         CHAM_MATER=CHMAT,
                         SYME_CHAR='SYME',
                         NUME_ORDRE=1,
                         OPTION='CALC_K_G'
                     )

# ********************************************************
# ALPHA = 0.36
# ********************************************************

# COURONNE 0
# ----------

G0_36=CALC_G_THETA_T(    MODELE=MO,
                        RESULTAT=CHAMDEP7,
                         THETA=THETA0,
                        EXCIT=_F(CHARGE=CH_TEMP,),
                        CHAM_MATER=CHMAT,
                        SYME_CHAR='SYME',
                        NUME_ORDRE=1
                    )

GK0_36=CALC_G_THETA_T(    MODELE=MO,
                         RESULTAT=CHAMDEP7,
                          THETA=THETA0,
                         FOND_FISS=FOND,
                         EXCIT=_F(CHARGE=CH_TEMP,),
                         CHAM_MATER=CHMAT,
                         SYME_CHAR='SYME',
                         NUME_ORDRE=1,
                         OPTION='CALC_K_G'
                     )

# COURONNE 1
# ----------

G1_36=CALC_G_THETA_T(    MODELE=MO,
                        RESULTAT=CHAMDEP7,
                         THETA=THETA1,
                        EXCIT=_F(CHARGE=CH_TEMP,),
                        CHAM_MATER=CHMAT,
                        SYME_CHAR='SYME',
                        NUME_ORDRE=1
                    )

GK1_36=CALC_G_THETA_T(    MODELE=MO,
                         RESULTAT=CHAMDEP7,
                          THETA=THETA1,
                         FOND_FISS=FOND,
                         EXCIT=_F(CHARGE=CH_TEMP,),
                         CHAM_MATER=CHMAT,
                         SYME_CHAR='SYME',
                         NUME_ORDRE=1,
                         OPTION='CALC_K_G'
                     )

# COURONNE 2
# ----------

G2_36=CALC_G_THETA_T(    MODELE=MO,
                        RESULTAT=CHAMDEP7,
                         THETA=THETA2,
                        EXCIT=_F(CHARGE=CH_TEMP,),
                        CHAM_MATER=CHMAT,
                        SYME_CHAR='SYME',
                        NUME_ORDRE=1
                    )

GK2_36=CALC_G_THETA_T(    MODELE=MO,
                         RESULTAT=CHAMDEP7,
                          THETA=THETA2,
                         FOND_FISS=FOND,
                         EXCIT=_F(CHARGE=CH_TEMP,),
                         CHAM_MATER=CHMAT,
                         SYME_CHAR='SYME',
                         NUME_ORDRE=1,
                         OPTION='CALC_K_G'
                     )

# COURONNE 3
# ----------

G3_36=CALC_G_THETA_T(    MODELE=MO,
                        RESULTAT=CHAMDEP7,
                         THETA=THETA3,
                        EXCIT=_F(CHARGE=CH_TEMP,),
                        CHAM_MATER=CHMAT,
                        SYME_CHAR='SYME',
                        NUME_ORDRE=1
                    )

GK3_36=CALC_G_THETA_T(    MODELE=MO,
                         RESULTAT=CHAMDEP7,
                          THETA=THETA3,
                         FOND_FISS=FOND,
                         EXCIT=_F(CHARGE=CH_TEMP,),
                         CHAM_MATER=CHMAT,
                         SYME_CHAR='SYME',
                         NUME_ORDRE=1,
                         OPTION='CALC_K_G'
                     )

# ********************************************************
# ALPHA = 0.38
# ********************************************************

# COURONNE 0
# ----------

G0_38=CALC_G_THETA_T(    MODELE=MO,
                        RESULTAT=CHAMDEP8,
                         THETA=THETA0,
                        EXCIT=_F(CHARGE=CH_TEMP,),
                        CHAM_MATER=CHMAT,
                        SYME_CHAR='SYME',
                        NUME_ORDRE=1
                    )

GK0_38=CALC_G_THETA_T(    MODELE=MO,
                         RESULTAT=CHAMDEP8,
                          THETA=THETA0,
                         FOND_FISS=FOND,
                         EXCIT=_F(CHARGE=CH_TEMP,),
                         CHAM_MATER=CHMAT,
                         SYME_CHAR='SYME',
                         NUME_ORDRE=1,
                         OPTION='CALC_K_G'
                     )

# COURONNE 1
# ----------

G1_38=CALC_G_THETA_T(    MODELE=MO,
                        RESULTAT=CHAMDEP8,
                         THETA=THETA1,
                        EXCIT=_F(CHARGE=CH_TEMP,),
                        CHAM_MATER=CHMAT,
                        SYME_CHAR='SYME',
                        NUME_ORDRE=1
                    )

GK1_38=CALC_G_THETA_T(    MODELE=MO,
                         RESULTAT=CHAMDEP8,
                          THETA=THETA1,
                         FOND_FISS=FOND,
                         EXCIT=_F(CHARGE=CH_TEMP,),
                         CHAM_MATER=CHMAT,
                         SYME_CHAR='SYME',
                         NUME_ORDRE=1,
                         OPTION='CALC_K_G'
                     )

# COURONNE 2
# ----------

G2_38=CALC_G_THETA_T(    MODELE=MO,
                        RESULTAT=CHAMDEP8,
                         THETA=THETA2,
                        EXCIT=_F(CHARGE=CH_TEMP,),
                        CHAM_MATER=CHMAT,
                        SYME_CHAR='SYME',
                        NUME_ORDRE=1
                    )

GK2_38=CALC_G_THETA_T(    MODELE=MO,
                         RESULTAT=CHAMDEP8,
                          THETA=THETA2,
                         FOND_FISS=FOND,
                         EXCIT=_F(CHARGE=CH_TEMP,),
                         CHAM_MATER=CHMAT,
                         SYME_CHAR='SYME',
                         NUME_ORDRE=1,
                         OPTION='CALC_K_G'
                     )

# COURONNE 3
# ----------

G3_38=CALC_G_THETA_T(    MODELE=MO,
                        RESULTAT=CHAMDEP8,
                         THETA=THETA3,
                        EXCIT=_F(CHARGE=CH_TEMP,),
                        CHAM_MATER=CHMAT,
                        SYME_CHAR='SYME',
                        NUME_ORDRE=1
                    )

GK3_38=CALC_G_THETA_T(    MODELE=MO,
                         RESULTAT=CHAMDEP8,
                          THETA=THETA3,
                         FOND_FISS=FOND,
                         EXCIT=_F(CHARGE=CH_TEMP,),
                         CHAM_MATER=CHMAT,
                         SYME_CHAR='SYME',
                         NUME_ORDRE=1,
                         OPTION='CALC_K_G'
                     )

# ********************************************************
# ALPHA = 0.40
# ********************************************************

# COURONNE 0
# ----------

G0_40=CALC_G_THETA_T(    MODELE=MO,
                        RESULTAT=CHAMDEP9,
                         THETA=THETA0,
                        EXCIT=_F(CHARGE=CH_TEMP,),
                        CHAM_MATER=CHMAT,
                        SYME_CHAR='SYME',
                        NUME_ORDRE=1
                    )

GK0_40=CALC_G_THETA_T(    MODELE=MO,
                         RESULTAT=CHAMDEP9,
                          THETA=THETA0,
                         FOND_FISS=FOND,
                         EXCIT=_F(CHARGE=CH_TEMP,),
                         CHAM_MATER=CHMAT,
                         SYME_CHAR='SYME',
                         NUME_ORDRE=1,
                         OPTION='CALC_K_G'
                     )

# COURONNE 1
# ----------

G1_40=CALC_G_THETA_T(    MODELE=MO,
                        RESULTAT=CHAMDEP9,
                         THETA=THETA1,
                        EXCIT=_F(CHARGE=CH_TEMP,),
                        CHAM_MATER=CHMAT,
                        SYME_CHAR='SYME',
                        NUME_ORDRE=1
                    )

GK1_40=CALC_G_THETA_T(    MODELE=MO,
                         RESULTAT=CHAMDEP9,
                          THETA=THETA1,
                         FOND_FISS=FOND,
                         EXCIT=_F(CHARGE=CH_TEMP,),
                         CHAM_MATER=CHMAT,
                         SYME_CHAR='SYME',
                         NUME_ORDRE=1,
                         OPTION='CALC_K_G'
                     )

# COURONNE 2
# ----------

G2_40=CALC_G_THETA_T(    MODELE=MO,
                        RESULTAT=CHAMDEP9,
                         THETA=THETA2,
                        EXCIT=_F(CHARGE=CH_TEMP,),
                        CHAM_MATER=CHMAT,
                        SYME_CHAR='SYME',
                        NUME_ORDRE=1
                    )

GK2_40=CALC_G_THETA_T(    MODELE=MO,
                         RESULTAT=CHAMDEP9,
                          THETA=THETA2,
                         FOND_FISS=FOND,
                         EXCIT=_F(CHARGE=CH_TEMP,),
                         CHAM_MATER=CHMAT,
                         SYME_CHAR='SYME',
                         NUME_ORDRE=1,
                         OPTION='CALC_K_G'
                     )

# COURONNE 3
# ----------

G3_40=CALC_G_THETA_T(    MODELE=MO,
                        RESULTAT=CHAMDEP9,
                         THETA=THETA3,
                        EXCIT=_F(CHARGE=CH_TEMP,),
                        CHAM_MATER=CHMAT,
                        SYME_CHAR='SYME',
                        NUME_ORDRE=1
                    )

GK3_40=CALC_G_THETA_T(    MODELE=MO,
                         RESULTAT=CHAMDEP9,
                          THETA=THETA3,
                         FOND_FISS=FOND,
                         EXCIT=_F(CHARGE=CH_TEMP,),
                         CHAM_MATER=CHMAT,
                         SYME_CHAR='SYME',
                         NUME_ORDRE=1,
                         OPTION='CALC_K_G'
                     )

# *******************************************************
## IMPRESSION DES RESULTATS CHARGEMENT 1 SANS CONTACT
## ----------------------------------------------------


TEST_TABLE(       TABLE=GK0_P,
                         FILTRE=_F(  NOM_PARA = 'NUME_ORDRE',
                                  VALE_I = 1),
                       NOM_PARA='K1',
                           VALE=1.1482,
                      PRECISION=0.02    )

TEST_TABLE(       TABLE=GK1_P,
                         FILTRE=_F(  NOM_PARA = 'NUME_ORDRE',
                                  VALE_I = 1),
                       NOM_PARA='K1',
                           VALE=1.1482,
                      PRECISION=0.02    )

TEST_TABLE(       TABLE=GK2_P,
                         FILTRE=_F(  NOM_PARA = 'NUME_ORDRE',
                                  VALE_I = 1),
                       NOM_PARA='K1',
                           VALE=1.1482,
                      PRECISION=0.02    )

TEST_TABLE(       TABLE=GK3_P,
                         FILTRE=_F(  NOM_PARA = 'NUME_ORDRE',
                                  VALE_I = 1),
                       NOM_PARA='K1',
                           VALE=1.1482,
                      PRECISION=0.02    )

## IMPRESSION DES RESULTATS CHARGEMENT 2 SANS CONTACT
## ----------------------------------------------------


TEST_TABLE(       TABLE=GK0_T,
                         FILTRE=_F(  NOM_PARA = 'NUME_ORDRE',
                                  VALE_I = 1),
                       NOM_PARA='K1',
                           VALE=-.412369,
                      PRECISION=0.07    )

TEST_TABLE(       TABLE=GK1_T,
                         FILTRE=_F(  NOM_PARA = 'NUME_ORDRE',
                                  VALE_I = 1),
                       NOM_PARA='K1',
                           VALE=-.412369,
                      PRECISION=0.07    )

TEST_TABLE(       TABLE=GK2_T,
                         FILTRE=_F(  NOM_PARA = 'NUME_ORDRE',
                                  VALE_I = 1),
                       NOM_PARA='K1',
                           VALE=-.412369,
                      PRECISION=0.07    )

TEST_TABLE(       TABLE=GK3_T,
                         FILTRE=_F(  NOM_PARA = 'NUME_ORDRE',
                                  VALE_I = 1),
                       NOM_PARA='K1',
                           VALE=-.412369,
                      PRECISION=0.07    )

## IMPRESSION DES RESULTATS CHARGEMENT CH3 AVEC CONTACT
## ----------------------------------------------------

# ALPHA = 0.30
# ------------


TEST_TABLE(       TABLE=G0_30,
                         FILTRE=_F(  NOM_PARA = 'NUME_ORDRE',
                                  VALE_I = 1),
                       NOM_PARA='G',
                           VALE=0.,
                      CRITERE='ABSOLU',
                      PRECISION=1.E-11   )

TEST_TABLE(       TABLE=G1_30,
                         FILTRE=_F(  NOM_PARA = 'NUME_ORDRE',
                                  VALE_I = 1),
                       NOM_PARA='G',
                           VALE=0.,
                      CRITERE='ABSOLU',
                      PRECISION=1.E-11   )

TEST_TABLE(       TABLE=G2_30,
                         FILTRE=_F(  NOM_PARA = 'NUME_ORDRE',
                                  VALE_I = 1),
                       NOM_PARA='G',
                           VALE=0.,
                      CRITERE='ABSOLU',
                      PRECISION=1.E-11   )

TEST_TABLE(       TABLE=G3_30,
                         FILTRE=_F(  NOM_PARA = 'NUME_ORDRE',
                                  VALE_I = 1),
                       NOM_PARA='G',
                           VALE=0.,
                      CRITERE='ABSOLU',
                      PRECISION=1.E-11   )

# ALPHA = 0.32
# ------------


TEST_TABLE(       TABLE=G0_32,
                         FILTRE=_F(  NOM_PARA = 'NUME_ORDRE',
                                  VALE_I = 1),
                       NOM_PARA='G',
                           VALE=0.,
                      CRITERE='ABSOLU',
                      PRECISION=1.E-11   )

TEST_TABLE(       TABLE=G1_32,
                         FILTRE=_F(  NOM_PARA = 'NUME_ORDRE',
                                  VALE_I = 1),
                       NOM_PARA='G',
                           VALE=0.,
                      CRITERE='ABSOLU',
                      PRECISION=1.E-11   )

TEST_TABLE(       TABLE=G2_32,
                         FILTRE=_F(  NOM_PARA = 'NUME_ORDRE',
                                  VALE_I = 1),
                       NOM_PARA='G',
                           VALE=0.,
                      CRITERE='ABSOLU',
                      PRECISION=1.E-11   )

TEST_TABLE(       TABLE=G3_32,
                         FILTRE=_F(  NOM_PARA = 'NUME_ORDRE',
                                  VALE_I = 1),
                       NOM_PARA='G',
                           VALE=0.,
                      CRITERE='ABSOLU',
                      PRECISION=1.E-11   )

# ALPHA = 0.33
# ------------


TEST_TABLE(       TABLE=GK0_33,
                         FILTRE=_F(  NOM_PARA = 'NUME_ORDRE',
                                  VALE_I = 1),
                       NOM_PARA='K1',
                           VALE=1.2075E-3,
                      PRECISION=0.06    )

TEST_TABLE(       TABLE=GK1_33,
                         FILTRE=_F(  NOM_PARA = 'NUME_ORDRE',
                                  VALE_I = 1),
                       NOM_PARA='K1',
                           VALE=1.2075E-3,
                      PRECISION=0.02    )

TEST_TABLE(       TABLE=GK2_33,
                         FILTRE=_F(  NOM_PARA = 'NUME_ORDRE',
                                  VALE_I = 1),
                       NOM_PARA='K1',
                           VALE=1.2075E-3,
                      PRECISION=0.045    )

# ALPHA = 0.335
# ------------


TEST_TABLE(       TABLE=GK0_335,
                         FILTRE=_F(  NOM_PARA = 'NUME_ORDRE',
                                  VALE_I = 1),
                       NOM_PARA='K1',
                           VALE=3.0187E-3,
                      PRECISION=0.025    )

TEST_TABLE(       TABLE=GK1_335,
                         FILTRE=_F(  NOM_PARA = 'NUME_ORDRE',
                                  VALE_I = 1),
                       NOM_PARA='K1',
                           VALE=3.0187E-3,
                      PRECISION=0.02    )

TEST_TABLE(       TABLE=GK2_335,
                         FILTRE=_F(  NOM_PARA = 'NUME_ORDRE',
                                  VALE_I = 1),
                       NOM_PARA='K1',
                           VALE=3.0187E-3,
                      PRECISION=0.02    )

TEST_TABLE(       TABLE=GK3_335,
                         FILTRE=_F(  NOM_PARA = 'NUME_ORDRE',
                                  VALE_I = 1),
                       NOM_PARA='K1',
                           VALE=3.0187E-3,
                      PRECISION=0.10   )

# ALPHA = 0.34
# ------------


TEST_TABLE(       TABLE=GK0_34,
                         FILTRE=_F(  NOM_PARA = 'NUME_ORDRE',
                                  VALE_I = 1),
                       NOM_PARA='K1',
                           VALE=5.4336E-3,
                      PRECISION=0.01    )

TEST_TABLE(       TABLE=GK1_34,
                         FILTRE=_F(  NOM_PARA = 'NUME_ORDRE',
                                  VALE_I = 1),
                       NOM_PARA='K1',
                           VALE=5.4336E-3,
                      PRECISION=0.01    )

TEST_TABLE(       TABLE=GK2_34,
                         FILTRE=_F(  NOM_PARA = 'NUME_ORDRE',
                                  VALE_I = 1),
                       NOM_PARA='K1',
                           VALE=5.4336E-3,
                      PRECISION=0.01    )

TEST_TABLE(       TABLE=GK3_34,
                         FILTRE=_F(  NOM_PARA = 'NUME_ORDRE',
                                  VALE_I = 1),
                       NOM_PARA='K1',
                           VALE=5.4336E-3,
                      PRECISION=0.01    )

# ALPHA = 0.345
# -------------


TEST_TABLE(       TABLE=GK0_345,
                         FILTRE=_F(  NOM_PARA = 'NUME_ORDRE',
                                  VALE_I = 1),
                       NOM_PARA='K1',
                           VALE=8.5865E-3,
                      PRECISION=0.04    )

TEST_TABLE(       TABLE=GK1_345,
                         FILTRE=_F(  NOM_PARA = 'NUME_ORDRE',
                                  VALE_I = 1),
                       NOM_PARA='K1',
                           VALE=8.5865E-3,
                      PRECISION=0.04    )

TEST_TABLE(       TABLE=GK2_345,
                         FILTRE=_F(  NOM_PARA = 'NUME_ORDRE',
                                  VALE_I = 1),
                       NOM_PARA='K1',
                           VALE=8.5865E-3,
                      PRECISION=0.04    )

TEST_TABLE(       TABLE=GK3_345,
                         FILTRE=_F(  NOM_PARA = 'NUME_ORDRE',
                                  VALE_I = 1),
                       NOM_PARA='K1',
                           VALE=8.5865E-3,
                      PRECISION=0.04    )

# ALPHA = 0.35
# ------------


TEST_TABLE(       TABLE=GK0_35,
                         FILTRE=_F(  NOM_PARA = 'NUME_ORDRE',
                                  VALE_I = 1),
                       NOM_PARA='K1',
                           VALE=1.2075E-2,
                      PRECISION=0.04    )

TEST_TABLE(       TABLE=GK1_35,
                         FILTRE=_F(  NOM_PARA = 'NUME_ORDRE',
                                  VALE_I = 1),
                       NOM_PARA='K1',
                           VALE=1.2075E-2,
                      PRECISION=0.04    )

TEST_TABLE(       TABLE=GK2_35,
                         FILTRE=_F(  NOM_PARA = 'NUME_ORDRE',
                                  VALE_I = 1),
                       NOM_PARA='K1',
                           VALE=1.2075E-2,
                      PRECISION=0.04    )

TEST_TABLE(       TABLE=GK3_35,
                         FILTRE=_F(  NOM_PARA = 'NUME_ORDRE',
                                  VALE_I = 1),
                       NOM_PARA='K1',
                           VALE=1.2075E-2,
                      PRECISION=0.04    )

# ALPHA = 0.36
# ------------


TEST_TABLE(       TABLE=GK0_36,
                         FILTRE=_F(  NOM_PARA = 'NUME_ORDRE',
                                  VALE_I = 1),
                       NOM_PARA='K1',
                           VALE=2.1757E-2,
                      PRECISION=0.01    )

TEST_TABLE(       TABLE=GK1_36,
                         FILTRE=_F(  NOM_PARA = 'NUME_ORDRE',
                                  VALE_I = 1),
                       NOM_PARA='K1',
                           VALE=2.1757E-2,
                      PRECISION=0.01    )

TEST_TABLE(       TABLE=GK2_36,
                         FILTRE=_F(  NOM_PARA = 'NUME_ORDRE',
                                  VALE_I = 1),
                       NOM_PARA='K1',
                           VALE=2.1757E-2,
                      PRECISION=0.01    )

TEST_TABLE(       TABLE=GK3_36,
                         FILTRE=_F(  NOM_PARA = 'NUME_ORDRE',
                                  VALE_I = 1),
                       NOM_PARA='K1',
                           VALE=2.1757E-2,
                      PRECISION=0.01    )

# ALPHA = 0.40
# ------------


TEST_TABLE(       TABLE=GK0_40,
                         FILTRE=_F(  NOM_PARA = 'NUME_ORDRE',
                                  VALE_I = 1),
                       NOM_PARA='K1',
                           VALE=6.6478E-2,
                      PRECISION=0.01    )

TEST_TABLE(       TABLE=GK1_40,
                         FILTRE=_F(  NOM_PARA = 'NUME_ORDRE',
                                  VALE_I = 1),
                       NOM_PARA='K1',
                           VALE=6.6478E-2,
                      PRECISION=0.01    )

TEST_TABLE(       TABLE=GK2_40,
                         FILTRE=_F(  NOM_PARA = 'NUME_ORDRE',
                                  VALE_I = 1),
                       NOM_PARA='K1',
                           VALE=6.6478E-2,
                      PRECISION=0.01    )

TEST_TABLE(       TABLE=GK3_40,
                         FILTRE=_F(  NOM_PARA = 'NUME_ORDRE',
                                  VALE_I = 1),
                       NOM_PARA='K1',
                           VALE=6.6478E-2,
                      PRECISION=0.01    )

FIN( )
#
