# TITRE BIBLIO_35  FISSURE RADIALE INTERNE DANS UN CYLINDRE EPAIS SOUS PRESSION ET CHARGEMENT THERMIQUE EQUIVALENT A L'AUTOFRETTAGE
# ======================================================================
# COPYRIGHT (C) 1991 - 2013  EDF R&D                  WWW.CODE-ASTER.ORG
# THIS PROGRAM IS FREE SOFTWARE; YOU CAN REDISTRIBUTE IT AND/OR MODIFY
# IT UNDER THE TERMS OF THE GNU GENERAL PUBLIC LICENSE AS PUBLISHED BY
# THE FREE SOFTWARE FOUNDATION; EITHER VERSION 2 OF THE LICENSE, OR
# (AT YOUR OPTION) ANY LATER VERSION.
#
# THIS PROGRAM IS DISTRIBUTED IN THE HOPE THAT IT WILL BE USEFUL, BUT
# WITHOUT ANY WARRANTY; WITHOUT EVEN THE IMPLIED WARRANTY OF
# MERCHANTABILITY OR FITNESS FOR A PARTICULAR PURPOSE. SEE THE GNU
# GENERAL PUBLIC LICENSE FOR MORE DETAILS.
#
# YOU SHOULD HAVE RECEIVED A COPY OF THE GNU GENERAL PUBLIC LICENSE
# ALONG WITH THIS PROGRAM; IF NOT, WRITE TO EDF R&D CODE_ASTER,
#    1 AVENUE DU GENERAL DE GAULLE, 92141 CLAMART CEDEX, FRANCE.
# ======================================================================

DEBUT(CODE=_F(NOM='HPLP310B',NIV_PUB_WEB='INTERNET'),DEBUG=_F(SDVERI='OUI'))

MA=LIRE_MAILLAGE(FORMAT='MED',)

MO=AFFE_MODELE(  MAILLAGE=MA,
      AFFE=_F( GROUP_MA = ('VTOT','L_EA'),PHENOMENE = 'MECANIQUE',MODELISATION = 'D_PLAN'))


MAT=DEFI_MATERIAU(ELAS=_F(  E = 1000., NU = 0.3, ALPHA = 1.E-6))


MA=DEFI_GROUP( reuse=MA,   MAILLAGE=MA,CREA_GROUP_NO=(
                     _F(
                   GROUP_MA = ( 'L_AB',  'L_DE',  'L_EA',  'LPOP8',
                                'LP9P10S',  'LPOP8S',  'VTOT', )),
                     _F(  GROUP_MA = 'TOT')),
                     CREA_GROUP_MA=_F(  NOM = 'TOT', TOUT = 'OUI')
                 )

#
E=1000.

SIGMA0=1.

NU=.3

R1=1.

ALPHA=1.E-6

RHO=2.

#
TP=0.

#
T1F = FORMULE(NOM_PARA='TPV',
              VALE='''TPV+((4.*SIGMA0*(1.-NU)*log(RHO/R1))
                                /(sqrt(3.)*E*ALPHA)) ''')

#
# ATTENTION : LA GENERATION DU MAILLAGE .MGIB A PARTIR DU FICHIER
# .DATG FAIT APPARAITRE DES NOEUDS EN 0. A SUPPRIMER, SINON LE
# LOG N'EST PAS DEFINI.
#
F_T = FORMULE(NOM_PARA=('X','Y'),
              VALE='''(T1F(TP)-((T1F(TP)-TP)*
               log((sqrt((X*X)+(Y*Y)))/R1))/(log(RHO/R1)))''')

TEMP0=CREA_CHAMP(  OPERATION='AFFE', TYPE_CHAM='NOEU_TEMP_R',
                         MAILLAGE=MA,
                         AFFE=_F( GROUP_NO = 'TOT',
                               NOM_CMP = 'TEMP',
                               VALE=0.)
                        )
TEMP_IMP=CREA_CHAMP(  OPERATION='AFFE', TYPE_CHAM='NOEU_TEMP_F',
                         MAILLAGE=MA,
                         AFFE=_F( GROUP_NO = 'TOT',
                               NOM_CMP = 'TEMP',
                               VALE_F = F_T)
                        )

TEMP_EV=CREA_RESU(    OPERATION='AFFE', TYPE_RESU='EVOL_THER',
                        NOM_CHAM='TEMP',
                        AFFE=_F(  CHAM_GD = TEMP0,
                                  INST = 0.)
                    )
TEMP_EV=CREA_RESU(    reuse=TEMP_EV,OPERATION='AFFE', TYPE_RESU='EVOL_THER',
                        NOM_CHAM='TEMP',
                        AFFE=_F(  CHAM_GD = TEMP_IMP,
                                  INST = (1.,10.,),)
                    )

CL=AFFE_CHAR_MECA(   MODELE=MO,
            DDL_IMPO=_F( GROUP_NO = ( 'L_AB',  'L_DE', ), DY = 0.),
            LIAISON_DDL=_F(  GROUP_NO = ('PA',  'PE',),
                          DDL = ('DX',  'DX',),
                          COEF_MULT = (1., 1.,),
                          COEF_IMPO = 0.),
                     )

F_IMPO = DEFI_CONSTANTE ( VALE = 0.0 )
F_MULT = DEFI_CONSTANTE ( VALE = -1.0 )

CHAR1 = DEFI_CONTACT(MODELE      = MO,
                     FORMULATION = 'LIAISON_UNIL',
                     ZONE        = _F(
                         GROUP_MA      = ('LPOP8',),
                         SANS_GROUP_NO = ('P0',),
                         NOM_CMP       = ('DY',),
                         COEF_IMPO     = F_IMPO,
                         COEF_MULT     = F_MULT,
                                   ),
                     )


CH10=AFFE_CHAR_MECA(   MODELE=MO,
              PRES_REP=_F(  GROUP_MA = 'L_EA',   PRES = -1.)
                            )

# champ de materiau sans temperature :
CHMAT=AFFE_MATERIAU(  MAILLAGE=MA,AFFE=
            _F( TOUT = 'OUI', MATER = MAT),
                         )


# champ de materiau avec temperature :
CHMAT2=AFFE_MATERIAU(  MAILLAGE=MA,AFFE=(
            _F( TOUT = 'OUI', MATER = MAT),
            ),
            AFFE_VARC=_F(NOM_VARC='TEMP',TOUT='OUI',EVOL=TEMP_EV,VALE_REF=0.),
                         )

INSTMECA=DEFI_LIST_REEL(VALE=1.)


# -------------------------------------------------------------
# CALCUL AVEC LES CHARGEMENTS 1 ET 2 DE LA FICHE (SANS CONTACT)
# -------------------------------------------------------------

CHAMDEPP=MECA_STATIQUE(   MODELE=MO,   CHAM_MATER=CHMAT,EXCIT=(
              _F( CHARGE = CH10),
              _F( CHARGE = CL)),
                          )

CHAMDEPT=MECA_STATIQUE(   MODELE=MO,   CHAM_MATER=CHMAT2,EXCIT=(
              _F( CHARGE = CL)),
              LIST_INST=INSTMECA,
                          )

# -----------------------------------------------------------
# CALCUL AVEC LE CHARGEMENT 3 DE LA FICHE POUR DIFFERENTES
# VALEUR DU PARAMETRE ALPHA (AVEC CONTACT)
# -----------------------------------------------------------
RAMPE=DEFI_FONCTION(NOM_PARA='INST',
                      VALE=(1., 0.30,
                            2., 0.32,
                            3., 0.33,
                            4., 0.335,
                            5., 0.34,
                            6., 0.345,
                            7., 0.35,
                            8., 0.36,
                            9., 0.38,
                            10., 0.40,),
                      PROL_DROITE='LINEAIRE',
                      PROL_GAUCHE='LINEAIRE',);

L_INST=DEFI_LIST_REEL(
                             DEBUT=0.,
                              INTERVALLE=_F( JUSQU_A = 10., NOMBRE = 10)
                           )

CHAMDEP0=STAT_NON_LINE(MODELE=MO,
                       CHAM_MATER=CHMAT2,
                       EXCIT=(_F( CHARGE = CH10,
                                 FONC_MULT=RAMPE),
                              _F( CHARGE = CL)),
                       CONTACT = CHAR1,
                       COMP_ELAS=_F(RELATION = 'ELAS'),
                       NEWTON=_F(MATRICE = 'ELASTIQUE'),
                       INCREMENT=_F(LIST_INST = L_INST,),
                       SOLVEUR=_F(SYME='OUI'),
                       CONVERGENCE=_F(
                ITER_GLOB_MAXI = 20),
              )

FOND=DEFI_FOND_FISS(    MAILLAGE=MA,
                        FOND_FISS=_F( GROUP_NO = ('P0',)),
                        SYME='OUI',
                        LEVRE_SUP=_F(MAILLE='M1609'),
                      )

#  RT = 0.01 (RAYON DU MAILLAGE RAYONNANT)
#  NOMBRE DE COURONNES DU MAILLAGE RAYONNANT = 4
#  LONGUEUR DE LA LEVRE = 0.05


# PREMIERE COURONNE DE QUADRANGLES
# --------------------------------
THETA0=CALC_THETA(    MODELE=MO,
                        THETA_2D=_F(  GROUP_NO = ('P0',),
                                   MODULE = 1.,
                                   R_INF = 0.0025,
                                   R_SUP = 0.005),
                        DIRECTION=(1., 0., 0.,)
                     )

#
# DEUXIEME COURONNE DE QUADRANGLES
# --------------------------------
THETA1=CALC_THETA(    MODELE=MO,
                        THETA_2D=_F(  GROUP_NO = ('P0',),
                                   MODULE = 1.,
                                   R_INF = 0.005,
                                   R_SUP = 0.0075),
                        DIRECTION=(1., 0., 0.,)
                     )

# TROISIEME COURONNE DE QUADRANGLES
# --------------------------------
THETA2=CALC_THETA(    MODELE=MO,
                        THETA_2D=_F(  GROUP_NO = ('P0',),
                                   MODULE = 1.,
                                   R_INF = 0.0075,
                                   R_SUP = 0.01),
                        DIRECTION=(1., 0., 0.,)
                     )

# COURONNE QUELCONQUE
# -------------------
THETA3=CALC_THETA(    MODELE=MO,
                        THETA_2D=_F(  GROUP_NO = ('P0',),
                                   MODULE = 1.,
                                   R_INF = 0.005,
                                   R_SUP = 0.03),
                        DIRECTION=(1., 0., 0.,)
                     )

# ------------------------------------------------
# CALCUL DE G AVEC CHARGEMENT 1 DE LA FICHE
# ------------------------------------------------
#
# COURONNE 0
# ----------

G0_P=CALC_G(    RESULTAT=CHAMDEPP,
                        THETA=_F(THETA=THETA0,SYME='OUI'),
                    )

GK0_P=CALC_G(    RESULTAT=CHAMDEPP,
                         THETA=_F(
                                   R_INF = 0.0025,
                                   R_SUP = 0.005,
                                   DIRECTION=(1., 0., 0.,),
                                   FOND_FISS=FOND),
                         OPTION='CALC_K_G'
                     )

# COURONNE 1
# ----------

G1_P=CALC_G(    RESULTAT=CHAMDEPP,
                        THETA=_F(THETA=THETA1,SYME='OUI'),
                    )

GK1_P=CALC_G(    RESULTAT=CHAMDEPP,
                         THETA=_F(
                                   R_INF = 0.005,
                                   R_SUP = 0.0075,
                                   DIRECTION=(1., 0., 0.,),
                                   FOND_FISS=FOND,),
                         OPTION='CALC_K_G'
                     )

# COURONNE 2
# ----------

G2_P=CALC_G(    RESULTAT=CHAMDEPP,
                        THETA=_F(THETA=THETA2,SYME='OUI'),
                    )

GK2_P=CALC_G(    RESULTAT=CHAMDEPP,
                         THETA=_F(
                                   R_INF = 0.0075,
                                   R_SUP = 0.01,
                                   DIRECTION=(1., 0., 0.,),
                                   FOND_FISS=FOND),
                         OPTION='CALC_K_G'
                     )

# COURONNE 3
# ----------

G3_P=CALC_G(    RESULTAT=CHAMDEPP,
                        THETA=_F(THETA=THETA3,SYME='OUI'),
                    )

GK3_P=CALC_G(    RESULTAT=CHAMDEPP,
                         THETA=_F(
                                   R_INF = 0.005,
                                   R_SUP = 0.03,
                                   DIRECTION=(1., 0., 0.,),
                                   FOND_FISS=FOND),
                         OPTION='CALC_K_G'
                     )

# COURONNE 4
# ----------

GK4_P=CALC_G(    RESULTAT=CHAMDEPP,
                         THETA=_F(
                                   DIRECTION=(1., 0., 0.,),
                                   FOND_FISS=FOND),
                         OPTION='CALC_K_G'
                     )

# ------------------------------------------------
# CALCUL DE G AVEC CHARGEMENT 2 DE LA FICHE
# ------------------------------------------------
#
# COURONNE 0
# ----------

G0_T=CALC_G(    RESULTAT=CHAMDEPT,
                        THETA=_F(THETA=THETA0,SYME='OUI'),
                    )

GK0_T=CALC_G(    RESULTAT=CHAMDEPT,
                         THETA=_F(
                                   R_INF = 0.0025,
                                   R_SUP = 0.005,
                                   DIRECTION=(1., 0., 0.,),
                                   FOND_FISS=FOND),
                         OPTION='CALC_K_G'
                     )

# COURONNE 1
# ----------

G1_T=CALC_G(    RESULTAT=CHAMDEPT,
                        THETA=_F(THETA=THETA1,SYME='OUI'),
                    )

GK1_T=CALC_G(    RESULTAT=CHAMDEPT,
                         THETA=_F(
                                   R_INF = 0.005,
                                   R_SUP = 0.0075,
                                   DIRECTION=(1., 0., 0.,),
                                   FOND_FISS=FOND,),
                         OPTION='CALC_K_G'
                     )

# COURONNE 2
# ----------

G2_T=CALC_G(    RESULTAT=CHAMDEPT,
                        THETA=_F(THETA=THETA2,SYME='OUI'),
                    )

GK2_T=CALC_G(    RESULTAT=CHAMDEPT,
                         THETA=_F(
                                   R_INF = 0.0075,
                                   R_SUP = 0.01,
                                   DIRECTION=(1., 0., 0.,),
                                   FOND_FISS=FOND),
                         OPTION='CALC_K_G'
                     )

# COURONNE 3
# ----------

G3_T=CALC_G(    RESULTAT=CHAMDEPT,
                        THETA=_F(THETA=THETA3,SYME='OUI'),
                    )

GK3_T=CALC_G(    RESULTAT=CHAMDEPT,
                         THETA=_F(
                                   R_INF = 0.005,
                                   R_SUP = 0.03,
                                   DIRECTION=(1., 0., 0.,),
                                   FOND_FISS=FOND),
                         OPTION='CALC_K_G'
                     )

# COURONNE 3
# ----------

GK4_T=CALC_G(    RESULTAT=CHAMDEPT,
                         THETA=_F(
                                   DIRECTION=(1., 0., 0.,),
                                   FOND_FISS=FOND),
                         OPTION='CALC_K_G'
                     )

# ------------------------------------------------
# CALCUL DE G AVEC CHARGEMENT 3 DE LA FICHE
# ------------------------------------------------

# COURONNE 0
# ----------

G0_C=CALC_G(   RESULTAT=CHAMDEP0,
                        THETA=_F(THETA=THETA0,SYME='OUI'),
                    )

GK0_C=CALC_G(   RESULTAT=CHAMDEP0,
                         THETA=_F(
                                   R_INF = 0.0025,
                                   R_SUP = 0.005,
                                   DIRECTION=(1., 0., 0.,),
                                   FOND_FISS=FOND),
                         OPTION='CALC_K_G'
                     )

# COURONNE 1
# ----------

G1_C=CALC_G(   RESULTAT=CHAMDEP0,
                        THETA=_F(THETA=THETA1,SYME='OUI'),
                    )

GK1_C=CALC_G(   RESULTAT=CHAMDEP0,
                         THETA=_F(
                                   R_INF = 0.005,
                                   R_SUP = 0.0075,
                                   DIRECTION=(1., 0., 0.,),
                                   FOND_FISS=FOND,),
                         OPTION='CALC_K_G'
                     )

# COURONNE 2
# ----------

G2_C=CALC_G(   RESULTAT=CHAMDEP0,
                        THETA=_F(THETA=THETA2,SYME='OUI'),
                    )

GK2_C=CALC_G(   RESULTAT=CHAMDEP0,
                         THETA=_F(
                                   R_INF = 0.0075,
                                   R_SUP = 0.01,
                                   DIRECTION=(1., 0., 0.,),
                                   FOND_FISS=FOND),
                         OPTION='CALC_K_G'
                     )

# COURONNE 3
# ----------

G3_C=CALC_G(   RESULTAT=CHAMDEP0,
                        THETA=_F(THETA=THETA3,SYME='OUI'),
                    )

GK3_C=CALC_G(   RESULTAT=CHAMDEP0,
                         THETA=_F(
                                   R_INF = 0.005,
                                   R_SUP = 0.03,
                                   DIRECTION=(1., 0., 0.,),
                                   FOND_FISS=FOND),
                         OPTION='CALC_K_G'
                     )

# COURONNE 4
# ----------

GK4_C=CALC_G(   RESULTAT=CHAMDEP0,
                         THETA=_F(
                                   DIRECTION=(1., 0., 0.,),
                                   FOND_FISS=FOND),
                         OPTION='CALC_K_G'
                     )

# *******************************************************
## IMPRESSION DES RESULTATS CHARGEMENT 1 SANS CONTACT
## ----------------------------------------------------


TEST_TABLE(PRECISION=0.02,
           VALE_CALC=1.1288372341558,
           VALE_REFE=1.1482000000000001,
           REFERENCE='NON_DEFINI',
           NOM_PARA='K1',
           TABLE=GK0_P,)

TEST_TABLE(PRECISION=0.02,
           VALE_CALC=1.1288285681347,
           VALE_REFE=1.1482000000000001,
           REFERENCE='NON_DEFINI',
           NOM_PARA='K1',
           TABLE=GK1_P,)

TEST_TABLE(PRECISION=0.02,
           VALE_CALC=1.1288553923318,
           VALE_REFE=1.1482000000000001,
           REFERENCE='NON_DEFINI',
           NOM_PARA='K1',
           TABLE=GK2_P,)

TEST_TABLE(PRECISION=0.02,
           VALE_CALC=1.1288488292566,
           VALE_REFE=1.1482000000000001,
           REFERENCE='NON_DEFINI',
           NOM_PARA='K1',
           TABLE=GK3_P,)

TEST_TABLE(PRECISION=0.02,
           VALE_CALC=1.1288412588847,
           VALE_REFE=1.1482000000000001,
           REFERENCE='NON_DEFINI',
           NOM_PARA='K1',
           TABLE=GK4_P,)

## IMPRESSION DES RESULTATS CHARGEMENT 2 SANS CONTACT
## ----------------------------------------------------


TEST_TABLE(PRECISION=0.070000000000000007,
           VALE_CALC=-0.38478385893797,
           VALE_REFE=-0.41236899999999999,
           REFERENCE='NON_DEFINI',
           NOM_PARA='K1',
           TABLE=GK0_T,)

TEST_TABLE(PRECISION=0.070000000000000007,
           VALE_CALC=-0.38478080299844,
           VALE_REFE=-0.41236899999999999,
           REFERENCE='NON_DEFINI',
           NOM_PARA='K1',
           TABLE=GK1_T,)

TEST_TABLE(PRECISION=0.070000000000000007,
           VALE_CALC=-0.38478992346193,
           VALE_REFE=-0.41236899999999999,
           REFERENCE='NON_DEFINI',
           NOM_PARA='K1',
           TABLE=GK2_T,)

TEST_TABLE(PRECISION=0.070000000000000007,
           VALE_CALC=-0.38478702423591,
           VALE_REFE=-0.41236899999999999,
           REFERENCE='NON_DEFINI',
           NOM_PARA='K1',
           TABLE=GK3_T,)

TEST_TABLE(PRECISION=0.070000000000000007,
           VALE_CALC=-0.38478499692536,
           VALE_REFE=-0.41236899999999999,
           REFERENCE='NON_DEFINI',
           NOM_PARA='K1',
           TABLE=GK4_T,)

## IMPRESSION DES RESULTATS CHARGEMENT CH3 AVEC CONTACT
## ----------------------------------------------------
IMPR_TABLE(       TABLE=GK0_C,)
IMPR_TABLE(       TABLE=GK1_C,)
IMPR_TABLE(       TABLE=GK2_C,)
IMPR_TABLE(       TABLE=GK3_C,)

# ALPHA = 0.30
# ------------


TEST_TABLE(CRITERE='ABSOLU',
           VALE_CALC=-1.3074535038863E-14,
           NOM_PARA='G',
           TABLE=G0_C,
           FILTRE=_F(NOM_PARA='NUME_ORDRE',
                     VALE_I=1,),
           )

TEST_TABLE(CRITERE='ABSOLU',
           VALE_CALC=-4.2183799615808E-16,
           NOM_PARA='G',
           TABLE=G1_C,
           FILTRE=_F(NOM_PARA='NUME_ORDRE',
                     VALE_I=1,),
           )

TEST_TABLE(CRITERE='ABSOLU',
           VALE_CALC=-1.1515660675059E-15,
           NOM_PARA='G',
           TABLE=G2_C,
           FILTRE=_F(NOM_PARA='NUME_ORDRE',
                     VALE_I=1,),
           )

TEST_TABLE(CRITERE='ABSOLU',
           VALE_CALC=4.4517111786028E-13,
           NOM_PARA='G',
           TABLE=G3_C,
           FILTRE=_F(NOM_PARA='NUME_ORDRE',
                     VALE_I=1,),
           )

# ALPHA = 0.32
# ------------


TEST_TABLE(CRITERE='ABSOLU',
           VALE_CALC=-1.220077365325E-14,
           NOM_PARA='G',
           TABLE=G0_C,
           FILTRE=_F(NOM_PARA='NUME_ORDRE',
                     VALE_I=2,),
           )

TEST_TABLE(CRITERE='ABSOLU',
           VALE_CALC=-3.2236856336788E-16,
           NOM_PARA='G',
           TABLE=G1_C,
           FILTRE=_F(NOM_PARA='NUME_ORDRE',
                     VALE_I=2,),
           )

TEST_TABLE(CRITERE='ABSOLU',
           VALE_CALC=-9.6228257939833E-16,
           NOM_PARA='G',
           TABLE=G2_C,
           FILTRE=_F(NOM_PARA='NUME_ORDRE',
                     VALE_I=2,),
           )

TEST_TABLE(CRITERE='ABSOLU',
           VALE_CALC=4.2305179399926E-13,
           NOM_PARA='G',
           TABLE=G3_C,
           FILTRE=_F(NOM_PARA='NUME_ORDRE',
                     VALE_I=2,),
           )

# ALPHA = 0.33
# ------------


TEST_TABLE(PRECISION=0.044999999999999998,
           VALE_CALC=1.2534424356215E-03,
           VALE_REFE=1.2075E-3,
           REFERENCE='NON_DEFINI',
           NOM_PARA='K1',
           TABLE=GK0_C,
           FILTRE=_F(NOM_PARA='NUME_ORDRE',
                     VALE_I=3,),
           )

TEST_TABLE(PRECISION=0.044999999999999998,
           VALE_CALC=1.253518428135E-03,
           VALE_REFE=1.2075E-3,
           REFERENCE='NON_DEFINI',
           NOM_PARA='K1',
           TABLE=GK1_C,
           FILTRE=_F(NOM_PARA='NUME_ORDRE',
                     VALE_I=3,),
           )

TEST_TABLE(PRECISION=0.044999999999999998,
           VALE_CALC=1.2535721319598E-03,
           VALE_REFE=1.2075E-3,
           REFERENCE='NON_DEFINI',
           NOM_PARA='K1',
           TABLE=GK2_C,
           FILTRE=_F(NOM_PARA='NUME_ORDRE',
                     VALE_I=3,),
           )

TEST_TABLE(PRECISION=0.044999999999999998,
           VALE_CALC=1.2534977595979E-03,
           VALE_REFE=1.2075E-3,
           REFERENCE='NON_DEFINI',
           NOM_PARA='K1',
           TABLE=GK4_C,
           FILTRE=_F(NOM_PARA='NUME_ORDRE',
                     VALE_I=3,),
           )

# ALPHA = 0.335
# ------------


TEST_TABLE(PRECISION=0.029999999999999999,
           VALE_CALC=3.1047250822265E-03,
           VALE_REFE=3.0187E-3,
           REFERENCE='NON_DEFINI',
           NOM_PARA='K1',
           TABLE=GK0_C,
           FILTRE=_F(NOM_PARA='NUME_ORDRE',
                     VALE_I=4,),
           )

TEST_TABLE(PRECISION=0.029999999999999999,
           VALE_CALC=3.1047914322874E-03,
           VALE_REFE=3.0187E-3,
           REFERENCE='NON_DEFINI',
           NOM_PARA='K1',
           TABLE=GK1_C,
           FILTRE=_F(NOM_PARA='NUME_ORDRE',
                     VALE_I=4,),
           )

TEST_TABLE(PRECISION=0.029999999999999999,
           VALE_CALC=3.1048839284618E-03,
           VALE_REFE=3.0187E-3,
           REFERENCE='NON_DEFINI',
           NOM_PARA='K1',
           TABLE=GK2_C,
           FILTRE=_F(NOM_PARA='NUME_ORDRE',
                     VALE_I=4,),
           )

TEST_TABLE(PRECISION=0.10000000000000001,
           VALE_CALC=2.7989991854793E-03,
           VALE_REFE=3.0187E-3,
           
           REFERENCE='NON_DEFINI',
           NOM_PARA='K1',
           TABLE=GK3_C,
           FILTRE=_F(NOM_PARA='NUME_ORDRE',
                     VALE_I=4,),
           )

TEST_TABLE(PRECISION=0.10000000000000001,
           VALE_CALC=3.1049601846446E-03,
           VALE_REFE=3.0187E-3,
           
           REFERENCE='NON_DEFINI',
           NOM_PARA='K1',
           TABLE=GK4_C,
           FILTRE=_F(NOM_PARA='NUME_ORDRE',
                     VALE_I=4,),
           )

# ALPHA = 0.34
# ------------


TEST_TABLE(PRECISION=1.E-2,
           VALE_CALC=5.4551076123925E-03,
           VALE_REFE=5.4336000000000002E-3,
           
           REFERENCE='NON_DEFINI',
           NOM_PARA='K1',
           TABLE=GK0_C,
           FILTRE=_F(NOM_PARA='NUME_ORDRE',
                     VALE_I=5,),
           )

TEST_TABLE(PRECISION=1.E-2,
           VALE_CALC=5.4551599839072E-03,
           VALE_REFE=5.4336000000000002E-3,
           
           REFERENCE='NON_DEFINI',
           NOM_PARA='K1',
           TABLE=GK1_C,
           FILTRE=_F(NOM_PARA='NUME_ORDRE',
                     VALE_I=5,),
           )

TEST_TABLE(PRECISION=1.E-2,
           VALE_CALC=5.4553103477679E-03,
           VALE_REFE=5.4336000000000002E-3,
           
           REFERENCE='NON_DEFINI',
           NOM_PARA='K1',
           TABLE=GK2_C,
           FILTRE=_F(NOM_PARA='NUME_ORDRE',
                     VALE_I=5,),
           )

TEST_TABLE(PRECISION=1.E-2,
           VALE_CALC=5.4228221458384E-03,
           VALE_REFE=5.4336000000000002E-3,
           
           REFERENCE='NON_DEFINI',
           NOM_PARA='K1',
           TABLE=GK3_C,
           FILTRE=_F(NOM_PARA='NUME_ORDRE',
                     VALE_I=5,),
           )

TEST_TABLE(PRECISION=1.E-2,
           VALE_CALC=5.455354764156E-03,
           VALE_REFE=5.4336000000000002E-3,
           
           REFERENCE='NON_DEFINI',
           NOM_PARA='K1',
           TABLE=GK4_C,
           FILTRE=_F(NOM_PARA='NUME_ORDRE',
                     VALE_I=5,),
           )

# ALPHA = 0.345
# -------------


TEST_TABLE(PRECISION=0.040000000000000001,
           VALE_CALC=8.2683724538953E-03,
           VALE_REFE=8.5865000000000004E-3,
           
           REFERENCE='NON_DEFINI',
           NOM_PARA='K1',
           TABLE=GK0_C,
           FILTRE=_F(NOM_PARA='NUME_ORDRE',
                     VALE_I=6,),
           )

TEST_TABLE(PRECISION=0.040000000000000001,
           VALE_CALC=8.268406774115E-03,
           VALE_REFE=8.5865000000000004E-3,
           
           REFERENCE='NON_DEFINI',
           NOM_PARA='K1',
           TABLE=GK1_C,
           FILTRE=_F(NOM_PARA='NUME_ORDRE',
                     VALE_I=6,),
           )

TEST_TABLE(PRECISION=0.040000000000000001,
           VALE_CALC=8.2686251833477E-03,
           VALE_REFE=8.5865000000000004E-3,
           
           REFERENCE='NON_DEFINI',
           NOM_PARA='K1',
           TABLE=GK2_C,
           FILTRE=_F(NOM_PARA='NUME_ORDRE',
                     VALE_I=6,),
           )

TEST_TABLE(PRECISION=0.040000000000000001,
           VALE_CALC=8.2691550926508E-03,
           VALE_REFE=8.5865000000000004E-3,
           
           REFERENCE='NON_DEFINI',
           NOM_PARA='K1',
           TABLE=GK3_C,
           FILTRE=_F(NOM_PARA='NUME_ORDRE',
                     VALE_I=6,),
           )

TEST_TABLE(PRECISION=0.040000000000000001,
           VALE_CALC=8.2686326173766E-03,
           VALE_REFE=8.5865000000000004E-3,
           
           REFERENCE='NON_DEFINI',
           NOM_PARA='K1',
           TABLE=GK4_C,
           FILTRE=_F(NOM_PARA='NUME_ORDRE',
                     VALE_I=6,),
           )

# ALPHA = 0.35
# ------------


TEST_TABLE(PRECISION=0.040000000000000001,
           VALE_CALC=0.011618991202913,
           VALE_REFE=0.012075000000000001,
           
           REFERENCE='NON_DEFINI',
           NOM_PARA='K1',
           TABLE=GK0_C,
           FILTRE=_F(NOM_PARA='NUME_ORDRE',
                     VALE_I=7,),
           )

TEST_TABLE(PRECISION=0.040000000000000001,
           VALE_CALC=0.011619002545973,
           VALE_REFE=0.012075000000000001,
           
           REFERENCE='NON_DEFINI',
           NOM_PARA='K1',
           TABLE=GK1_C,
           FILTRE=_F(NOM_PARA='NUME_ORDRE',
                     VALE_I=7,),
           )

TEST_TABLE(PRECISION=0.040000000000000001,
           VALE_CALC=0.011619301339189,
           VALE_REFE=0.012075000000000001,
           
           REFERENCE='NON_DEFINI',
           NOM_PARA='K1',
           TABLE=GK2_C,
           FILTRE=_F(NOM_PARA='NUME_ORDRE',
                     VALE_I=7,),
           )

TEST_TABLE(PRECISION=0.040000000000000001,
           VALE_CALC=0.011619882557552,
           VALE_REFE=0.012075000000000001,
           
           REFERENCE='NON_DEFINI',
           NOM_PARA='K1',
           TABLE=GK3_C,
           FILTRE=_F(NOM_PARA='NUME_ORDRE',
                     VALE_I=7,),
           )

TEST_TABLE(PRECISION=0.040000000000000001,
           VALE_CALC=0.011619265516817,
           VALE_REFE=0.012075000000000001,
           
           REFERENCE='NON_DEFINI',
           NOM_PARA='K1',
           TABLE=GK4_C,
           FILTRE=_F(NOM_PARA='NUME_ORDRE',
                     VALE_I=7,),
           )

# ALPHA = 0.36
# ------------


TEST_TABLE(PRECISION=1.E-2,
           VALE_CALC=0.021597545357468,
           VALE_REFE=0.021756999999999999,
           
           REFERENCE='NON_DEFINI',
           NOM_PARA='K1',
           TABLE=GK0_C,
           FILTRE=_F(NOM_PARA='NUME_ORDRE',
                     VALE_I=8,),
           )

TEST_TABLE(PRECISION=1.E-2,
           VALE_CALC=0.021597481529354,
           VALE_REFE=0.021756999999999999,
           
           REFERENCE='NON_DEFINI',
           NOM_PARA='K1',
           TABLE=GK1_C,
           FILTRE=_F(NOM_PARA='NUME_ORDRE',
                     VALE_I=8,),
           )

TEST_TABLE(PRECISION=1.E-2,
           VALE_CALC=0.021598017776800,
           VALE_REFE=0.021756999999999999,
           
           REFERENCE='NON_DEFINI',
           NOM_PARA='K1',
           TABLE=GK2_C,
           FILTRE=_F(NOM_PARA='NUME_ORDRE',
                     VALE_I=8,),
           )

TEST_TABLE(PRECISION=1.E-2,
           VALE_CALC=0.021598554295757,
           VALE_REFE=0.021756999999999999,
           
           REFERENCE='NON_DEFINI',
           NOM_PARA='K1',
           TABLE=GK3_C,
           FILTRE=_F(NOM_PARA='NUME_ORDRE',
                     VALE_I=8,),
           )

TEST_TABLE(PRECISION=1.E-2,
           VALE_CALC=0.021597856272433,
           VALE_REFE=0.021756999999999999,
           
           REFERENCE='NON_DEFINI',
           NOM_PARA='K1',
           TABLE=GK4_C,
           FILTRE=_F(NOM_PARA='NUME_ORDRE',
                     VALE_I=8,),
           )

# ALPHA = 0.40
# ------------


TEST_TABLE(PRECISION=1.E-2,
           VALE_CALC=0.066751034723674,
           VALE_REFE=0.066477999999999995,
           
           REFERENCE='NON_DEFINI',
           NOM_PARA='K1',
           TABLE=GK0_C,
           FILTRE=_F(NOM_PARA='NUME_ORDRE',
                     VALE_I=10,),
           )

TEST_TABLE(PRECISION=1.E-2,
           VALE_CALC=0.066750624254714,
           VALE_REFE=0.066477999999999995,
           
           REFERENCE='NON_DEFINI',
           NOM_PARA='K1',
           TABLE=GK1_C,
           FILTRE=_F(NOM_PARA='NUME_ORDRE',
                     VALE_I=10,),
           )

TEST_TABLE(PRECISION=1.E-2,
           VALE_CALC=0.066752233470047,
           VALE_REFE=0.066477999999999995,
           
           REFERENCE='NON_DEFINI',
           NOM_PARA='K1',
           TABLE=GK2_C,
           FILTRE=_F(NOM_PARA='NUME_ORDRE',
                     VALE_I=10,),
           )

TEST_TABLE(PRECISION=1.E-2,
           VALE_CALC=0.066752507465991,
           VALE_REFE=0.066477999999999995,
           REFERENCE='NON_DEFINI',
           NOM_PARA='K1',
           TABLE=GK3_C,
           FILTRE=_F(NOM_PARA='NUME_ORDRE',
                     VALE_I=10,),
           )

TEST_TABLE(PRECISION=1.E-2,
           VALE_CALC=0.066751506627795,
           VALE_REFE=0.066477999999999995,
           REFERENCE='NON_DEFINI',
           NOM_PARA='K1',
           TABLE=GK4_C,
           FILTRE=_F(NOM_PARA='NUME_ORDRE',
                     VALE_I=10,),
           )

FIN();
