# MODIF  DATE 30/01/2012   AUTEUR MACOCCO K.MACOCCO 
# TITRE BIBLIO_35  FISSURE RADIALE INTERNE DANS UN CYLINDRE EPAIS SOUS PRESSION ET CHARGEMENT THERMIQUE EQUIVALENT A L'AUTOFRETTAGE
# hplp310b.para = tps_job 80 mem_job 64Mo ncpus 1 liste_test V
#            CONFIGURATION MANAGEMENT OF EDF VERSION
# ======================================================================
# COPYRIGHT (C) 1991 - 2012  EDF R&D                  WWW.CODE-ASTER.ORG
# THIS PROGRAM IS FREE SOFTWARE; YOU CAN REDISTRIBUTE IT AND/OR MODIFY  
# IT UNDER THE TERMS OF THE GNU GENERAL PUBLIC LICENSE AS PUBLISHED BY  
# THE FREE SOFTWARE FOUNDATION; EITHER VERSION 2 OF THE LICENSE, OR     
# (AT YOUR OPTION) ANY LATER VERSION.                                                    
#                                                                       
# THIS PROGRAM IS DISTRIBUTED IN THE HOPE THAT IT WILL BE USEFUL, BUT   
# WITHOUT ANY WARRANTY; WITHOUT EVEN THE IMPLIED WARRANTY OF            
# MERCHANTABILITY OR FITNESS FOR A PARTICULAR PURPOSE. SEE THE GNU      
# GENERAL PUBLIC LICENSE FOR MORE DETAILS.                              
#                                                                       
# YOU SHOULD HAVE RECEIVED A COPY OF THE GNU GENERAL PUBLIC LICENSE     
# ALONG WITH THIS PROGRAM; IF NOT, WRITE TO EDF R&D CODE_ASTER,         
#    1 AVENUE DU GENERAL DE GAULLE, 92141 CLAMART CEDEX, FRANCE.        
# ======================================================================

DEBUT( CODE=_F( NOM = 'HPLP310B',NIV_PUB_WEB='INTERNET'))

MA=LIRE_MAILLAGE(FORMAT='MED',)

MO=AFFE_MODELE(  MAILLAGE=MA,
      AFFE=_F( GROUP_MA = ('VTOT','L_EA'),PHENOMENE = 'MECANIQUE',MODELISATION = 'D_PLAN'))


MAT=DEFI_MATERIAU(ELAS=_F(  E = 1000., NU = 0.3, ALPHA = 1.E-6))


MA=DEFI_GROUP( reuse=MA,   MAILLAGE=MA,CREA_GROUP_NO=(
                     _F(
                   GROUP_MA = ( 'L_AB',  'L_DE',  'L_EA',  'LPOP8',
                                'LP9P10S',  'LPOP8S',  'VTOT', )),
                     _F(  GROUP_MA = 'TOT')),
                     CREA_GROUP_MA=_F(  NOM = 'TOT', TOUT = 'OUI')
                 )

#
E=1000.

SIGMA0=1.

NU=.3

R1=1.

ALPHA=1.E-6

RHO=2.

#
TP=0.

#
T1F = FORMULE(NOM_PARA='TPV',
              VALE='''TPV+((4.*SIGMA0*(1.-NU)*log(RHO/R1))
                                /(sqrt(3.)*E*ALPHA)) ''')

#
# ATTENTION : LA GENERATION DU MAILLAGE .MGIB A PARTIR DU FICHIER
# .DATG FAIT APPARAITRE DES NOEUDS EN 0. A SUPPRIMER, SINON LE
# LOG N'EST PAS DEFINI.
#
F_T = FORMULE(NOM_PARA=('X','Y'),
              VALE='''(T1F(TP)-((T1F(TP)-TP)*
               log((sqrt((X*X)+(Y*Y)))/R1))/(log(RHO/R1)))''')

TEMP0=CREA_CHAMP(  OPERATION='AFFE', TYPE_CHAM='NOEU_TEMP_R',
                         MAILLAGE=MA,
                         AFFE=_F( GROUP_NO = 'TOT',
                               NOM_CMP = 'TEMP',
                               VALE=0.)
                        )
TEMP_IMP=CREA_CHAMP(  OPERATION='AFFE', TYPE_CHAM='NOEU_TEMP_F',
                         MAILLAGE=MA,
                         AFFE=_F( GROUP_NO = 'TOT',
                               NOM_CMP = 'TEMP',
                               VALE_F = F_T)
                        )

TEMP_EV=CREA_RESU(    OPERATION='AFFE', TYPE_RESU='EVOL_THER',
                        NOM_CHAM='TEMP',
                        AFFE=_F(  CHAM_GD = TEMP0,
                                  INST = 0.)
                    )
TEMP_EV=CREA_RESU(    reuse=TEMP_EV,OPERATION='AFFE', TYPE_RESU='EVOL_THER',
                        NOM_CHAM='TEMP',
                        AFFE=_F(  CHAM_GD = TEMP_IMP,
                                  INST = (1.,10.,),)
                    )

CL=AFFE_CHAR_MECA(   MODELE=MO,
            DDL_IMPO=_F( GROUP_NO = ( 'L_AB',  'L_DE', ), DY = 0.),
            LIAISON_DDL=_F(  GROUP_NO = ('PA',  'PE',),
                          DDL = ('DX',  'DX',),
                          COEF_MULT = (1., 1.,),
                          COEF_IMPO = 0.),
                     )

F_IMPO = DEFI_CONSTANTE ( VALE = 0.0 )
F_MULT = DEFI_CONSTANTE ( VALE = -1.0 )

CHAR1 = DEFI_CONTACT(MODELE      = MO,
                     FORMULATION = 'LIAISON_UNIL',
                     ZONE        = _F(
                         GROUP_MA      = ('LPOP8',),
                         SANS_GROUP_NO = ('P0',),
                         NOM_CMP       = ('DY',),
                         COEF_IMPO     = F_IMPO,
                         COEF_MULT     = F_MULT,
                                   ),
                     )


CH10=AFFE_CHAR_MECA(   MODELE=MO,
              PRES_REP=_F(  GROUP_MA = 'L_EA',   PRES = -1.)
                            )

# champ de materiau sans temperature :
CHMAT=AFFE_MATERIAU(  MAILLAGE=MA,AFFE=
            _F( TOUT = 'OUI', MATER = MAT),
                         )


# champ de materiau avec temperature :
CHMAT2=AFFE_MATERIAU(  MAILLAGE=MA,AFFE=(
            _F( TOUT = 'OUI', MATER = MAT),
            ),
            AFFE_VARC=_F(NOM_VARC='TEMP',TOUT='OUI',EVOL=TEMP_EV,VALE_REF=0.),
                         )

INSTMECA=DEFI_LIST_REEL(VALE=1.)


# -------------------------------------------------------------
# CALCUL AVEC LES CHARGEMENTS 1 ET 2 DE LA FICHE (SANS CONTACT)
# -------------------------------------------------------------

CHAMDEPP=MECA_STATIQUE(   MODELE=MO,   CHAM_MATER=CHMAT,EXCIT=(
              _F( CHARGE = CH10),
              _F( CHARGE = CL)),
                          )

CHAMDEPT=MECA_STATIQUE(   MODELE=MO,   CHAM_MATER=CHMAT2,EXCIT=(
              _F( CHARGE = CL)),
              LIST_INST=INSTMECA,
                          )

# -----------------------------------------------------------
# CALCUL AVEC LE CHARGEMENT 3 DE LA FICHE POUR DIFFERENTES
# VALEUR DU PARAMETRE ALPHA (AVEC CONTACT)
# -----------------------------------------------------------
RAMPE=DEFI_FONCTION(NOM_PARA='INST',
                      VALE=(1., 0.30,
                            2., 0.32,
                            3., 0.33,
                            4., 0.335,
                            5., 0.34,
                            6., 0.345,
                            7., 0.35,
                            8., 0.36,
                            9., 0.38,
                            10., 0.40,),
                      PROL_DROITE='LINEAIRE',
                      PROL_GAUCHE='LINEAIRE',);

L_INST=DEFI_LIST_REEL(
                             DEBUT=0.,
                              INTERVALLE=_F( JUSQU_A = 10., NOMBRE = 10)
                           )

CHAMDEP0=STAT_NON_LINE(MODELE=MO,
                       CHAM_MATER=CHMAT2,
                       EXCIT=(_F( CHARGE = CH10,
                                 FONC_MULT=RAMPE),
                              _F( CHARGE = CL)),
                       CONTACT = CHAR1,       
                       COMP_ELAS=_F(RELATION = 'ELAS'),
                       NEWTON=_F(MATRICE = 'ELASTIQUE'),
                       INCREMENT=_F(LIST_INST = L_INST,),
                       SOLVEUR=_F(SYME='OUI'),
                       CONVERGENCE=_F(
                ITER_GLOB_MAXI = 20),
              )
              
FOND=DEFI_FOND_FISS(    MAILLAGE=MA,
                        FOND_FISS=_F( GROUP_NO = ('P0',)),
                        SYME='OUI',
                        LEVRE_SUP=_F(MAILLE='M1609'),
                      )

#  RT = 0.01 (RAYON DU MAILLAGE RAYONNANT)
#  NOMBRE DE COURONNES DU MAILLAGE RAYONNANT = 4
#  LONGUEUR DE LA LEVRE = 0.05


# PREMIERE COURONNE DE QUADRANGLES
# --------------------------------
THETA0=CALC_THETA(    MODELE=MO,
                        THETA_2D=_F(  GROUP_NO = ('P0',),
                                   MODULE = 1.,
                                   R_INF = 0.0025,
                                   R_SUP = 0.005),
                        DIRECTION=(1., 0., 0.,)
                     )

#
# DEUXIEME COURONNE DE QUADRANGLES
# --------------------------------
THETA1=CALC_THETA(    MODELE=MO,
                        THETA_2D=_F(  GROUP_NO = ('P0',),
                                   MODULE = 1.,
                                   R_INF = 0.005,
                                   R_SUP = 0.0075),
                        DIRECTION=(1., 0., 0.,)
                     )

# TROISIEME COURONNE DE QUADRANGLES
# --------------------------------
THETA2=CALC_THETA(    MODELE=MO,
                        THETA_2D=_F(  GROUP_NO = ('P0',),
                                   MODULE = 1.,
                                   R_INF = 0.0075,
                                   R_SUP = 0.01),
                        DIRECTION=(1., 0., 0.,)
                     )

# COURONNE QUELCONQUE
# -------------------
THETA3=CALC_THETA(    MODELE=MO,
                        THETA_2D=_F(  GROUP_NO = ('P0',),
                                   MODULE = 1.,
                                   R_INF = 0.005,
                                   R_SUP = 0.03),
                        DIRECTION=(1., 0., 0.,)
                     )

# ------------------------------------------------
# CALCUL DE G AVEC CHARGEMENT 1 DE LA FICHE
# ------------------------------------------------
#
# COURONNE 0
# ----------

G0_P=CALC_G(    RESULTAT=CHAMDEPP,
                        THETA=_F(THETA=THETA0,SYME='OUI'),
                    )

GK0_P=CALC_G(    RESULTAT=CHAMDEPP,
                         THETA=_F(
                                   R_INF = 0.0025,
                                   R_SUP = 0.005,
                                   DIRECTION=(1., 0., 0.,),
                                   FOND_FISS=FOND),
                         OPTION='CALC_K_G'
                     )

# COURONNE 1
# ----------

G1_P=CALC_G(    RESULTAT=CHAMDEPP,
                        THETA=_F(THETA=THETA1,SYME='OUI'),
                    )

GK1_P=CALC_G(    RESULTAT=CHAMDEPP,
                         THETA=_F(
                                   R_INF = 0.005,
                                   R_SUP = 0.0075,
                                   DIRECTION=(1., 0., 0.,),
                                   FOND_FISS=FOND,),
                         OPTION='CALC_K_G'
                     )

# COURONNE 2
# ----------

G2_P=CALC_G(    RESULTAT=CHAMDEPP,
                        THETA=_F(THETA=THETA2,SYME='OUI'),
                    )

GK2_P=CALC_G(    RESULTAT=CHAMDEPP,
                         THETA=_F(
                                   R_INF = 0.0075,
                                   R_SUP = 0.01,
                                   DIRECTION=(1., 0., 0.,),
                                   FOND_FISS=FOND),
                         OPTION='CALC_K_G'
                     )

# COURONNE 3
# ----------

G3_P=CALC_G(    RESULTAT=CHAMDEPP,
                        THETA=_F(THETA=THETA3,SYME='OUI'),
                    )

GK3_P=CALC_G(    RESULTAT=CHAMDEPP,
                         THETA=_F(
                                   R_INF = 0.005,
                                   R_SUP = 0.03,
                                   DIRECTION=(1., 0., 0.,),
                                   FOND_FISS=FOND),
                         OPTION='CALC_K_G'
                     )

# ------------------------------------------------
# CALCUL DE G AVEC CHARGEMENT 2 DE LA FICHE
# ------------------------------------------------
#
# COURONNE 0
# ----------

G0_T=CALC_G(    RESULTAT=CHAMDEPT,
                        THETA=_F(THETA=THETA0,SYME='OUI'),
                    )

GK0_T=CALC_G(    RESULTAT=CHAMDEPT,
                         THETA=_F(
                                   R_INF = 0.0025,
                                   R_SUP = 0.005,
                                   DIRECTION=(1., 0., 0.,),
                                   FOND_FISS=FOND),
                         OPTION='CALC_K_G'
                     )

# COURONNE 1
# ----------

G1_T=CALC_G(    RESULTAT=CHAMDEPT,
                        THETA=_F(THETA=THETA1,SYME='OUI'),
                    )

GK1_T=CALC_G(    RESULTAT=CHAMDEPT,
                         THETA=_F(
                                   R_INF = 0.005,
                                   R_SUP = 0.0075,
                                   DIRECTION=(1., 0., 0.,),
                                   FOND_FISS=FOND,),
                         OPTION='CALC_K_G'
                     )

# COURONNE 2
# ----------

G2_T=CALC_G(    RESULTAT=CHAMDEPT,
                        THETA=_F(THETA=THETA2,SYME='OUI'),
                    )

GK2_T=CALC_G(    RESULTAT=CHAMDEPT,
                         THETA=_F(
                                   R_INF = 0.0075,
                                   R_SUP = 0.01,
                                   DIRECTION=(1., 0., 0.,),
                                   FOND_FISS=FOND),
                         OPTION='CALC_K_G'
                     )

# COURONNE 3
# ----------

G3_T=CALC_G(    RESULTAT=CHAMDEPT,
                        THETA=_F(THETA=THETA3,SYME='OUI'),
                    )

GK3_T=CALC_G(    RESULTAT=CHAMDEPT,
                         THETA=_F(
                                   R_INF = 0.005,
                                   R_SUP = 0.03,
                                   DIRECTION=(1., 0., 0.,),
                                   FOND_FISS=FOND),
                         OPTION='CALC_K_G'
                     )

# ------------------------------------------------
# CALCUL DE G AVEC CHARGEMENT 3 DE LA FICHE
# ------------------------------------------------

# COURONNE 0
# ----------

G0_C=CALC_G(   RESULTAT=CHAMDEP0,
                        THETA=_F(THETA=THETA0,SYME='OUI'),
                    )

GK0_C=CALC_G(   RESULTAT=CHAMDEP0,
                         THETA=_F(
                                   R_INF = 0.0025,
                                   R_SUP = 0.005,
                                   DIRECTION=(1., 0., 0.,),
                                   FOND_FISS=FOND),
                         OPTION='CALC_K_G'
                     )

# COURONNE 1
# ----------

G1_C=CALC_G(   RESULTAT=CHAMDEP0,
                        THETA=_F(THETA=THETA1,SYME='OUI'),
                    )

GK1_C=CALC_G(   RESULTAT=CHAMDEP0,
                         THETA=_F(
                                   R_INF = 0.005,
                                   R_SUP = 0.0075,
                                   DIRECTION=(1., 0., 0.,),
                                   FOND_FISS=FOND,),
                         OPTION='CALC_K_G'
                     )

# COURONNE 2
# ----------

G2_C=CALC_G(   RESULTAT=CHAMDEP0,
                        THETA=_F(THETA=THETA2,SYME='OUI'),
                    )

GK2_C=CALC_G(   RESULTAT=CHAMDEP0,
                         THETA=_F(
                                   R_INF = 0.0075,
                                   R_SUP = 0.01,
                                   DIRECTION=(1., 0., 0.,),
                                   FOND_FISS=FOND),
                         OPTION='CALC_K_G'
                     )

# COURONNE 3
# ----------

G3_C=CALC_G(   RESULTAT=CHAMDEP0,
                        THETA=_F(THETA=THETA3,SYME='OUI'),
                    )

GK3_C=CALC_G(   RESULTAT=CHAMDEP0,
                         THETA=_F(
                                   R_INF = 0.005,
                                   R_SUP = 0.03,
                                   DIRECTION=(1., 0., 0.,),
                                   FOND_FISS=FOND),
                         OPTION='CALC_K_G'
                     )


# *******************************************************
## IMPRESSION DES RESULTATS CHARGEMENT 1 SANS CONTACT
## ----------------------------------------------------


TEST_TABLE(       TABLE=GK0_P,
                       NOM_PARA='K1',
                           VALE=1.1482,
                      PRECISION=0.02    )

TEST_TABLE(       TABLE=GK1_P,
                       NOM_PARA='K1',
                           VALE=1.1482,
                      PRECISION=0.02    )

TEST_TABLE(       TABLE=GK2_P,
                       NOM_PARA='K1',
                           VALE=1.1482,
                      PRECISION=0.02    )

TEST_TABLE(       TABLE=GK3_P,
                       NOM_PARA='K1',
                           VALE=1.1482,
                      PRECISION=0.02    )

## IMPRESSION DES RESULTATS CHARGEMENT 2 SANS CONTACT
## ----------------------------------------------------


TEST_TABLE(       TABLE=GK0_T,
                       NOM_PARA='K1',
                           VALE=-.412369,
                      PRECISION=0.07    )

TEST_TABLE(       TABLE=GK1_T,
                       NOM_PARA='K1',
                           VALE=-.412369,
                      PRECISION=0.07    )

TEST_TABLE(       TABLE=GK2_T,
                       NOM_PARA='K1',
                           VALE=-.412369,
                      PRECISION=0.07    )

TEST_TABLE(       TABLE=GK3_T,
                       NOM_PARA='K1',
                           VALE=-.412369,
                      PRECISION=0.07    )

## IMPRESSION DES RESULTATS CHARGEMENT CH3 AVEC CONTACT
## ----------------------------------------------------
IMPR_TABLE(       TABLE=GK0_C,)
IMPR_TABLE(       TABLE=GK1_C,)
IMPR_TABLE(       TABLE=GK2_C,)
IMPR_TABLE(       TABLE=GK3_C,)

# ALPHA = 0.30
# ------------


TEST_TABLE(       TABLE=G0_C,
                         FILTRE=_F(  NOM_PARA = 'NUME_ORDRE',
                                  VALE_I = 1),
                       NOM_PARA='G',
                           VALE=0.,
                      CRITERE='ABSOLU',
                      PRECISION=1.E-11   )

TEST_TABLE(       TABLE=G1_C,
                         FILTRE=_F(  NOM_PARA = 'NUME_ORDRE',
                                  VALE_I = 1),
                       NOM_PARA='G',
                           VALE=0.,
                      CRITERE='ABSOLU',
                      PRECISION=1.E-11   )

TEST_TABLE(       TABLE=G2_C,
                         FILTRE=_F(  NOM_PARA = 'NUME_ORDRE',
                                  VALE_I = 1),
                       NOM_PARA='G',
                           VALE=0.,
                      CRITERE='ABSOLU',
                      PRECISION=1.E-11   )

TEST_TABLE(       TABLE=G3_C,
                         FILTRE=_F(  NOM_PARA = 'NUME_ORDRE',
                                  VALE_I = 1),
                       NOM_PARA='G',
                           VALE=0.,
                      CRITERE='ABSOLU',
                      PRECISION=1.E-11   )

# ALPHA = 0.32
# ------------


TEST_TABLE(       TABLE=G0_C,
                         FILTRE=_F(  NOM_PARA = 'NUME_ORDRE',
                                  VALE_I = 2),
                       NOM_PARA='G',
                           VALE=0.,
                      CRITERE='ABSOLU',
                      PRECISION=1.E-11   )

TEST_TABLE(       TABLE=G1_C,
                         FILTRE=_F(  NOM_PARA = 'NUME_ORDRE',
                                  VALE_I = 2),
                       NOM_PARA='G',
                           VALE=0.,
                      CRITERE='ABSOLU',
                      PRECISION=1.E-11   )

TEST_TABLE(       TABLE=G2_C,
                         FILTRE=_F(  NOM_PARA = 'NUME_ORDRE',
                                  VALE_I = 2),
                       NOM_PARA='G',
                           VALE=0.,
                      CRITERE='ABSOLU',
                      PRECISION=1.E-11   )

TEST_TABLE(       TABLE=G3_C,
                         FILTRE=_F(  NOM_PARA = 'NUME_ORDRE',
                                  VALE_I = 2),
                       NOM_PARA='G',
                           VALE=0.,
                      CRITERE='ABSOLU',
                      PRECISION=1.E-11   )

# ALPHA = 0.33
# ------------


TEST_TABLE(       TABLE=GK0_C,
                         FILTRE=_F(  NOM_PARA = 'NUME_ORDRE',
                                  VALE_I = 3),
                       NOM_PARA='K1',
                           VALE=1.2075E-3,
                      PRECISION=0.045    )

TEST_TABLE(       TABLE=GK1_C,
                         FILTRE=_F(  NOM_PARA = 'NUME_ORDRE',
                                  VALE_I = 3),
                       NOM_PARA='K1',
                           VALE=1.2075E-3,
                      PRECISION=0.045    )

TEST_TABLE(       TABLE=GK2_C,
                         FILTRE=_F(  NOM_PARA = 'NUME_ORDRE',
                                  VALE_I = 3),
                       NOM_PARA='K1',
                           VALE=1.2075E-3,
                      PRECISION=0.045    )


                      
# ALPHA = 0.335
# ------------


TEST_TABLE(       TABLE=GK0_C,
                         FILTRE=_F(  NOM_PARA = 'NUME_ORDRE',
                                  VALE_I = 4),
                       NOM_PARA='K1',
                           VALE=3.0187E-3,
                      PRECISION=0.03    )

TEST_TABLE(       TABLE=GK1_C,
                         FILTRE=_F(  NOM_PARA = 'NUME_ORDRE',
                                  VALE_I = 4),
                       NOM_PARA='K1',
                           VALE=3.0187E-3,
                      PRECISION=0.03    )

TEST_TABLE(       TABLE=GK2_C,
                         FILTRE=_F(  NOM_PARA = 'NUME_ORDRE',
                                  VALE_I = 4),
                       NOM_PARA='K1',
                           VALE=3.0187E-3,
                      PRECISION=0.03    )

TEST_TABLE(       TABLE=GK3_C,
                         FILTRE=_F(  NOM_PARA = 'NUME_ORDRE',
                                  VALE_I = 4),
                       NOM_PARA='K1',
                           VALE=3.0187E-3,
                      PRECISION=0.10   )

# ALPHA = 0.34
# ------------


TEST_TABLE(       TABLE=GK0_C,
                         FILTRE=_F(  NOM_PARA = 'NUME_ORDRE',
                                  VALE_I = 5),
                       NOM_PARA='K1',
                           VALE=5.4336E-3,
                      PRECISION=0.01    )

TEST_TABLE(       TABLE=GK1_C,
                         FILTRE=_F(  NOM_PARA = 'NUME_ORDRE',
                                  VALE_I = 5),
                       NOM_PARA='K1',
                           VALE=5.4336E-3,
                      PRECISION=0.01    )

TEST_TABLE(       TABLE=GK2_C,
                         FILTRE=_F(  NOM_PARA = 'NUME_ORDRE',
                                  VALE_I = 5),
                       NOM_PARA='K1',
                           VALE=5.4336E-3,
                      PRECISION=0.01    )

TEST_TABLE(       TABLE=GK3_C,
                         FILTRE=_F(  NOM_PARA = 'NUME_ORDRE',
                                  VALE_I = 5),
                       NOM_PARA='K1',
                           VALE=5.4336E-3,
                      PRECISION=0.01    )

# ALPHA = 0.345
# -------------


TEST_TABLE(       TABLE=GK0_C,
                         FILTRE=_F(  NOM_PARA = 'NUME_ORDRE',
                                  VALE_I = 6),
                       NOM_PARA='K1',
                           VALE=8.5865E-3,
                      PRECISION=0.04    )

TEST_TABLE(       TABLE=GK1_C,
                         FILTRE=_F(  NOM_PARA = 'NUME_ORDRE',
                                  VALE_I = 6),
                       NOM_PARA='K1',
                           VALE=8.5865E-3,
                      PRECISION=0.04    )

TEST_TABLE(       TABLE=GK2_C,
                         FILTRE=_F(  NOM_PARA = 'NUME_ORDRE',
                                  VALE_I = 6),
                       NOM_PARA='K1',
                           VALE=8.5865E-3,
                      PRECISION=0.04    )

TEST_TABLE(       TABLE=GK3_C,
                         FILTRE=_F(  NOM_PARA = 'NUME_ORDRE',
                                  VALE_I = 6),
                       NOM_PARA='K1',
                           VALE=8.5865E-3,
                      PRECISION=0.04    )

# ALPHA = 0.35
# ------------


TEST_TABLE(       TABLE=GK0_C,
                         FILTRE=_F(  NOM_PARA = 'NUME_ORDRE',
                                  VALE_I = 7),
                       NOM_PARA='K1',
                           VALE=1.2075E-2,
                      PRECISION=0.04    )

TEST_TABLE(       TABLE=GK1_C,
                         FILTRE=_F(  NOM_PARA = 'NUME_ORDRE',
                                  VALE_I = 7),
                       NOM_PARA='K1',
                           VALE=1.2075E-2,
                      PRECISION=0.04    )

TEST_TABLE(       TABLE=GK2_C,
                         FILTRE=_F(  NOM_PARA = 'NUME_ORDRE',
                                  VALE_I = 7),
                       NOM_PARA='K1',
                           VALE=1.2075E-2,
                      PRECISION=0.04    )

TEST_TABLE(       TABLE=GK3_C,
                         FILTRE=_F(  NOM_PARA = 'NUME_ORDRE',
                                  VALE_I = 7),
                       NOM_PARA='K1',
                           VALE=1.2075E-2,
                      PRECISION=0.04    )

# ALPHA = 0.36
# ------------


TEST_TABLE(       TABLE=GK0_C,
                         FILTRE=_F(  NOM_PARA = 'NUME_ORDRE',
                                  VALE_I = 8),
                       NOM_PARA='K1',
                           VALE=2.1757E-2,
                      PRECISION=0.01    )

TEST_TABLE(       TABLE=GK1_C,
                         FILTRE=_F(  NOM_PARA = 'NUME_ORDRE',
                                  VALE_I = 8),
                       NOM_PARA='K1',
                           VALE=2.1757E-2,
                      PRECISION=0.01    )

TEST_TABLE(       TABLE=GK2_C,
                         FILTRE=_F(  NOM_PARA = 'NUME_ORDRE',
                                  VALE_I = 8),
                       NOM_PARA='K1',
                           VALE=2.1757E-2,
                      PRECISION=0.01    )

TEST_TABLE(       TABLE=GK3_C,
                         FILTRE=_F(  NOM_PARA = 'NUME_ORDRE',
                                  VALE_I = 8),
                       NOM_PARA='K1',
                           VALE=2.1757E-2,
                      PRECISION=0.01    )

# ALPHA = 0.40
# ------------


TEST_TABLE(       TABLE=GK0_C,
                         FILTRE=_F(  NOM_PARA = 'NUME_ORDRE',
                                  VALE_I = 10),
                       NOM_PARA='K1',
                           VALE=6.6478E-2,
                      PRECISION=0.01    )

TEST_TABLE(       TABLE=GK1_C,
                         FILTRE=_F(  NOM_PARA = 'NUME_ORDRE',
                                  VALE_I = 10),
                       NOM_PARA='K1',
                           VALE=6.6478E-2,
                      PRECISION=0.01    )

TEST_TABLE(       TABLE=GK2_C,
                         FILTRE=_F(  NOM_PARA = 'NUME_ORDRE',
                                  VALE_I = 10),
                       NOM_PARA='K1',
                           VALE=6.6478E-2,
                      PRECISION=0.01    )

TEST_TABLE(       TABLE=GK3_C,
                         FILTRE=_F(  NOM_PARA = 'NUME_ORDRE',
                                  VALE_I = 10),
                       NOM_PARA='K1',
                           VALE=6.6478E-2,
                      PRECISION=0.01    )

FIN();
