# TITRE HOMOGENEISATION D'UN MATERIAU HOMOGENE - 3D - HEXA20
# ======================================================================
# COPYRIGHT (C) 1991 - 2012  EDF R&D                  WWW.CODE-ASTER.ORG
# THIS PROGRAM IS FREE SOFTWARE; YOU CAN REDISTRIBUTE IT AND/OR MODIFY
# IT UNDER THE TERMS OF THE GNU GENERAL PUBLIC LICENSE AS PUBLISHED BY
# THE FREE SOFTWARE FOUNDATION; EITHER VERSION 2 OF THE LICENSE, OR
# (AT YOUR OPTION) ANY LATER VERSION.
#
# THIS PROGRAM IS DISTRIBUTED IN THE HOPE THAT IT WILL BE USEFUL, BUT
# WITHOUT ANY WARRANTY; WITHOUT EVEN THE IMPLIED WARRANTY OF
# MERCHANTABILITY OR FITNESS FOR A PARTICULAR PURPOSE. SEE THE GNU
# GENERAL PUBLIC LICENSE FOR MORE DETAILS.
#
# YOU SHOULD HAVE RECEIVED A COPY OF THE GNU GENERAL PUBLIC LICENSE
# ALONG WITH THIS PROGRAM; IF NOT, WRITE TO EDF R&D CODE_ASTER,
#    1 AVENUE DU GENERAL DE GAULLE, 92141 CLAMART CEDEX, FRANCE.
# ======================================================================
#----------------------------------------------------------------------
# MODELISATION 3D :   20 NOEUDS -- 1 MAILLE HEXA20
#           Y
#          !
#        C !---------!B                 HOMOGENEISATION THERMIQUE ET
#          !         !                  MECANIQUE
#          !         !
#          !         !
#          !---------!  -------->
#         /O          A        X
#        /
#     Z /      1.0 M
#          !---------!
#======================================================================
DEBUT(CODE=_F(NIV_PUB_WEB='INTERNET'), DEBUG=_F(SDVERI='OUI'))

#
# MATERIAU ISOTROPE
#

MAT=DEFI_MATERIAU( ELAS=_F(  E = 1.0,  NU = 0.3,  ALPHA = 0.),
                          THER=_F(  LAMBDA = 1.0,  RHO_CP = 0.0) )

#
# MATERIAU ORTHOTROPE EN FAIT ISOTROPE
#

MATO=DEFI_MATERIAU(
          ELAS_ORTH=_F(  E_L = 1.0, E_T = 1.0, E_N = 1.0,
                      NU_LT = 0.3,   NU_LN = 0.3,   NU_TN = 0.3,
                      G_LT = 0.384615385,
                      G_LN = 0.384615385,
                      G_TN = 0.384615385,
                      ALPHA_L = 0.0, ALPHA_T = 0.0, ALPHA_N = 0.0),
          THER=_F(  LAMBDA = 1.0,  RHO_CP = 0.0) )

#
# MATERIAU  VRAIMENT ORTHOTROPE
##  ROTATION (90,90,90)

MATOO=DEFI_MATERIAU(
           ELAS_ORTH=_F(  E_N = 1.0, E_T = 0.9, E_L = 0.8,
     NU_TN = 0.333333333333333333333333,   NU_LT = 0.1, NU_LN = 0.25,
                       G_TN = 0.3, G_LN = 0.4, G_LT = 0.5,
                       ALPHA_L = 0.0, ALPHA_N = 0.0, ALPHA_T = 0.0),
          THER=_F(  LAMBDA = 1.0,  RHO_CP = 0.0) )

#

MAI=LIRE_MAILLAGE( )

IMPR_RESU(FORMAT='CASTEM',RESU=_F(MAILLAGE=MAI),);

DEFI_GROUP( reuse=MAI,   MAILLAGE=MAI,
  CREA_GROUP_MA=_F(  NOM = 'TOUT', TOUT = 'OUI'))

#
DEFI_GROUP(reuse=MAI, MAILLAGE=MAI,
                CREA_GROUP_NO=_F( GROUP_MA = ('ZEGAL0', 'YEGAL0',
                                          'XEGAL1', 'YEGAL1', 'XEGAL0',)))

CHMAT=AFFE_MATERIAU(  MAILLAGE=MAI,
                          AFFE=_F(  TOUT = 'OUI',   MATER = MAT) )

CHMATO=AFFE_MATERIAU(  MAILLAGE=MAI,
                          AFFE=_F(  TOUT = 'OUI',   MATER = MATO) )

CHMATOO=AFFE_MATERIAU(  MAILLAGE=MAI,
                          AFFE=_F(  TOUT = 'OUI',   MATER = MATOO) )

MODTH=AFFE_MODELE(  MAILLAGE=MAI,
                        AFFE=_F( TOUT = 'OUI',   MODELISATION = '3D',
                              PHENOMENE = 'THERMIQUE') )

MODME=AFFE_MODELE(  MAILLAGE=MAI,
                        AFFE=_F( TOUT = 'OUI',   MODELISATION = '3D',
                              PHENOMENE = 'MECANIQUE') )

ESSAI=AFFE_CARA_ELEM(MODELE=MODME,
                MASSIF=_F( MAILLE = 'M1',
                ANGL_REP = (0.,  0.,  0., )))

ESSAI0=AFFE_CARA_ELEM(MODELE=MODME,
                MASSIF=_F( MAILLE = 'M1',
                ANGL_REP = (23.,  65.,  78., )))

ESSAI00=AFFE_CARA_ELEM(MODELE=MODME,
                MASSIF=_F( MAILLE = 'M1',
                ANGL_REP = (90.,  90.,  90., )))

#-----------------------------------------------------------------------

CHARTH=AFFE_CHAR_THER(  MODELE=MODTH,
             TEMP_IMPO=_F( GROUP_NO = 'XEGAL0', TEMP = 0.0),
             PRE_GRAD_TEMP=_F( MAILLE='M1',FLUX_X = -1.0))

CHARMM=AFFE_CHAR_MECA(  MODELE=MODME,DDL_IMPO=(
              _F( GROUP_NO = 'ZEGAL0',   DZ = 0.),
                       _F( GROUP_NO = 'YEGAL0',   DY = 0.),
                       _F( GROUP_NO = 'XEGAL1',   DX = 0.),
                       _F( GROUP_NO = 'YEGAL1',   DY = 0.),
                       _F( GROUP_NO = 'XEGAL0',   DX = 0.)),
              PRE_EPSI=_F( TOUT = 'OUI',EPXX = -1.0)      )

FCT1=DEFI_FONCTION(   NOM_PARA='Z',  PROL_DROITE='LINEAIRE',
                                     PROL_GAUCHE='LINEAIRE',
                      VALE=(0.00,      0.00,  1.00,      1.00,))

ZERO=DEFI_CONSTANTE( VALE=0.00)

CHARMF=AFFE_CHAR_MECA_F(  MODELE=MODME,
              PRE_EPSI=_F(   TOUT = 'OUI',EPXX = FCT1),DDL_IMPO=(
              _F( GROUP_NO = 'ZEGAL0',  DX = ZERO,  DY = ZERO),
                       _F( GROUP_NO = 'YEGAL0',  DY = ZERO),
                       _F( GROUP_NO = 'XEGAL1',  DX = ZERO),
                       _F( GROUP_NO = 'YEGAL1',  DY = ZERO),
                       _F( GROUP_NO = 'XEGAL0',  DX = ZERO),
                       _F( NOEUD = 'O',        DZ = ZERO))   )

TEMPGR=THER_LINEAIRE(
                MODELE=MODTH,   CHAM_MATER=CHMAT,
                EXCIT=_F( CHARGE = CHARTH) )

CALC_CHAMP(reuse=TEMPGR,RESULTAT=TEMPGR,THERMIQUE=('ETHE_ELEM'))


DEPLDM=MECA_STATIQUE(
                 MODELE=MODME,
             CHAM_MATER=CHMAT,
              CARA_ELEM=ESSAI,
                  EXCIT=_F( CHARGE = CHARMM),
                   )

CALC_CHAMP(reuse=DEPLDM,RESULTAT=DEPLDM,CONTRAINTE=('SIGM_ELNO'))



DEPLDF=MECA_STATIQUE(
                 MODELE=MODME,   CHAM_MATER=CHMAT,
              CARA_ELEM=ESSAI,
                  EXCIT=_F( CHARGE = CHARMF),
                   )

CALC_CHAMP(reuse=DEPLDF,RESULTAT=DEPLDF,CONTRAINTE=('SIGM_ELNO'))


#

TEMPGRO=THER_LINEAIRE(
                MODELE=MODTH,   CHAM_MATER=CHMATO,
                EXCIT=_F( CHARGE = CHARTH) )


DEPLDMO=MECA_STATIQUE(
                 MODELE=MODME,   CHAM_MATER=CHMATO,
              CARA_ELEM=ESSAI0,
                  EXCIT=_F( CHARGE = CHARMM),
                   )

CALC_CHAMP(reuse=DEPLDMO,RESULTAT=DEPLDMO,CONTRAINTE=('SIGM_ELNO'))



DEPLDFO=MECA_STATIQUE(
                 MODELE=MODME,   CHAM_MATER=CHMATO,
              CARA_ELEM=ESSAI0,
                  EXCIT=_F( CHARGE = CHARMF),
                   )

CALC_CHAMP(reuse=DEPLDFO,RESULTAT=DEPLDFO,CONTRAINTE=('SIGM_ELNO'))


#
#

TEMPGROO=THER_LINEAIRE(
                MODELE=MODTH,   CHAM_MATER=CHMATOO,
                EXCIT=_F( CHARGE = CHARTH) )


DEPLDMOO=MECA_STATIQUE(
                 MODELE=MODME,   CHAM_MATER=CHMATOO,
              CARA_ELEM=ESSAI00,
                  EXCIT=_F( CHARGE = CHARMM),
                   )

CALC_CHAMP(reuse=DEPLDMOO,RESULTAT=DEPLDMOO,CONTRAINTE=('SIGM_ELNO'))



DEPLDFOO=MECA_STATIQUE(
                 MODELE=MODME,   CHAM_MATER=CHMATOO,
              CARA_ELEM=ESSAI00,
                  EXCIT=_F( CHARGE = CHARMF),
                   )

CALC_CHAMP(reuse=DEPLDFOO,RESULTAT=DEPLDFOO,CONTRAINTE=('SIGM_ELNO'))


#
# ------------------------------------------------------------------
T_DZET=CREA_CHAMP(  OPERATION='EXTR', TYPE_CHAM='NOEU_TEMP_R',
        NOM_CHAM='TEMP',  RESULTAT=TEMPGR,  NUME_ORDRE=0  )

TT=POST_ELEM(   MODELE=MODTH,   CHAM_MATER=CHMAT,
               CHAM_GD=T_DZET,    INST=0.,   ENER_POT=_F(  TOUT = 'OUI') )

#
DEM_KI=CREA_CHAMP(  OPERATION='EXTR', TYPE_CHAM='NOEU_DEPL_R',
        NOM_CHAM='DEPL',  RESULTAT=DEPLDM,  NUME_ORDRE=1  )

DEF_KS=CREA_CHAMP(  OPERATION='EXTR', TYPE_CHAM='NOEU_DEPL_R',
        NOM_CHAM='DEPL',  RESULTAT=DEPLDF,  NUME_ORDRE=1  )

PM=POST_ELEM(   MODELE=MODME,   CHAM_MATER=CHMAT,
                 CHAM_GD=DEM_KI, ENER_POT=_F(  TOUT = 'OUI') )

PF=POST_ELEM(   MODELE=MODME,   CHAM_MATER=CHMAT,
                 CHAM_GD=DEF_KS, ENER_POT=_F(  TOUT = 'OUI') )

#

TEST_RESU(RESU=(_F(RESULTAT=TEMPGR,
                   NUME_ORDRE=0,
                   MAILLE='M1',
                   POINT=1,NOM_CHAM='ETHE_ELEM',
                   NOM_CMP='TOTALE',
                   VALE_CALC=-8.2050),
                ),
          )

TEST_RESU(CHAM_NO=(_F(NOEUD='N8',
                      CRITERE='RELATIF',
                      REFERENCE='ANALYTIQUE',
                      NOM_CMP='TEMP',
                      CHAM_GD=T_DZET,
                      VALE_REFE=-1.0,
                      VALE_CALC=-1.0,
                      PRECISION=1.0E-07,),
                   _F(NOEUD='N3',
                      CRITERE='RELATIF',
                      REFERENCE='ANALYTIQUE',
                      NOM_CMP='TEMP',
                      CHAM_GD=T_DZET,
                      VALE_REFE=-0.5,
                      VALE_CALC=-0.5,
                      PRECISION=1.0E-07,),
                   _F(NOEUD='N4',
                      CRITERE='RELATIF',
                      REFERENCE='ANALYTIQUE',
                      NOM_CMP='DZ',
                      CHAM_GD=DEM_KI,
                      VALE_REFE=-7.0328571430000002,
                      VALE_CALC=-7.0328571430000002,
                      PRECISION=1.0E-07,),
                   _F(NOEUD='N8',
                      CRITERE='RELATIF',
                      REFERENCE='ANALYTIQUE',
                      NOM_CMP='DZ',
                      CHAM_GD=DEM_KI,
                      VALE_REFE=-7.0328571430000002,
                      VALE_CALC=-7.0328571430000002,
                      PRECISION=1.0E-07,),
                   _F(NOEUD='N4',
                      CRITERE='RELATIF',
                      REFERENCE='ANALYTIQUE',
                      NOM_CMP='DZ',
                      CHAM_GD=DEF_KS,
                      VALE_REFE=57.704592849999997,
                      VALE_CALC=57.704592849999997,
                      PRECISION=1.0E-07,),
                   _F(NOEUD='N8',
                      CRITERE='RELATIF',
                      REFERENCE='ANALYTIQUE',
                      NOM_CMP='DZ',
                      CHAM_GD=DEF_KS,
                      VALE_REFE=57.704592849999997,
                      VALE_CALC=57.704592849999997,
                      PRECISION=1.0E-07,),
                   ),
          )

TEST_TABLE(REFERENCE='ANALYTIQUE',
           PRECISION=9.9999999999999995E-07,
           VALE_CALC=8.205000000,
           VALE_REFE=8.2050000000000001,
           NOM_PARA='TOTALE',
           TYPE_TEST='SOMM_ABS',
           TABLE=TT,)

TEST_TABLE(REFERENCE='ANALYTIQUE',
           PRECISION=9.9999999999999995E-07,
           VALE_CALC=2.028708791,
           VALE_REFE=2.0287088,
           NOM_PARA='TOTALE',
           TYPE_TEST='SOMM_ABS',
           TABLE=PM,)

TEST_TABLE(REFERENCE='ANALYTIQUE',
           PRECISION=9.9999999999999995E-07,
           VALE_CALC=182.102378548,
           VALE_REFE=182.10238000000001,
           NOM_PARA='TOTALE',
           TYPE_TEST='SOMM_ABS',
           TABLE=PF,)

#
# ------------------------------------------------------------------
T_DZETO=CREA_CHAMP(  OPERATION='EXTR', TYPE_CHAM='NOEU_TEMP_R',
          NOM_CHAM='TEMP', RESULTAT=TEMPGRO,  NUME_ORDRE=0 )

TTO=POST_ELEM(  MODELE=MODTH,   CHAM_MATER=CHMATO,
                  CHAM_GD=T_DZETO,   INST=0.,  ENER_POT=_F(  TOUT = 'OUI'))

#
DEM_KIO=CREA_CHAMP(  OPERATION='EXTR', TYPE_CHAM='NOEU_DEPL_R',
          NOM_CHAM='DEPL', RESULTAT=DEPLDMO,  NUME_ORDRE=1 )

DEF_KSO=CREA_CHAMP(  OPERATION='EXTR', TYPE_CHAM='NOEU_DEPL_R',
          NOM_CHAM='DEPL', RESULTAT=DEPLDFO,  NUME_ORDRE=1 )

PMO=POST_ELEM(   MODELE=MODME,   CHAM_MATER=CHMATO,
                     CHAM_GD=DEM_KIO,
                      CARA_ELEM=ESSAI0, ENER_POT=_F(  TOUT = 'OUI') )

PFO=POST_ELEM(   MODELE=MODME,   CHAM_MATER=CHMATO,
                     CHAM_GD=DEF_KSO,
                      CARA_ELEM=ESSAI0, ENER_POT=_F(  TOUT = 'OUI') )

#

TEST_RESU(CHAM_NO=(_F(NOEUD='N8',
                      CRITERE='RELATIF',
                      REFERENCE='ANALYTIQUE',
                      NOM_CMP='TEMP',
                      CHAM_GD=T_DZETO,
                      VALE_REFE=-1.0,
                      VALE_CALC=-1.0,
                      PRECISION=1.0E-07,),
                   _F(NOEUD='N3',
                      CRITERE='RELATIF',
                      REFERENCE='ANALYTIQUE',
                      NOM_CMP='TEMP',
                      CHAM_GD=T_DZETO,
                      VALE_REFE=-0.5,
                      VALE_CALC=-0.5,
                      PRECISION=1.0E-07,),
                   _F(NOEUD='N4',
                      CRITERE='RELATIF',
                      REFERENCE='ANALYTIQUE',
                      NOM_CMP='DZ',
                      CHAM_GD=DEM_KIO,
                      VALE_REFE=-7.0328571430000002,
                      VALE_CALC=-7.0328571430000002,
                      PRECISION=1.0E-07,),
                   _F(NOEUD='N8',
                      CRITERE='RELATIF',
                      REFERENCE='ANALYTIQUE',
                      NOM_CMP='DZ',
                      CHAM_GD=DEM_KIO,
                      VALE_REFE=-7.0328571430000002,
                      VALE_CALC=-7.0328571430000002,
                      PRECISION=1.0E-07,),
                   _F(NOEUD='N4',
                      CRITERE='RELATIF',
                      REFERENCE='ANALYTIQUE',
                      NOM_CMP='DZ',
                      CHAM_GD=DEF_KSO,
                      VALE_REFE=57.704592849999997,
                      VALE_CALC=57.704592849999997,
                      PRECISION=1.0E-07,),
                   _F(NOEUD='N8',
                      CRITERE='RELATIF',
                      REFERENCE='ANALYTIQUE',
                      NOM_CMP='DZ',
                      CHAM_GD=DEF_KSO,
                      VALE_REFE=57.704592849999997,
                      VALE_CALC=57.704592849999997,
                      PRECISION=1.0E-07,),
                   ),
          )

TEST_TABLE(REFERENCE='ANALYTIQUE',
           PRECISION=9.9999999999999995E-07,
           VALE_CALC=8.205000000,
           VALE_REFE=8.2050000000000001,
           NOM_PARA='TOTALE',
           TYPE_TEST='SOMM_ABS',
           TABLE=TTO,)

TEST_TABLE(REFERENCE='ANALYTIQUE',
           PRECISION=9.9999999999999995E-07,
           VALE_CALC=2.028708790,
           VALE_REFE=2.0287088,
           NOM_PARA='TOTALE',
           TYPE_TEST='SOMM_ABS',
           TABLE=PMO,)

TEST_TABLE(REFERENCE='ANALYTIQUE',
           PRECISION=9.9999999999999995E-07,
           VALE_CALC=182.102378411,
           VALE_REFE=182.10238000000001,
           NOM_PARA='TOTALE',
           TYPE_TEST='SOMM_ABS',
           TABLE=PFO,)

#
# ------------------------------------------------------------------
T_DZETOO=CREA_CHAMP(  OPERATION='EXTR', TYPE_CHAM='NOEU_TEMP_R',
          NOM_CHAM='TEMP', RESULTAT=TEMPGROO,  NUME_ORDRE=0 )

TTOO=POST_ELEM(  MODELE=MODTH,   CHAM_MATER=CHMATOO,
                 CHAM_GD=T_DZETOO,   INST=0.,
                     CARA_ELEM=ESSAI00, ENER_POT=_F(  TOUT = 'OUI') )

#
DEM_KIOO=CREA_CHAMP(  OPERATION='EXTR', TYPE_CHAM='NOEU_DEPL_R',
          NOM_CHAM='DEPL', RESULTAT=DEPLDMOO,  NUME_ORDRE=1 )

DEF_KSOO=CREA_CHAMP(  OPERATION='EXTR', TYPE_CHAM='NOEU_DEPL_R',
          NOM_CHAM='DEPL', RESULTAT=DEPLDFOO,  NUME_ORDRE=1 )

PMOO=POST_ELEM(   MODELE=MODME,   CHAM_MATER=CHMATOO,
                     CHAM_GD=DEM_KIOO,
                      CARA_ELEM=ESSAI00, ENER_POT=_F(  TOUT = 'OUI') )

PFOO=POST_ELEM(   MODELE=MODME,   CHAM_MATER=CHMATOO,
                     CHAM_GD=DEF_KSOO,
                      CARA_ELEM=ESSAI00, ENER_POT=_F(  TOUT = 'OUI') )

#

TEST_RESU(CHAM_NO=(_F(NOEUD='N8',
                      CRITERE='RELATIF',
                      REFERENCE='ANALYTIQUE',
                      NOM_CMP='TEMP',
                      CHAM_GD=T_DZETOO,
                      VALE_REFE=-1.0,
                      VALE_CALC=-1.0,),
                   _F(NOEUD='N3',
                      CRITERE='RELATIF',
                      REFERENCE='ANALYTIQUE',
                      NOM_CMP='TEMP',
                      CHAM_GD=T_DZETOO,
                      VALE_REFE=-0.5,
                      VALE_CALC=-0.5,),
                   _F(NOEUD='N4',
                      CRITERE='RELATIF',
                      REFERENCE='ANALYTIQUE',
                      NOM_CMP='DZ',
                      PRECISION=9.9999999999999995E-08,
                      CHAM_GD=DEM_KIOO,
                      VALE_CALC=-6.630448944,
                      VALE_REFE=-6.6304489436600003,),
                   _F(NOEUD='N8',
                      CRITERE='RELATIF',
                      REFERENCE='ANALYTIQUE',
                      NOM_CMP='DZ',
                      PRECISION=9.9999999999999995E-08,
                      CHAM_GD=DEM_KIOO,
                      VALE_CALC=-6.630448944,
                      VALE_REFE=-6.6304489436600003,),
                   _F(NOEUD='N4',
                      CRITERE='RELATIF',
                      REFERENCE='ANALYTIQUE',
                      NOM_CMP='DZ',
                      PRECISION=9.9999999999999995E-08,
                      CHAM_GD=DEF_KSOO,
                      VALE_CALC=54.402833583,
                      VALE_REFE=54.402833582699998,),
                   _F(NOEUD='N8',
                      CRITERE='RELATIF',
                      REFERENCE='ANALYTIQUE',
                      NOM_CMP='DZ',
                      PRECISION=9.9999999999999995E-08,
                      CHAM_GD=DEF_KSOO,
                      VALE_CALC=54.402833583,
                      VALE_REFE=54.402833582699998,),
                   ),
          )

TEST_TABLE(REFERENCE='ANALYTIQUE',
           PRECISION=9.9999999999999995E-07,
           VALE_CALC=8.205000000,
           VALE_REFE=8.2050000000000001,
           NOM_PARA='TOTALE',
           TYPE_TEST='SOMM_ABS',
           TABLE=TTOO,)

FIN( )
