# MODIF  DATE 28/05/2004   AUTEUR LEBOUVIE F.LEBOUVIER 
# TITRE PLAQUE  MINCE ENCASTREE SOUMISE A UN GRADIENT THERMIQUE
#            CONFIGURATION MANAGEMENT OF EDF VERSION
# ======================================================================
# COPYRIGHT (C) 1991 - 2001  EDF R&D                  WWW.CODE-ASTER.ORG
# THIS PROGRAM IS FREE SOFTWARE; YOU CAN REDISTRIBUTE IT AND/OR MODIFY
# IT UNDER THE TERMS OF THE GNU GENERAL PUBLIC LICENSE AS PUBLISHED BY
# THE FREE SOFTWARE FOUNDATION; EITHER VERSION 2 OF THE LICENSE, OR   
# (AT YOUR OPTION) ANY LATER VERSION.                                 
#
# THIS PROGRAM IS DISTRIBUTED IN THE HOPE THAT IT WILL BE USEFUL, BUT 
# WITHOUT ANY WARRANTY; WITHOUT EVEN THE IMPLIED WARRANTY OF          
# MERCHANTABILITY OR FITNESS FOR A PARTICULAR PURPOSE. SEE THE GNU    
# GENERAL PUBLIC LICENSE FOR MORE DETAILS.                            
#
# YOU SHOULD HAVE RECEIVED A COPY OF THE GNU GENERAL PUBLIC LICENSE   
# ALONG WITH THIS PROGRAM; IF NOT, WRITE TO EDF R&D CODE_ASTER,       
#    1 AVENUE DU GENERAL DE GAULLE, 92141 CLAMART CEDEX, FRANCE.      
# ======================================================================
# PLAQUE RECTANGULAIRE MINCE ENCASTREE SOUMISE
# A UN GRADIENT THERMIQUE DANS L'EPAISSEUR
# ET MODELISEE EN DKT- DKQ - DST - DSQ - Q4G
#====================================================================


DEBUT(CODE=_F(  NOM = 'HSLS01A',NIV_PUB_WEB='INTERNET') )

MA=LIRE_MAILLAGE( )

MA=DEFI_GROUP( reuse=MA,  MAILLAGE=MA,CREA_GROUP_NO=(
                    _F(  GROUP_MA = 'AB'),
                    _F(  GROUP_MA = 'BC'),
                    _F(  GROUP_MA = 'CD'),
                    _F(  GROUP_MA = 'DA'))
                      )

#====================================================================
MAT=DEFI_MATERIAU( ELAS=_F(  E = 2.E+11,  NU = 0.3,  ALPHA = 1.E-5) )

CHMAT=AFFE_MATERIAU(  MAILLAGE=MA, 
 AFFE=_F(  GROUP_MA = ('STRIA1','STRIA2','SQUA',), MATER = MAT, TEMP_REF = 0.))

#====================================================================
#
MOD=AFFE_MODELE(  MAILLAGE=MA,AFFE=(
                   
                        _F(  GROUP_MA = 'STRIA1',  PHENOMENE = 'MECANIQUE',
                          MODELISATION = 'DST'),
                        _F(  GROUP_MA = 'STRIA2',  PHENOMENE = 'MECANIQUE',
                          MODELISATION = 'DKT'),
                        _F(  GROUP_MA = 'SQUA11',  PHENOMENE = 'MECANIQUE',
                          MODELISATION = 'DST'),
                        _F(  GROUP_MA = 'SQUA12',  PHENOMENE = 'MECANIQUE',
                          MODELISATION = 'DKT'),
                        _F(  GROUP_MA = 'SQUA2',  PHENOMENE = 'MECANIQUE',
                          MODELISATION = 'Q4G'))
                 )

CARA=AFFE_CARA_ELEM(   MODELE=MOD,
          COQUE=_F(  GROUP_MA = ('STRIA1','STRIA2','SQUA',), EPAIS = 0.01)
                     )

TEMP=CREA_CHAMP( OPERATION='AFFE', TYPE_CHAM='NOEU_TEMP_R', MAILLAGE=MA,
              AFFE=_F(  TOUT = 'OUI',
                     NOM_CMP = ('TEMP', 'TEMP_INF', 'TEMP_SUP',),
                     VALE = ( 50.,     0.,     100.,)))

CH1=AFFE_CHAR_MECA(  MODELE=MOD,
                  TEMP_CALCULEE=TEMP,
                 DDL_IMPO=_F(  GROUP_NO = ('AB', 'BC', 'CD', 'DA',),
                DX = 0., DY = 0., DZ = 0., DRX = 0., DRY = 0., DRZ = 0.)
                    )

CH2=AFFE_CHAR_MECA(  MODELE=MOD,
                  EPSI_INIT=_F( TOUT = 'OUI',
                EXX = 0.5E-3, EYY = 0.5E-3, KXX = 0.1, KYY = 0.1),
                 DDL_IMPO=_F(  GROUP_NO = ('AB', 'BC', 'CD', 'DA',),
                DX = 0., DY = 0., DZ = 0., DRX = 0., DRY = 0., DRZ = 0.)
                    )

MESTAT=MECA_STATIQUE( 
                               MODELE=MOD,
                                EXCIT=_F( CHARGE = CH1),
                           CHAM_MATER=CHMAT,
                            CARA_ELEM=CARA,
                          )

MESTAT=CALC_NO( reuse=MESTAT,        RESULTAT=MESTAT,
                              
                            OPTION='FORC_NODA'
                   )

MESTAT=CALC_ELEM( reuse=MESTAT,         
                            RESULTAT=MESTAT,
                              
                              OPTION='SIGM_ELNO_DEPL'
                   )

TEST_RESU(RESU=( 
   # REACTIONS
           _F(  RESULTAT = MESTAT,  NOM_CHAM = 'FORC_NODA',  NUME_ORDRE = 1,   
             CRITERE = 'ABSOLU',    PRECISION = 3.E-5, REFERENCE='ANALYTIQUE',
             NOEUD = 'N104',      NOM_CMP = 'DRX',         VALE = -95.2381),
           _F(  RESULTAT = MESTAT,  NOM_CHAM = 'FORC_NODA',  NUME_ORDRE = 1,   
             CRITERE = 'ABSOLU',    PRECISION = 3.E-5, REFERENCE='ANALYTIQUE',
             NOEUD = 'N104',      NOM_CMP = 'DRY',         VALE = 71.4286),
           _F(  RESULTAT = MESTAT,  NOM_CHAM = 'FORC_NODA',  NUME_ORDRE = 1,   
             CRITERE = 'ABSOLU',    PRECISION = 3.E-5, REFERENCE='ANALYTIQUE',
             NOEUD = 'N260',      NOM_CMP = 'DRX',         VALE = -95.2381),
           _F(  RESULTAT = MESTAT,  NOM_CHAM = 'FORC_NODA',  NUME_ORDRE = 1,   
             CRITERE = 'ABSOLU',    PRECISION = 3.E-5, REFERENCE='ANALYTIQUE',
             NOEUD = 'N260',      NOM_CMP = 'DRY',         VALE = 71.4286),
           _F(  RESULTAT = MESTAT,  NOM_CHAM = 'FORC_NODA',  NUME_ORDRE = 1,   
             CRITERE = 'ABSOLU',    PRECISION = 3.E-5, REFERENCE='ANALYTIQUE',
             NOEUD = 'N270',      NOM_CMP = 'DRX',         VALE = -95.2381),
           _F(  RESULTAT = MESTAT,  NOM_CHAM = 'FORC_NODA',  NUME_ORDRE = 1,   
             CRITERE = 'ABSOLU',    PRECISION = 3.E-5, REFERENCE='ANALYTIQUE',
             NOEUD = 'N270',      NOM_CMP = 'DRY',         VALE = 71.4286),
           _F(  RESULTAT = MESTAT,  NOM_CHAM = 'FORC_NODA',  NUME_ORDRE = 1,   
             CRITERE = 'ABSOLU',    PRECISION = 3.E-5, REFERENCE='ANALYTIQUE',
             NOEUD = 'N8',        NOM_CMP = 'DRX',         VALE = -71.4286),
           _F(  RESULTAT = MESTAT,  NOM_CHAM = 'FORC_NODA',  NUME_ORDRE = 1,   
             CRITERE = 'ABSOLU',    PRECISION = 3.E-5, REFERENCE='ANALYTIQUE',
             NOEUD = 'N8',        NOM_CMP = 'DRY',         VALE = -95.2381),
           _F(  RESULTAT = MESTAT,  NOM_CHAM = 'FORC_NODA',  NUME_ORDRE = 1,   
             CRITERE = 'ABSOLU',    PRECISION = 3.E-5, REFERENCE='ANALYTIQUE',
             NOEUD = 'N21',       NOM_CMP = 'DRX',         VALE = -71.4286),
           _F(  RESULTAT = MESTAT,  NOM_CHAM = 'FORC_NODA',  NUME_ORDRE = 1,   
             CRITERE = 'ABSOLU',    PRECISION = 3.E-5, REFERENCE='ANALYTIQUE',
             NOEUD = 'N21',       NOM_CMP = 'DRY',         VALE = -95.2381),
           _F(  RESULTAT = MESTAT,  NOM_CHAM = 'FORC_NODA',  NUME_ORDRE = 1,   
             CRITERE = 'ABSOLU',    PRECISION = 3.E-5, REFERENCE='ANALYTIQUE',
             NOEUD = 'N102',      NOM_CMP = 'DRX',         VALE = 95.2381),
           _F(  RESULTAT = MESTAT,  NOM_CHAM = 'FORC_NODA',  NUME_ORDRE = 1,   
             CRITERE = 'ABSOLU',    PRECISION = 3.E-5, REFERENCE='ANALYTIQUE',
             NOEUD = 'N102',      NOM_CMP = 'DRY',         VALE = -71.4286),
           _F(  RESULTAT = MESTAT,  NOM_CHAM = 'FORC_NODA',  NUME_ORDRE = 1,   
             CRITERE = 'ABSOLU',    PRECISION = 3.E-5, REFERENCE='ANALYTIQUE',
             NOEUD = 'N466',      NOM_CMP = 'DRX',         VALE = 95.2381),
           _F(  RESULTAT = MESTAT,  NOM_CHAM = 'FORC_NODA',  NUME_ORDRE = 1,   
             CRITERE = 'ABSOLU',    PRECISION = 3.E-5, REFERENCE='ANALYTIQUE',
             NOEUD = 'N466',      NOM_CMP = 'DRY',         VALE = -71.4286),
           _F(  RESULTAT = MESTAT,  NOM_CHAM = 'FORC_NODA',  NUME_ORDRE = 1,   
             CRITERE = 'ABSOLU',    PRECISION = 3.E-5, REFERENCE='ANALYTIQUE',
             NOEUD = 'N544',      NOM_CMP = 'DRX',         VALE = 95.2381),
           _F(  RESULTAT = MESTAT,  NOM_CHAM = 'FORC_NODA',  NUME_ORDRE = 1,   
             CRITERE = 'ABSOLU',    PRECISION = 3.E-5, REFERENCE='ANALYTIQUE',
             NOEUD = 'N544',      NOM_CMP = 'DRY',         VALE = -71.4286))
          )

FIN()
#
