# MODIF  DATE 11/06/2012   AUTEUR PELLET J.PELLET 
# TITRE CYLINDRE SOUS CHARGEMENT THERMIQUE (AXIS_FOURIER)
#            CONFIGURATION MANAGEMENT OF EDF VERSION
# ======================================================================
# COPYRIGHT (C) 1991 - 2012  EDF R&D                  WWW.CODE-ASTER.ORG
# THIS PROGRAM IS FREE SOFTWARE; YOU CAN REDISTRIBUTE IT AND/OR MODIFY
# IT UNDER THE TERMS OF THE GNU GENERAL PUBLIC LICENSE AS PUBLISHED BY
# THE FREE SOFTWARE FOUNDATION; EITHER VERSION 2 OF THE LICENSE, OR
# (AT YOUR OPTION) ANY LATER VERSION.
#
# THIS PROGRAM IS DISTRIBUTED IN THE HOPE THAT IT WILL BE USEFUL, BUT
# WITHOUT ANY WARRANTY; WITHOUT EVEN THE IMPLIED WARRANTY OF
# MERCHANTABILITY OR FITNESS FOR A PARTICULAR PURPOSE. SEE THE GNU
# GENERAL PUBLIC LICENSE FOR MORE DETAILS.
#
# YOU SHOULD HAVE RECEIVED A COPY OF THE GNU GENERAL PUBLIC LICENSE
# ALONG WITH THIS PROGRAM; IF NOT, WRITE TO EDF R&D CODE_ASTER,
#    1 AVENUE DU GENERAL DE GAULLE, 92141 CLAMART CEDEX, FRANCE.
# ======================================================================
DEBUT(CODE=_F(NOM='HSLV304B', NIV_PUB_WEB='INTERNET'), DEBUG=_F(SDVERI='OUI'))

MAIL=LIRE_MAILLAGE(FORMAT='MED', )

#
# DEFINITION DES GROUPES DE NOEUDS
MAIL=DEFI_GROUP( reuse=MAIL,   MAILLAGE=MAIL,CREA_GROUP_NO=(
                       _F(  GROUP_MA = 'ENCAST'),
                       _F(  GROUP_MA = ( 'E', 'F', 'G', )))
                   )

#
# DEFINITION DU MODELE
MODELE=AFFE_MODELE(    MAILLAGE=MAIL,
                         AFFE=_F(  TOUT = 'OUI',
                       PHENOMENE = 'MECANIQUE',
                       MODELISATION = 'AXIS_FOURIER')  )

#
# DEFINITION DU MATERIAU
ACIER=DEFI_MATERIAU(    ELAS=_F(  E = 2.1E11,  NU = 0.3,
                                 ALPHA = 0.12E-4,  RHO = 7800.)
                      )

#
# ATTRIBUTION DU MATERIAU
CHMAT=AFFE_MATERIAU(    MAILLAGE=MAIL,
                          AFFE=_F(  TOUT = 'OUI',
                                 MATER = ACIER)  )

#
# DEFINITION DES CONDITIONS AUX LIMITES
CLIM=AFFE_CHAR_MECA(    MODELE=MODELE,
                           DDL_IMPO=_F(  GROUP_NO = 'ENCAST',
                                      DX = 0.,  DY = 0.,  DZ = 0.)
                        )

#
# DEFINITION DES DEFORM. INIT.
DEF_INIT=AFFE_CHAR_MECA(     MODELE=MODELE,
                               EPSI_INIT=_F(  TOUT = 'OUI',
                             EPXX = 1.2E-5,
                             EPYY = 1.2E-5,
                             EPZZ = 1.2E-5,
                             EPXY = 0.,
                             EPYZ = 0.,
                             EPXZ = 0.)
                           )

# RESOLUTION
DEF=MACRO_ELAS_MULT(        MODELE=MODELE,
                              CHAM_MATER=CHMAT,
                              CHAR_MECA_GLOBAL=CLIM,CAS_CHARGE=(
                              _F(
                                           MODE_FOURIER = 1,

                                           TYPE_MODE = 'SYME',
                                           CHAR_MECA = DEF_INIT),
                              _F(
                                           MODE_FOURIER = 2,

                                           TYPE_MODE = 'ANTI',
                                           CHAR_MECA = DEF_INIT))
                           )

#
# RECUPERATION DU CHAMP DE DEPLACEMENTS
U0_C=CREA_CHAMP(  OPERATION='EXTR', TYPE_CHAM='NOEU_DEPL_R',
NOM_CHAM='DEPL',  RESULTAT=DEF,
                    NUME_ORDRE=1
                     )

U0_S=CREA_CHAMP(  OPERATION='EXTR', TYPE_CHAM='NOEU_DEPL_R',
NOM_CHAM='DEPL',  RESULTAT=DEF,
                    NUME_ORDRE=2
                     )

#
# CALCUL DES CONTRAINTES

DEF=CALC_CHAMP(reuse=DEF,RESULTAT=DEF,CONTRAINTE=('SIGM_ELNO'))


SIG0_C=CREA_CHAMP( OPERATION='EXTR', TYPE_CHAM='ELNO_SIEF_R',
RESULTAT=DEF, NUME_ORDRE=1,
                         NOM_CHAM='SIGM_ELNO' )

SIG0_S=CREA_CHAMP( OPERATION='EXTR', TYPE_CHAM='ELNO_SIEF_R',
RESULTAT=DEF, NUME_ORDRE=2,
                         NOM_CHAM='SIGM_ELNO' )

# RECOMBINAISONS DE FOURIER EN DEPLACEMENTS ET CONTRAINTES
# POUR TETA = 45 DEG.

RESU0_C=CREA_RESU(OPERATION='AFFE',TYPE_RESU='FOURIER_ELAS',NOM_CHAM='DEPL',
           AFFE=_F( CHAM_GD=U0_C,NUME_MODE=1,TYPE_MODE='SYME'),)

RESU0_S=CREA_RESU(OPERATION='AFFE',TYPE_RESU='FOURIER_ELAS',NOM_CHAM='DEPL',
           AFFE=_F( CHAM_GD=U0_S,NUME_MODE=2,TYPE_MODE='ANTI'),)


CO_FOUR1=COMB_FOURIER(   RESULTAT=RESU0_C,
                         NOM_CHAM=( 'DEPL',),
                         ANGL=( 45., ),
                        )

CO_FOUR2=COMB_FOURIER(   RESULTAT=RESU0_S,
                         NOM_CHAM=( 'DEPL',),
                         ANGL=( 45., ),
                        )

CO_FOUR3=COMB_FOURIER(   RESULTAT=DEF,
                         NOM_CHAM=( 'DEPL', 'SIGM_ELNO',),
                         ANGL=( 45., ),
                        )

U1=CREA_CHAMP(OPERATION='EXTR',TYPE_CHAM='NOEU_DEPL_R',
             RESULTAT=CO_FOUR1,ANGL=45.,NOM_CHAM='DEPL')


U2=CREA_CHAMP(OPERATION='EXTR',TYPE_CHAM='NOEU_DEPL_R',
             RESULTAT=CO_FOUR2,ANGL=45.,NOM_CHAM='DEPL')


U=CREA_CHAMP(OPERATION='EXTR',TYPE_CHAM='NOEU_DEPL_R',
             RESULTAT=CO_FOUR3,ANGL=45.,NOM_CHAM='DEPL')


SIG=CREA_CHAMP(OPERATION='EXTR',TYPE_CHAM='ELNO_SIEF_R',
             RESULTAT=CO_FOUR3,ANGL=45.,NOM_CHAM='SIGM_ELNO',)

#
# TEST_RESU DES DEPLACEMENTS
#
TEST_RESU(CHAM_NO=(   _F(  CHAM_GD = U1,
                        NOEUD = 'N371',
                        NOM_CMP = 'DX',
                        VALE = 9.63057E-06,
                        PRECISION = 0.001),
              _F(  CHAM_GD = U1,
                        NOEUD = 'N371',
                        NOM_CMP = 'DZ',
                        VALE = 1.52412E-06,
                        PRECISION = 0.001))
          )

# U2
TEST_RESU(   CHAM_NO=_F(  CHAM_GD = U2,
                        NOEUD = 'N371',
                        NOM_CMP = 'DX',
                        VALE = 5.44426E-06,
                        PRECISION = 0.001)
          )

# U
TEST_RESU(CHAM_NO=(   _F(  CHAM_GD = U,
                        NOEUD = 'N371',
                        NOM_CMP = 'DX',
                        VALE = 1.50748E-05,
                        PRECISION = 0.001),
              _F(  CHAM_GD = U,
                        NOEUD = 'N371',
                        NOM_CMP = 'DZ',
                        VALE = 1.52412E-06,
                        PRECISION = 0.001))
          )

#
T1=POST_RELEVE_T(    ACTION=_F(
                        INTITULE = 'SIG',
                        GROUP_NO = 'ENCAST',
                        CHAM_GD = SIG,
                        NOM_CMP = ('SIXX', 'SIYY', 'SIZZ', 'SIXY',),
                        OPERATION = 'EXTRACTION')
            )

#
# E1
TEST_TABLE(        TABLE=T1,
                   FILTRE=_F(  NOM_PARA = 'NOEUD',
                            VALE_K = 'N1'),
                 NOM_PARA='SIXX',
                     VALE=5.756641058E+06    )

TEST_TABLE(        TABLE=T1,
                   FILTRE=_F(  NOM_PARA = 'NOEUD',
                            VALE_K = 'N1'),
                 NOM_PARA='SIYY',
                     VALE=1.133048198E+07    )

TEST_TABLE(        TABLE=T1,
                   FILTRE=_F(  NOM_PARA = 'NOEUD',
                            VALE_K = 'N1'),
                 NOM_PARA='SIZZ',
                     VALE=5.060118486E+06    )

TEST_TABLE(        TABLE=T1,
                   FILTRE=_F(  NOM_PARA = 'NOEUD',
                            VALE_K = 'N1'),
                 NOM_PARA='SIXY',
                     VALE=-3.753988751E+06    )

TEST_TABLE(        TABLE=T1,
                   FILTRE=_F(  NOM_PARA = 'NOEUD',
                            VALE_K = 'N172'),
                 NOM_PARA='SIXX',
                     VALE=5.2898696029E+06    )

TEST_TABLE(        TABLE=T1,
                   FILTRE=_F(  NOM_PARA = 'NOEUD',
                            VALE_K = 'N172'),
                 NOM_PARA='SIYY',
                     VALE=1.0224536790757E+07    )

TEST_TABLE(        TABLE=T1,
                   FILTRE=_F(  NOM_PARA = 'NOEUD',
                            VALE_K = 'N172'),
                 NOM_PARA='SIZZ',
                     VALE=4.61016938494E+06 )

TEST_TABLE(        TABLE=T1,
                   FILTRE=_F(  NOM_PARA = 'NOEUD',
                            VALE_K = 'N172'),
                 NOM_PARA='SIXY',
                     VALE=1.510076007E+06    )

FIN()
#
