# TITRE SECHAGE EN 2D AXISYMETRIQUE  - QUAD8
# ======================================================================
# COPYRIGHT (C) 1991 - 2012  EDF R&D                  WWW.CODE-ASTER.ORG
# THIS PROGRAM IS FREE SOFTWARE; YOU CAN REDISTRIBUTE IT AND/OR MODIFY
# IT UNDER THE TERMS OF THE GNU GENERAL PUBLIC LICENSE AS PUBLISHED BY
# THE FREE SOFTWARE FOUNDATION; EITHER VERSION 2 OF THE LICENSE, OR
# (AT YOUR OPTION) ANY LATER VERSION.
#
# THIS PROGRAM IS DISTRIBUTED IN THE HOPE THAT IT WILL BE USEFUL, BUT
# WITHOUT ANY WARRANTY; WITHOUT EVEN THE IMPLIED WARRANTY OF
# MERCHANTABILITY OR FITNESS FOR A PARTICULAR PURPOSE. SEE THE GNU
# GENERAL PUBLIC LICENSE FOR MORE DETAILS.
#
# YOU SHOULD HAVE RECEIVED A COPY OF THE GNU GENERAL PUBLIC LICENSE
# ALONG WITH THIS PROGRAM; IF NOT, WRITE TO EDF R&D CODE_ASTER,
#    1 AVENUE DU GENERAL DE GAULLE, 92141 CLAMART CEDEX, FRANCE.
# ======================================================================

DEBUT(CODE=_F(NOM='HSNA100A',NIV_PUB_WEB='INTERNET'),DEBUG=_F(SDVERI='OUI'))

MAGE=LIRE_MAILLAGE(FORMAT='MED', )
MAGE = MODI_MAILLAGE(reuse =MAGE,
                     MAILLAGE=MAGE,
                     ORIE_PEAU_2D=_F(GROUP_MA=('L_INT',),),
                        );
MAGE=DEFI_GROUP( reuse=MAGE,        MAILLAGE=MAGE,CREA_GROUP_NO=(
                        _F( GROUP_MA = 'RGENEF',
                                       NOM = 'RGENEF',        ),
                        _F( GROUP_MA = 'L_EXT',
                                       NOM = 'L_EXT',        ),
                        _F( GROUP_MA = 'L_INT',
                                       NOM = 'L_INT',        ))
                    )

BETON=DEFI_MATERIAU(    SECH_GRANGER=_F(  A = 3.8E-13,
                                          B = 0.05,
                                          QSR_K = 4700.,
                                          TEMP_0_C = 0.0,  ),
                                   THER=_F(  LAMBDA = 2.22,
                                          RHO_CP = 2.400E+6,      )
                       )

###################
# CALCUL THERMIQUE
###################


CHMAT=AFFE_MATERIAU(    MAILLAGE=MAGE,
                                AFFE=_F(  TOUT = 'OUI',
                                       MATER = BETON,        )
                         )

MOTH=AFFE_MODELE(   MAILLAGE=MAGE,
                             AFFE=_F( TOUT = 'OUI',
                                   MODELISATION = 'AXIS',
                                   PHENOMENE = 'THERMIQUE',    )
                        )

T_INT = DEFI_FONCTION(NOM_PARA='INST',
                      VALE=(0,15,
                            1.57670E+08,15,#5ans-1j
                            1.57680E+08,35,#5ans 
                            1.70294E+09,35,
                            ),);
T_EXT=DEFI_CONSTANTE(VALE=15,);
HEXT=DEFI_CONSTANTE(VALE=6,);
HINT=DEFI_CONSTANTE(VALE=4,);
CHARTH=AFFE_CHAR_THER_F(       MODELE=MOTH,
                               ECHANGE=(
                               _F(GROUP_MA='L_INT',
                                   COEF_H=HINT,
                                   TEMP_EXT=T_INT,),
                                _F(GROUP_MA='L_EXT',
                                   COEF_H=HEXT,
                                   TEMP_EXT=T_EXT,),),
                                   );
LISTTHER=DEFI_LIST_REEL(
             DEBUT=0.,INTERVALLE=(
        _F( JUSQU_A = 3.15360E+05,       NOMBRE = 1,  ), #   0.1 AN
        _F( JUSQU_A = 3.15360E+07,       NOMBRE = 1,  ), #   1   AN
        _F( JUSQU_A = 1.57670E+08,       NOMBRE = 4,  ), #   5 -1  ANS
        _F( JUSQU_A = 1.57680E+08,       NOMBRE = 2,  ), #   5 ANS
        _F( JUSQU_A = 1.89216E+08,       NOMBRE = 1,  ), #   6   ANS
        _F( JUSQU_A = 3.15360E+08,       NOMBRE = 4,  ), #  10   ANS
        _F( JUSQU_A = 4.73040E+08,       NOMBRE = 4,  ), #  15   ANS
        _F( JUSQU_A = 1.70294E+09,       NOMBRE = 1,  )) #  54   ANS
                          )

DEFLISTH =DEFI_LIST_INST(DEFI_LIST=_F(LIST_INST = LISTTHER),)

RESUTHER=THER_LINEAIRE(          MODELE=MOTH,
                                     EXCIT=_F( CHARGE = CHARTH,   ),
                                CHAM_MATER=CHMAT,
                                 ETAT_INIT=_F( VALE = 15.,   ),
                                 INCREMENT=_F( LIST_INST = DEFLISTH,),);

#####################
# CALCUL DU SECHAGE
#####################

# FLUX D HUMIDITE SUR LES PAROIS EXTERNES

BETA=3.41557E-06

C_0=105.7
C_50=57.5

C_EQ_I05=69.1

C_EQ_E05=69.1

C_EQ_I10=51.6

C_EQ_E10=69.1

FL_INT05 = FORMULE(NOM_PARA='TEMP',
                   VALE='''(0.5*BETA / ((C_0 - C_50 )**2)
  * (TEMP - (2.*C_0 - C_EQ_I05 ))*(TEMP - C_EQ_I05 ))''')

FL_EXT05 = FORMULE(NOM_PARA='TEMP',
                   VALE='''(0.5*BETA / ((C_0 - C_50 )**2)
  * (TEMP - (2.*C_0 - C_EQ_E05 ))*(TEMP - C_EQ_E05 ))''')

FL_INT10 = FORMULE(NOM_PARA='TEMP',
                   VALE='''(0.5*BETA / ((C_0 - C_50 )**2)
  * (TEMP - (2.*C_0 - C_EQ_I10 ))*(TEMP - C_EQ_I10 ))''')

FL_EXT10 = FORMULE(NOM_PARA='TEMP',
                   VALE='''(0.5*BETA / ((C_0 - C_50 )**2)
  * (TEMP - (2.*C_0 - C_EQ_E10 ))*(TEMP - C_EQ_E10 ))''')

LIST0=DEFI_LIST_REEL(  DEBUT=0.,INTERVALLE=(
                         _F(  JUSQU_A = 50.,    PAS = 10.,  ),
                         _F(  JUSQU_A = 100.,   PAS = 2.,  ),
                         _F(  JUSQU_A = 110.,   PAS = 2.,  ),
                         _F(  JUSQU_A = 200.,   PAS = 10.,  )) )

HU_INT05=CALC_FONC_INTERP(     FONCTION=FL_INT05,
                                LIST_PARA=LIST0,
                               NOM_PARA = 'TEMP',
                                 NOM_RESU='FL_INT05',
                              PROL_GAUCHE='LINEAIRE',
                               PROL_DROITE='LINEAIRE',
#                                 INTERPOL='INT',
                                 INTERPOL='LIN',
                                    TITRE='FLUX D HUMIDITE'
                            )

HU_EXT05=CALC_FONC_INTERP(     FONCTION=FL_EXT05,
                                LIST_PARA=LIST0,
                               NOM_PARA = 'TEMP',
                                 NOM_RESU='FL_EXT05',
                              PROL_GAUCHE='LINEAIRE',
                               PROL_DROITE='LINEAIRE',
#                                 INTERPOL='INT',
                                 INTERPOL='LIN',
                                    TITRE='FLUX D HUMIDITE'
                            )

HU_INT10=CALC_FONC_INTERP(     FONCTION=FL_INT10,
                                LIST_PARA=LIST0,
                                  NOM_PARA = 'TEMP',
                                 NOM_RESU='FL_INT10',
                              PROL_GAUCHE='LINEAIRE',
                               PROL_DROITE='LINEAIRE',
#                                 INTERPOL='INT',
                                INTERPOL='LIN',
                                    TITRE='FLUX D HUMIDITE'
                            )

HU_EXT10=CALC_FONC_INTERP(     FONCTION=FL_EXT10,
                                LIST_PARA=LIST0,
                                 NOM_PARA = 'TEMP',
                                 NOM_RESU='FL_EXT10',
                              PROL_GAUCHE='LINEAIRE',
                               PROL_DROITE='LINEAIRE',
#                                 INTERPOL='INT',
                                 INTERPOL='LIN',
                                    TITRE='FLUX D HUMIDITE'
                            )

CHARSE05=AFFE_CHAR_THER_F(     MODELE=MOTH,FLUX_NL=(
                                _F(  GROUP_MA = 'L_INT',
                                          FLUN = HU_INT05,       ),
                                _F(  GROUP_MA = 'L_EXT',
                                          FLUN = HU_EXT05,       ))
                            )

CHARSE10=AFFE_CHAR_THER_F(     MODELE=MOTH,FLUX_NL=(
                                _F(  GROUP_MA = 'L_INT',
                                          FLUN = HU_INT10,       ),
                                _F(  GROUP_MA = 'L_EXT',
                                          FLUN = HU_EXT10,       ))
                            )

LISTSECH=DEFI_LIST_REEL(
             DEBUT=0.,INTERVALLE=(
        _F( JUSQU_A = 3.15360E+04,       NOMBRE = 1,  ), #   0.001 A
        _F( JUSQU_A = 3.15360E+06,       NOMBRE = 10,  ), #   0.1 AN
        _F( JUSQU_A = 3.15360E+07,       NOMBRE = 9,  ), #   1   AN
        _F( JUSQU_A = 1.50000E+08,       NOMBRE = 16, ), #   4.9 ANS
        _F( JUSQU_A = 1.57680E+08,       NOMBRE = 16, ), #   5   ANS
        _F( JUSQU_A = 1.57712E+08,       NOMBRE = 1,  ), #   5.001 A
        _F( JUSQU_A = 1.60834E+08,       NOMBRE = 4,  ), #   5.1 ANS
        _F( JUSQU_A = 1.89216E+08,       NOMBRE = 9,  ), #   6   ANS
        _F( JUSQU_A = 3.15360E+08,       NOMBRE = 8,  ), #  10   ANS
        _F( JUSQU_A = 4.73040E+08,       NOMBRE = 10,  ), #  15   ANS
        _F( JUSQU_A = 1.57680E+09,       NOMBRE = 70,  ), #  50   ANS
        _F( JUSQU_A = 1.70294E+09,       NOMBRE = 8,  )) #  54   ANS
                          )

DEFLISTS =DEFI_LIST_INST(DEFI_LIST=_F(LIST_INST = LISTSECH),)

RESUSECH=THER_NON_LINE(          MODELE=MOTH,
                                     EXCIT=_F( CHARGE = CHARSE05,   ),
                                CHAM_MATER=CHMAT,
                                 ETAT_INIT=_F( VALE = 105.7,   ),
                                 INCREMENT=_F( LIST_INST = DEFLISTS,
                                               INST_FIN = 1.57680E+08,       ),
                              COMP_THER_NL=_F( RELATION = 'SECH_GRANGER',
                                            TOUT = 'OUI',            ),
                            CONVERGENCE=_F(ITER_GLOB_MAXI=20),
                            EVOL_THER_SECH=RESUTHER,
                             TITRE=( ' CAS TEST &CODE',
                                     '&RL COMMANDE &COMMANDE', )
                         )

RESUSECH=THER_NON_LINE(reuse=RESUSECH,          MODELE=MOTH,
                                     EXCIT=_F( CHARGE = CHARSE10,   ),
                                CHAM_MATER=CHMAT,
                                 ETAT_INIT=_F( EVOL_THER = RESUSECH,
                                            INST = 1.57680E+08,   ),
                                 INCREMENT=_F( LIST_INST = DEFLISTS,
                                            INST_INIT = 1.57680E+08,),
                              COMP_THER_NL=_F( RELATION = 'SECH_GRANGER',
                                            TOUT = 'OUI',            ),
                            CONVERGENCE=_F(ITER_GLOB_MAXI=20),
                            EVOL_THER_SECH=RESUTHER,
                             TITRE=( ' CAS TEST &CODE',
                                     '&RL COMMANDE &COMMANDE', )
                         )

##############################
# TESTS DES RESULTATS
##############################
LISTSEC2=DEFI_LIST_REEL(
             DEBUT=0.,INTERVALLE=(
        _F( JUSQU_A = 1.57680E+08,       NOMBRE = 1, ), #   5   ANS
        _F( JUSQU_A = 4.73040E+08,       NOMBRE = 1,  ), #  15   ANS
        _F( JUSQU_A = 1.70294E+09,       NOMBRE = 1,  )) #  54   ANS
                          )
COUP=MACR_LIGN_COUPE(RESULTAT=RESUSECH,
                         LIST_INST=LISTSEC2,
                         NOM_CHAM='TEMP',
                         LIGN_COUPE=_F(NOM_CMP=('TEMP'),
                                       TYPE='GROUP_NO',
                                       GROUP_NO='RGENEF',),);
IMPR_TABLE(TABLE=COUP,FORMAT='TABLEAU_CROISE', FORMAT_R='F3.12',NOM_PARA=('INST','COOR_X','TEMP'),);
#-----------------------------------------------------
# Tests des concentrations en eau dans l'épaisseur
#-----------------------------------------------------
C_ref = [[67.6838,54.2257,51.6],
         [80.9129,65.2,56.8903],
         [89.6936,75.4576,62.4],
         [97.8,84.9649,69.1059],
         [102.207,91.4,74.4781],
         [104,95.2,78.3688],
         [102,93.55,77.8487],
         [97.8,89.3776,75.9533],
         [90.1783,82.8,73.1186],
         [81,76.3516,70.815],
         [71.2,70.0603,68.8035],];
# valeurs de non-regression DNSXI,DNSXS,DNSYI,DNSYS          
C_reg = [[69.395181067823,51.783622484755,51.655519222563],
         [81.147292294737,64.547409835086,56.462377622713],
         [90.609706107310,74.958289607395,61.976610683787],
         [97.954965037933,83.713318572372,67.834869815810],
         [102.990254828005,90.729044913468,73.403657364081],
         [105.019114321163,94.886579325464,77.451054405526],
         [102.953924193607,93.732149884745,77.711745283719],
         [97.889816692660,89.220704011352,75.730636745293],
         [90.530016005161,83.130289049746,73.240257608390],
         [81.098664271063,76.298380859997,70.963553124055],
         [69.361291644540,69.278022053404,69.149615073210],];
x_test = [22.5,22.5382,22.5954,22.6809,22.8088,23,23.1912,23.3191,23.4046,23.4618,23.5];
inst_test = [1.57680E+08,4.73040E+08,1.70294E+09,];         
for j,t in enumerate(inst_test) :
    for i,x in enumerate(x_test) :
        TEST_TABLE(REFERENCE='SOURCE_EXTERNE',
                   PRECISION=0.05,
                   VALE_CALC= C_reg[i][j],
                   VALE_REFE=C_ref[i][j],
                   NOM_PARA='TEMP',
                   TABLE=COUP,
                   FILTRE=(_F(NOM_PARA='COOR_X',VALE=x,),
                           _F(NOM_PARA='INST',VALE=t,),),);
#
FIN()
#
