# TITRE PLAQUE EN BETON ARME CHAUFFEE
# ======================================================================
# COPYRIGHT (C) 1991 - 2012  EDF R&D                  WWW.CODE-ASTER.ORG
# THIS PROGRAM IS FREE SOFTWARE; YOU CAN REDISTRIBUTE IT AND/OR MODIFY
# IT UNDER THE TERMS OF THE GNU GENERAL PUBLIC LICENSE AS PUBLISHED BY
# THE FREE SOFTWARE FOUNDATION; EITHER VERSION 2 OF THE LICENSE, OR
# (AT YOUR OPTION) ANY LATER VERSION.
#
# THIS PROGRAM IS DISTRIBUTED IN THE HOPE THAT IT WILL BE USEFUL, BUT
# WITHOUT ANY WARRANTY; WITHOUT EVEN THE IMPLIED WARRANTY OF
# MERCHANTABILITY OR FITNESS FOR A PARTICULAR PURPOSE. SEE THE GNU
# GENERAL PUBLIC LICENSE FOR MORE DETAILS.
#
# YOU SHOULD HAVE RECEIVED A COPY OF THE GNU GENERAL PUBLIC LICENSE
# ALONG WITH THIS PROGRAM; IF NOT, WRITE TO EDF R&D CODE_ASTER,
#    1 AVENUE DU GENERAL DE GAULLE, 92141 CLAMART CEDEX, FRANCE.
# ======================================================================

DEBUT(CODE=_F(NIV_PUB_WEB='INTERNET'), DEBUG=_F(SDVERI='OUI'))

#-----------------------------------------------------------------------
# VALIDATION DU CHARGEMENT THERMIQUE SUR DES MEMBRANES (EX BETON ARME)
#-----------------------------------------------------------------------

E_A       = 2.E11
section_l = 0.01

MA=LIRE_MAILLAGE(FORMAT='MED',)

# -----------------------------------------------------
# DEFINITION DES MATERIAUX
# -----------------------------------------------------

BETON=DEFI_MATERIAU(
                    ELAS=_F(
                            E = 3.E10,
                            NU = 0.0,
                            ALPHA = 1.E-5,
                            ),
                    )

ACIER=DEFI_MATERIAU(ELAS_MEMBRANE =_F(M_LLLL = E_A*section_l,
                                     M_LLTT = 0.,
                                     M_LLLT = 0.,
                                     M_TTTT = 0.,
                                     M_TTLT = 0.,
                                     M_LTLT = 0.,
                                     ALPHA  = 1.E-5,),)

# -------------------------------------------------
# AFFECTATION DES MODELES
# -------------------------------------------------
LEMOD = AFFE_MODELE(
                MAILLAGE=MA,
                VERIF='MAILLE',
                AFFE=(
                        _F( GROUP_MA = 'GEOB',
                            PHENOMENE = 'MECANIQUE',
                            MODELISATION = '3D',),
                        _F( GROUP_MA = 'GEOA',
                            PHENOMENE = 'MECANIQUE',
                            MODELISATION = 'MEMBRANE',),
                    )
                )

# -------------------------------------------------
# AFFECTATION DES CARACTERISTIQUES
# -------------------------------------------------

LECAR=AFFE_CARA_ELEM(
                    MODELE=LEMOD,
                    MEMBRANE=_F(GROUP_MA = 'GEOA',
                                ANGL_REP=(0,0),
                                )
                 )
# -------------------------------------------------
# CONSTRUCTION DU CHAMP DE TEMPERATURE
# ------------------------------------------------

T0A=CREA_CHAMP(
                OPERATION='AFFE',
                TYPE_CHAM='NOEU_TEMP_R',
                MAILLAGE=MA,
                AFFE=_F(
                        TOUT = 'OUI',
                        NOM_CMP = ('TEMP'),
                        VALE = (20.),
                       )
            )

T1A=CREA_CHAMP(
                OPERATION='AFFE',
                TYPE_CHAM='NOEU_TEMP_R',
                MAILLAGE=MA,
                AFFE=_F(
                        GROUP_MA = 'GEOA',
                        NOM_CMP = ('TEMP'),
                        VALE = (120.),
                        ),
                )

T1B=CREA_CHAMP(
                OPERATION='AFFE',
                TYPE_CHAM='NOEU_TEMP_R',
                MAILLAGE=MA,
                AFFE=_F(
                        GROUP_MA = 'GEOB',
                        NOM_CMP = 'TEMP',
                        VALE = 20.,
                        ),
              )

TA=CREA_RESU(
            OPERATION='AFFE',
            TYPE_RESU='EVOL_THER',
            NOM_CHAM='TEMP',
            AFFE=(  _F(CHAM_GD = T0A, INST = 0.,),
                    _F(CHAM_GD = T1A, INST = 1.,),
                )
            )

TB=CREA_RESU(
            OPERATION='AFFE',
            TYPE_RESU='EVOL_THER',
            NOM_CHAM='TEMP',
            AFFE=(  _F(CHAM_GD = T1B, INST = 0.,),
                    _F(CHAM_GD = T1B, INST = 1.,),
                )
            )

# -------------------------------------------------
# AFFECTATION DES MATERIAUX
# -------------------------------------------------

MATAF=AFFE_MATERIAU(   INFO=1,
                    MAILLAGE=MA,
                    AFFE=(  _F(GROUP_MA = ('GEOA',),
                               MATER = ACIER,
                               ),
                            _F(GROUP_MA = ('GEOB'),
                               MATER = BETON,
                               ),
                        ),
                    AFFE_VARC=( _F( GROUP_MA='GEOA',
                                    EVOL=TA,
                                    NOM_VARC='TEMP',
                                    NOM_CHAM='TEMP',
                                    VALE_REF=20.0),
                                _F( GROUP_MA='GEOB',
                                    EVOL=TB,
                                    NOM_VARC='TEMP',
                                    NOM_CHAM='TEMP',
                                    VALE_REF=20.0),
                                ),
                )

# ----------------------------------------------
# CHARGEMENT
# ----------------------------------------------

CL=AFFE_CHAR_MECA(
                    MODELE=LEMOD,
                    DDL_IMPO=(  _F(GROUP_MA = 'FAA', DX = 0.),
                                _F(GROUP_MA = 'LIA', DZ = 0.),
                                _F(GROUP_NO = 'P1',  DY = 0.),
                                ),
                )

# ----------------------------------------------
# CALCUL
# ----------------------------------------------

ZLIST=DEFI_LIST_REEL(   DEBUT=0.,
                        INTERVALLE=_F( JUSQU_A = 1.0,  NOMBRE = 1, )
                    )

DEP=STAT_NON_LINE(  MODELE=LEMOD,
                    CHAM_MATER=MATAF,
                    CARA_ELEM=LECAR,
                    EXCIT=      _F( CHARGE = CL,),
                    COMPORTEMENT=  _F( RELATION = 'ELAS',),
                    INCREMENT=  _F( LIST_INST = ZLIST,),
                    NEWTON=     _F( MATRICE = 'ELASTIQUE',),
                    CONVERGENCE=_F(RESI_GLOB_MAXI = 1.E-3,
                                   ITER_GLOB_MAXI = 30,),
                                   )
DEPB=CALC_CHAMP(CONTRAINTE=('SIGM_ELNO'),RESULTAT=DEP,GROUP_MA='GEOB')


DEPB=CALC_CHAMP(reuse =DEPB,
                RESULTAT=DEPB,
                CONTRAINTE='SIGM_NOEU',);


# -------------------------------------------------
# TESTS DES RESULTATS (REFERENCE ANALYTIQUE)
# -------------------------------------------------
TEST_RESU(RESU=(_F(GROUP_NO='PMB',
                   INST=1.0,
                   REFERENCE='ANALYTIQUE',
                   RESULTAT=DEP,
                   NOM_CHAM='DEPL',
                   NOM_CMP='DX',
                   VALE_CALC= 7.19892140E-05,
                   VALE_REFE=7.1428569999999994E-05,
                   PRECISION=1.E-2,),
                _F(GROUP_NO='PMB',
                   INST=1.0,
                   REFERENCE='ANALYTIQUE',
                   RESULTAT=DEP,
                   NOM_CHAM='DEPL',
                   NOM_CMP='DZ',
                   VALE_CALC= 5.30112955E-04,
                   VALE_REFE=5.3571427500000005E-4,
                   PRECISION=0.010500000000000001,),
                _F(GROUP_NO='PMB',
                   INST=1.0,
                   REFERENCE='ANALYTIQUE',
                   RESULTAT=DEPB,
                   NOM_CHAM='SIGM_NOEU',
                   NOM_CMP='SIXX',
                   VALE_CALC= 4.31992334E+06,
                   VALE_REFE=4.2857145E6,
                   PRECISION=1.E-2,),
                ),
          )

DEPA=CALC_CHAMP(CONTRAINTE=('SIGM_ELNO'),RESULTAT=DEP,GROUP_MA='GEOA')


DEPA=CALC_CHAMP(reuse=DEPA,
                RESULTAT=DEPA,
                CONTRAINTE='SIGM_NOEU',);

TEST_RESU(RESU=_F(GROUP_NO='PMA',
                  INST=1.0,
                  REFERENCE='ANALYTIQUE',
                  RESULTAT=DEPA,
                  NOM_CHAM='SIGM_NOEU',
                  NOM_CMP='NXX',
                  VALE_CALC=-8.63879617E+05,
                  VALE_REFE=-8.5714290000000002E5,
                  PRECISION=1.E-2,),
          )

FIN()
