# TITRE : FISSURE X-FEM EN THERMO-ELASTICITE 3D 
# ======================================================================
# COPYRIGHT (C) 1991 - 2013  EDF R&D                  WWW.CODE-ASTER.ORG
# THIS PROGRAM IS FREE SOFTWARE; YOU CAN REDISTRIBUTE IT AND/OR MODIFY  
# IT UNDER THE TERMS OF THE GNU GENERAL PUBLIC LICENSE AS PUBLISHED BY  
# THE FREE SOFTWARE FOUNDATION; EITHER VERSION 2 OF THE LICENSE, OR     
# (AT YOUR OPTION) ANY LATER VERSION.                                                    
#                                                                       
# THIS PROGRAM IS DISTRIBUTED IN THE HOPE THAT IT WILL BE USEFUL, BUT   
# WITHOUT ANY WARRANTY; WITHOUT EVEN THE IMPLIED WARRANTY OF            
# MERCHANTABILITY OR FITNESS FOR A PARTICULAR PURPOSE. SEE THE GNU      
# GENERAL PUBLIC LICENSE FOR MORE DETAILS.                              
#                                                                       
# YOU SHOULD HAVE RECEIVED A COPY OF THE GNU GENERAL PUBLIC LICENSE     
# ALONG WITH THIS PROGRAM; IF NOT, WRITE TO EDF R&D CODE_ASTER,         
#    1 AVENUE DU GENERAL DE GAULLE, 92141 CLAMART CEDEX, FRANCE.        
# ======================================================================

DEBUT(CODE=_F(NOM='HSNV132C', NIV_PUB_WEB='INTERNET'),
      DEBUG=_F(SDVERI='OUI'),IGNORE_ALARM=('CALCULEL2_63'));
              
PRE_GIBI();
n = 11
MAILLAG1=LIRE_MAILLAGE(INFO=1,);

MAILLAG1=DEFI_GROUP(reuse =MAILLAG1,
                    MAILLAGE=MAILLAG1,
                    CREA_GROUP_NO=(_F(GROUP_MA='SURFINF',),
                                   _F(NOM='PTEXTR',OPTION='ENV_SPHERE',POINT=(1.,1.,0.0),RAYON=1.e-6,PRECISION=1.e-6),
                                   _F(NOM='NMIL',OPTION='PLAN',POINT=(0.,0.5,0.),VECT_NORMALE=(0.,1.,0.),PRECISION=0.5/(n-1.)),
                                   _F(NOM='NTE1',OPTION='PLAN',POINT=(0.5,0.5,0.),VECT_NORMALE=(1.,0.,0.),PRECISION=0.5/(n-1.)),
                                   _F(NOM='NTE2',OPTION='PLAN',POINT=(1.,0.,0.),VECT_NORMALE=(1.,0.,0.),PRECISION=0.5-1./n),
                                   _F(NOM='NHEAVI',INTERSEC=('NMIL','NTE2')),
                                   _F(NOM='NSINGU',INTERSEC=('NMIL','NTE1')),
                                   _F(GROUP_MA='VOL',),
                                   ),
                    INFO=2);

#--------------------------------------------------------------------
#               DEBUT DU THERMIQUE                                  #
#--------------------------------------------------------------------

MOTH=AFFE_MODELE(MAILLAGE=MAILLAG1,
                 AFFE=_F(TOUT='OUI',
                         PHENOMENE='THERMIQUE',
                         MODELISATION='3D',),);

MATH=DEFI_MATERIAU(THER=_F(LAMBDA=1.0,
                           RHO_CP=0.0,),);

CMTH=AFFE_MATERIAU(MAILLAGE=MAILLAG1,
                   AFFE=_F(TOUT='OUI',
                           MATER=MATH,),);

CHTH=AFFE_CHAR_THER(MODELE=MOTH,
                    TEMP_IMPO=(_F(GROUP_MA='SURFGAU',TEMP=20.0,),
                               _F(GROUP_MA='SURFDRO',TEMP=220.0,),),);

THLI=THER_LINEAIRE(MODELE=MOTH,
                   CHAM_MATER=CMTH,
                   EXCIT=_F(CHARGE=CHTH,),);

TEMP=CREA_CHAMP(TYPE_CHAM='NOEU_TEMP_R',
                OPERATION='EXTR',
                RESULTAT=THLI,
                NOM_CHAM='TEMP',
                INST=0.0,);

#IMPR_RESU(FORMAT='GMSH',UNITE=37,RESU=_F(CHAM_GD = TEMP,))   

#--------------------------------------------------------------------
#               FIN DU THERMIQUE                                    #
#--------------------------------------------------------------------



MODELE=AFFE_MODELE(MAILLAGE=MAILLAG1,
                   AFFE=(_F(GROUP_MA='VOL',
                            PHENOMENE='MECANIQUE',
                            MODELISATION='3D',),),);

LN=FORMULE(NOM_PARA=('X','Y'),VALE='Y-0.5');
LT=FORMULE(NOM_PARA=('X','Y'),VALE='-X+0.5');


FISS=DEFI_FISS_XFEM(MODELE=MODELE,  
                    DEFI_FISS=_F(FONC_LT=LT,FONC_LN=LN,),
                    INFO=1,
                    );

MODELEK=MODI_MODELE_XFEM(MODELE_IN=MODELE,FISSURE=FISS)


ACIER=DEFI_MATERIAU(ELAS=_F(E=205000000000.0,
                            NU=0.3,
                            RHO=7800.0,
                            ALPHA=1.282E-05,),);

CHAMPMAT=AFFE_MATERIAU(MAILLAGE=MAILLAG1,
                       MODELE=MODELEK,
                       AFFE=_F(GROUP_MA='VOL',MATER=ACIER,),
                       AFFE_VARC=_F( GROUP_MA='VOL',
                                     NOM_VARC='TEMP',
                                     CHAM_GD=TEMP,
                                     VALE_REF=20.0),
                       );


#*********************************************************************
#                          CONDITIONS AUX LIMITES                    *
#*********************************************************************

CHARBLO=AFFE_CHAR_MECA(MODELE=MODELEK,
                       DDL_IMPO=(_F(GROUP_NO='SURFINF',DX=0.0,DY=0.0,),
                                 _F(GROUP_NO='VOL',DZ=0.0),
# il est necessaire de bloquer en z les ddls enrichis correspondants aux deplacements des points des levres
# cela a une forte influence sur le deplacement resultat
                                 _F(GROUP_NO='NHEAVI',H1Z=0.0),
                                 _F(GROUP_NO='NSINGU',E1Z=0.0,E2Z=0.0,E3Z=0.0,E4Z=0.0),
                                  ),
                       )

L_INST=DEFI_LIST_REEL(DEBUT=0.0,
                      INTERVALLE=_F(JUSQU_A=1.,
                                    NOMBRE=1))

UTOT=MECA_STATIQUE(MODELE=MODELEK,
                   CHAM_MATER=CHAMPMAT,
                   EXCIT=_F(CHARGE=CHARBLO,),
                   INST=1,)

#---------------post--------------------------------------------

MA_XFEM=POST_MAIL_XFEM(MODELE        = MODELEK,
                       INFO          = 2)

MOD_VISU=AFFE_MODELE(MAILLAGE=MA_XFEM,
                     AFFE=_F(TOUT='OUI',
                              PHENOMENE='MECANIQUE',
                              MODELISATION='3D',),) 

RES_XFEM=POST_CHAM_XFEM(MODELE_VISU   = MOD_VISU,
                        RESULTAT      = UTOT,
                        INFO          = 2)


IMPR_RESU(FORMAT='GMSH',UNITE=37,RESU=_F(RESULTAT=RES_XFEM,NOM_CHAM='DEPL'))   

TABDEP= POST_RELEVE_T ( ACTION =_F(INTITULE  = 'DEPLACEMENT',
                                   GROUP_NO  = 'PTEXTR',
                                   RESULTAT   = UTOT,
                                   NOM_CHAM   = 'DEPL',
                                   NOM_CMP   = ( 'DX','DY','DZ'),
                                   OPERATION = 'EXTRACTION',),);
                        
IMPR_TABLE(TABLE=TABDEP)

# REFERENCE : MODELISATION A (ELEMENTS CLASSIQUES)
TEST_TABLE(CRITERE='RELATIF',
           REFERENCE='AUTRE_ASTER',
           PRECISION=0.02,
           VALE_CALC=-8.87603830E-04,
           VALE_REFE=-8.7404262899510004E-4,
           NOM_PARA='DX',
           TABLE=TABDEP,
           FILTRE=_F(NOM_PARA='INST',
                     VALE=1.0,),
           )

TEST_TABLE(CRITERE='RELATIF',
           REFERENCE='AUTRE_ASTER',
           PRECISION=1.E-2,
           VALE_CALC= 3.82801698E-03,
           VALE_REFE=3.8260958514619E-3,
           NOM_PARA='DY',
           TABLE=TABDEP,
           FILTRE=_F(NOM_PARA='INST',
                     VALE=1.0,),
           )

FIN();
