# ======================================================================
# COPYRIGHT (C) 1991 - 2016  EDF R&D                  WWW.CODE-ASTER.ORG
# THIS PROGRAM IS FREE SOFTWARE; YOU CAN REDISTRIBUTE IT AND/OR MODIFY
# IT UNDER THE TERMS OF THE GNU GENERAL PUBLIC LICENSE AS PUBLISHED BY
# THE FREE SOFTWARE FOUNDATION; EITHER VERSION 2 OF THE LICENSE, OR
# (AT YOUR OPTION) ANY LATER VERSION.
#
# THIS PROGRAM IS DISTRIBUTED IN THE HOPE THAT IT WILL BE USEFUL, BUT
# WITHOUT ANY WARRANTY; WITHOUT EVEN THE IMPLIED WARRANTY OF
# MERCHANTABILITY OR FITNESS FOR A PARTICULAR PURPOSE. SEE THE GNU
# GENERAL PUBLIC LICENSE FOR MORE DETAILS.
#
# YOU SHOULD HAVE RECEIVED A COPY OF THE GNU GENERAL PUBLIC LICENSE
# ALONG WITH THIS PROGRAM; IF NOT, WRITE TO EDF R&D CODE_ASTER,
#    1 AVENUE DU GENERAL DE GAULLE, 92141 CLAMART CEDEX, FRANCE.
# ======================================================================
#
#--------------------------------------------------------------------------------
# TEST V7.22.140
# ESSAI DE DILATOMETRIE (CHARGEMENT THERMIQUE CYCLIQUE) SUR UN TUBE - ACIER 316L
# LOI ELASTOPLASTIQUE DE VON MISES A ECROUISSAGE ISOTROPE LINEAIRE
# CALCUL 2D AXI-SYMETRIQUE
# MAILLAGE QUAD4
#--------------------------------------------------------------------------------

DEBUT(CODE=_F(NIV_PUB_WEB='INTERNET',),DEBUG=_F(SDVERI='OUI'))


MAIL=LIRE_MAILLAGE();

#
# Chargement thermique
#

TEMP1 = DEFI_FONCTION (NOM_PARA    = 'INST',
                       VALE        = (
                                    # cycle 1
                                    0.,    20.,
                                    100, 1125.,
                                    200,   21.,
                                    # cycle 2
                                    300,  932.,
                                    400,   22.,
                                    # cycle 3
                                    500,  685.,
                                    600,   22.,
                                    # cycle 4
                                    700,  473.,
                                    800,   21.,
                                    ),
                       PROL_GAUCHE = 'CONSTANT',
                       PROL_DROITE = 'CONSTANT',);

LLPAS = DEFI_LIST_REEL (DEBUT      = 0.0,
                        INTERVALLE = _F(JUSQU_A=800., NOMBRE= 800,),
                       )
L_INST1 = DEFI_LIST_INST(DEFI_LIST = _F(LIST_INST = LLPAS))
#
CHTH = CREA_CHAMP(OPERATION = 'AFFE', 
				  TYPE_CHAM = 'NOEU_TEMP_F',
				  MAILLAGE  = MAIL,
				  AFFE      = _F( TOUT = 'OUI',
								 NOM_CMP = 'TEMP',
								 VALE_F = TEMP1)
				  )
#
THER1 = CREA_RESU(OPERATION = 'AFFE', 
				  TYPE_RESU = 'EVOL_THER',
				  NOM_CHAM  = 'TEMP',
				  AFFE      = _F( CHAM_GD = CHTH, LIST_INST = LLPAS)
				 )
#
# Calcul Mecanique
#

MOMECA1 = AFFE_MODELE (MAILLAGE = MAIL,
                       AFFE     = _F(TOUT         = 'OUI',
                                     PHENOMENE    = 'MECANIQUE',
                                     MODELISATION = 'AXIS',
                                    ),
                      )


CHMECA1 = AFFE_CHAR_MECA (MODELE   = MOMECA1,
                          DDL_IMPO = (_F( NOEUD = ('NO1','NO2','NO3','NO4',),DY = 0.,)
                                     )
                         )

E = DEFI_FONCTION ( NOM_PARA = 'TEMP',
                    VALE     = (  20., 195600.E+6,
                                 100., 191200.E+6,
                                 200., 185700.E+6,
                                 300., 179600.E+6,
                                 400., 172600.E+6,
                                 500., 164500.E+6,
                                 600., 155000.E+6,
                                 700., 144100.E+6,
                                 800., 131400.E+6,
                                 900., 116800.E+6,
                                1000., 100000.E+6,
                                1100.,  80000.E+6,
                                1200.,  57000.E+6,
                                1300.,  30000.E+6,
                                1400.,   2000.E+6,
                                1500.,   1000.E+6, 
                               ),
                    PROL_DROITE = 'CONSTANT',
                    PROL_GAUCHE = 'LINEAIRE',
                  ) 


NU = DEFI_CONSTANTE ( VALE = 0.3, )


SIGM  = DEFI_FONCTION ( NOM_PARA = 'TEMP',
                        VALE     = (  20., 286.E+6,
                                     200., 212.E+6,
                                     400., 180.E+6,
                                     600., 137.E+6,
                                     800., 139.E+6,
                                    1000.,  70.E+6,
                                    1100.,  35.E+6,
                                    1200.,  16.E+6,
                                    1300.,  10.E+6,
                                    1500., 10.E+6,
                                   ),
                       PROL_DROITE = 'CONSTANT',
                       PROL_GAUCHE = 'CONSTANT',
                      ) 

DSDE = DEFI_FONCTION ( NOM_PARA = 'TEMP',
                       VALE     = (   20., 2.400E+9,
                                     700., 2.400E+9,
                                     800., 2.350E+9,
                                     900., 1.500E+9,
                                    1000., 0.800E+9,
                                    1100., 0.725E+9,
                                    1200., 0.150E+9,
                                    1300., 0.010E+9,
                                   ),
                       PROL_DROITE = 'CONSTANT',
                       PROL_GAUCHE = 'LINEAIRE',
                     ) 

ALPHA = DEFI_FONCTION (NOM_PARA = 'TEMP',
                       VALE     = (  20., 14.56E-6,
                                    100., 15.39E-6,
                                    200., 16.21E-6,
                                    300., 16.86E-6,
                                    400., 17.37E-6,
                                    500., 17.78E-6,
                                    600., 18.12E-6,
                                    700., 18.43E-6,
                                    800., 18.72E-6,
                                    900., 18.99E-6,
                                   1000., 19.27E-6,
                                   1100., 19.53E-6,
                                   1200., 19.79E-6,
                                   1300., 20.02E-6,
                                   1600., 20.02E-6,
                                  ),
                       PROL_DROITE = 'CONSTANT',
                       PROL_GAUCHE = 'CONSTANT',
                      ) ;


# PARAMETRES DE RESTAURATION D'ECROUISSAGE
#------------------------------------------------
Tdebut =  600.                # Temperature de debut de restauration
Tfin   = 1000.                # Temperature de restauration complete

REST1 = DEFI_FONCTION (NOM_PARA    = 'TEMP',
                       VALE        = (Tdebut,1.,Tfin,0.),
                       PROL_DROITE = 'CONSTANT',
                       PROL_GAUCHE = 'CONSTANT',
                      )


ACIERME0 = DEFI_MATERIAU (ELAS_FO      = _F(E              = E,
                                            NU             = NU, 
                                            ALPHA          = ALPHA,
                                            TEMP_DEF_ALPHA = 20.00,
                                           ),
                          ECRO_LINE_FO = _F(D_SIGM_EPSI = DSDE,
                                            SY          = SIGM,
                                           ),
                          REST_ECRO    = _F(FONC_MULT = REST1), 
                         ) 

CHMATM0 = AFFE_MATERIAU (MAILLAGE  = MAIL,
                         AFFE      = _F(TOUT  = 'OUI',
                                        MATER = ACIERME0,
                                       ),
                         AFFE_VARC = _F(TOUT     = 'OUI',
                                        EVOL     = THER1,
                                        NOM_VARC = 'TEMP',
                                        NOM_CHAM = 'TEMP',
                                        VALE_REF = 20.,
                                       ),
                        )  

U1 =  STAT_NON_LINE (MODELE       = MOMECA1,
                     CHAM_MATER   = CHMATM0,
                     EXCIT        = _F(CHARGE = CHMECA1,),
                     COMPORTEMENT = _F(RELATION    ='VMIS_ISOT_LINE',
                                       DEFORMATION = 'PETIT_REAC',
                                       TOUT        = 'OUI',
                                       POST_INCR   = 'REST_ECRO',
                                      ),
                     INCREMENT    = _F(LIST_INST     = L_INST1,
                                       NUME_INST_FIN = 800
                                      ),
                     NEWTON       = _F(REAC_INCR=1,
                                      MATRICE='TANGENTE',
                                      REAC_ITER=5,
                                     ),
                     CONVERGENCE  = _F(RESI_GLOB_RELA = 5.0E-05,
                                      ITER_GLOB_MAXI = 50,
                                      ARRET          = 'OUI',
                                      ),
                     SOLVEUR=_F(RENUM='METIS',),
                     );

#
# Post traitement
#

U1 = CALC_CHAMP  (reuse        = U1,
                  MODELE       = MOMECA1,
                  CHAM_MATER   = CHMATM0,
                  CONTRAINTE   = ('SIEF_NOEU'),
                  VARI_INTERNE = ('VARI_NOEU'),
                  RESULTAT     = U1
                 )
#
TEST_RESU (RESU = (
                _F(INST           = 89.0,
                   RESULTAT       = U1,
                   NOM_CHAM       = 'VARI_NOEU',
                   NOEUD          = 'NO1',
                   NOM_CMP        = 'V1',
                   VALE_CALC      = 0.0,
                   VALE_REFE      = 0.0,
                   REFERENCE      = 'SOURCE_EXTERNE',
                   ORDRE_GRANDEUR = 1e-6,
                   CRITERE        = 'ABSOLU',
                  ),
                _F(INST      = 200.0,
                   RESULTAT  = U1,
                   NOM_CHAM  = 'SIEF_NOEU',
                   NOEUD     = 'NO1',
                   NOM_CMP   = 'SIYY',
                   VALE_CALC = 313428794.37,
                   VALE_REFE = 303.0E+06,
                   REFERENCE = 'SOURCE_EXTERNE',
                   PRECISION = 0.1,
                  ),
                _F(INST      = 400.0,
                   RESULTAT  = U1,
                   NOM_CHAM  = 'SIEF_NOEU',
                   NOEUD     = 'NO1',
                   NOM_CMP   = 'SIYY',
                   VALE_CALC = 312625600.111,
                   VALE_REFE = 316.0E+06,
                   REFERENCE = 'SOURCE_EXTERNE',
                   PRECISION = 0.1,
                  ),
                _F(INST      = 600.0,
                   RESULTAT  = U1,
                   NOM_CHAM  = 'SIEF_NOEU',
                   NOEUD     = 'NO1',
                   NOM_CMP   = 'SIYY',
                   VALE_CALC = 311271496.622,
                   VALE_REFE = 325.0E+06,
                   REFERENCE = 'SOURCE_EXTERNE',
                   PRECISION = 0.1,
                  ),
                _F(INST      = 800.0,
                   RESULTAT  = U1,
                   NOM_CHAM  = 'SIEF_NOEU',
                   NOEUD     = 'NO1',
                   NOM_CMP   = 'SIYY',
                   VALE_CALC = 336504214.735,
                   VALE_REFE = 327.0E+06,
                   REFERENCE = 'SOURCE_EXTERNE',
                   PRECISION = 0.1,
                  ),
                )
          )

FIN();
