# TITRE TRACTION THERMOPLASTIQUE GRANDES DEFORMATIONS 3D VMIS_SOT_PUIS
#            CONFIGURATION MANAGEMENT OF EDF VERSION
# ======================================================================
# COPYRIGHT (C) 1991 - 2012  EDF R&D                  WWW.CODE-ASTER.ORG
# THIS PROGRAM IS FREE SOFTWARE; YOU CAN REDISTRIBUTE IT AND/OR MODIFY  
# IT UNDER THE TERMS OF THE GNU GENERAL PUBLIC LICENSE AS PUBLISHED BY  
# THE FREE SOFTWARE FOUNDATION; EITHER VERSION 2 OF THE LICENSE, OR     
# (AT YOUR OPTION) ANY LATER VERSION.                                                    
#                                                                       
# THIS PROGRAM IS DISTRIBUTED IN THE HOPE THAT IT WILL BE USEFUL, BUT   
# WITHOUT ANY WARRANTY; WITHOUT EVEN THE IMPLIED WARRANTY OF            
# MERCHANTABILITY OR FITNESS FOR A PARTICULAR PURPOSE. SEE THE GNU      
# GENERAL PUBLIC LICENSE FOR MORE DETAILS.                              
#                                                                       
# YOU SHOULD HAVE RECEIVED A COPY OF THE GNU GENERAL PUBLIC LICENSE     
# ALONG WITH THIS PROGRAM; IF NOT, WRITE TO EDF R&D CODE_ASTER,         
#    1 AVENUE DU GENERAL DE GAULLE, 92141 CLAMART CEDEX, FRANCE.        
# ======================================================================


DEBUT(CODE=_F(NOM='HSNV133A',NIV_PUB_WEB='INTERNET'),DEBUG=_F(SDVERI='OUI'))

MA=LIRE_MAILLAGE()

MO=AFFE_MODELE(
               MAILLAGE=MA,
                  VERIF='MAILLE',
               AFFE=_F(
               TOUT = 'OUI',
               PHENOMENE = 'MECANIQUE',
               MODELISATION = '3D')
             )

COU_T20=DEFI_FONCTION(
               NOM_PARA='EPSI',
               PROL_DROITE='LINEAIRE',
               VALE=(
  5.00000E-03,1.00000E+03, 
  2.05204E-02,2.10409E+03, 
  3.10951E-02,2.21901E+03, 
  4.14585E-02,2.29171E+03, 
  5.17295E-02,2.34590E+03, 
  6.19475E-02,2.38950E+03, 
  7.21308E-02,2.42616E+03, 
  8.22896E-02,2.45792E+03, 
  9.24300E-02,2.48599E+03, 
  1.02556E-01,2.51121E+03, 
  1.12671E-01,2.53413E+03, 
  1.22776E-01,2.55516E+03, 
  1.32873E-01,2.57461E+03, 
  1.42964E-01,2.59272E+03, 
  1.53048E-01,2.60967E+03, 
  1.63128E-01,2.62561E+03, 
  1.73203E-01,2.64067E+03, 
  1.83275E-01,2.65494E+03, 
  1.93343E-01,2.66851E+03, 
  2.03407E-01,2.68145E+03, 
# ... 81 like lines cut
               )
             )

SY=1000.0
APUI=1.
NPUI=7.
E=200000.

COU_TRAC=DEFI_NAPPE(

              NOM_PARA='TEMP',
                  PARA=(20.,120.,),
              FONCTION=(COU_T20,COU_T20,),
              PROL_GAUCHE='CONSTANT',
               PROL_DROITE='CONSTANT'
             )

ACIER_T=DEFI_MATERIAU(
          ELAS=_F( E = E, NU = 0.3,ALPHA = 1.E-4),
          TRACTION=_F(  SIGM = COU_TRAC),
          ECRO_PUIS=_F(A_PUIS=APUI,
                       N_PUIS=NPUI,
                       SY=SY),
             )

L_INST=DEFI_LIST_REEL(
              DEBUT=0.0,INTERVALLE=(
               _F(  JUSQU_A = 1.00, NOMBRE = 1),
               _F(  JUSQU_A = 2.00, NOMBRE = 20))
             )

F_CHAR=DEFI_FONCTION(
                NOM_PARA='INST',
              PROL_DROITE='CONSTANT',
                    VALE=(
               0.,   0.,
               1.,   0.,
               2.,   293.3,
               )
             )

F_TEMP=DEFI_FONCTION(
                NOM_PARA='INST',
                NOM_RESU='TEMP',
              PROL_DROITE='CONSTANT',
                    VALE=(
               0.,    20.,
               1.,   120.,
               2.,   120.,
               )
             )

CHP_TEMP=CREA_CHAMP( OPERATION='AFFE', TYPE_CHAM='NOEU_TEMP_F',
               MAILLAGE=MA,
                   AFFE=_F(
               TOUT = 'OUI',
               NOM_CMP = 'TEMP',
               VALE_F = F_TEMP)
             )

TEMP=CREA_RESU(
               OPERATION='AFFE', TYPE_RESU='EVOL_THER',
                NOM_CHAM='TEMP',
                 AFFE=_F(
               LIST_INST = L_INST,
               CHAM_GD = CHP_TEMP)
             )

CHP_MATT=AFFE_MATERIAU(
               MAILLAGE=MA,
                   AFFE=_F(
               TOUT = 'OUI',
               MATER = ACIER_T,),
                   AFFE_VARC=_F(
                TOUT='OUI',
                EVOL=TEMP,
                NOM_VARC='TEMP',
                NOM_CHAM='TEMP',
                VALE_REF=20.),)


CHR_LIAI=AFFE_CHAR_MECA(
              MODELE=MO,DDL_IMPO=(

               _F( NOEUD = 'NO2',  DX = 0.,  DY = 0.,  DZ = 0.),
               _F( NOEUD = 'NO6',  DX = 0.,  DY = 0.),
               _F( NOEUD = 'NO1',  DX = 0.,          DZ = 0.),
               _F( NOEUD = ('NO9', 'NO13', 'NO14', 'NO5', 'NO17',),  DX = 0.))
             )

CHR_TRAC=AFFE_CHAR_MECA(
                     MODELE=MO,
                  FACE_IMPO=_F( MAILLE = 'MA2',  DX = 1.)
             )

VT=STAT_NON_LINE(
                            MODELE=MO,
                        CHAM_MATER=CHP_MATT,EXCIT=(
                             _F(
                CHARGE = CHR_LIAI),),
                         COMP_INCR=_F(
                RELATION = 'VMIS_ISOT_TRAC',
                DEFORMATION = 'SIMO_MIEHE'),
                         INCREMENT=_F(
                LIST_INST = L_INST,
                NUME_INST_FIN = 1),
                            NEWTON=_F(
                MATRICE = 'TANGENTE',
                REAC_ITER = 1),
                       CONVERGENCE=_F(
                RESI_GLOB_MAXI = 1.E-1,
                ITER_GLOB_MAXI = 50),
                     RECH_LINEAIRE=_F(
                ITER_LINE_MAXI = 3)
              )

VT=STAT_NON_LINE( reuse=VT,
                         ETAT_INIT=_F(
                EVOL_NOLI = VT,
                NUME_ORDRE = 1),
                            MODELE=MO,
                        CHAM_MATER=CHP_MATT,EXCIT=(
                             _F(
                CHARGE = CHR_LIAI), _F(
                CHARGE = CHR_TRAC,
                FONC_MULT = F_CHAR,
                TYPE_CHARGE = 'DIDI')),
                         COMP_INCR=_F(
                RELATION = 'VMIS_ISOT_TRAC',
                DEFORMATION = 'SIMO_MIEHE'),
                         INCREMENT=_F(
                LIST_INST = L_INST),
                            NEWTON=_F(
                MATRICE = 'TANGENTE',
                REAC_ITER = 1),
                       CONVERGENCE=_F(
                RESI_GLOB_RELA = 1.E-6,
                ITER_GLOB_MAXI = 50),
                     RECH_LINEAIRE=_F(
                ITER_LINE_MAXI = 3)
              )

TEST_RESU(RESU=(_F(INST=2.0,
                   REFERENCE='NON_DEFINI',
                   RESULTAT=VT,
                   NOM_CHAM='DEPL',
                   NOEUD='NO8',
                   NOM_CMP='DX',
                   VALE_CALC=303.062840686,
                   VALE_REFE=303.06,
                   PRECISION=1.E-2,),
                _F(INST=2.0,
                   REFERENCE='NON_DEFINI',
                   RESULTAT=VT,
                   NOM_CHAM='DEPL',
                   NOEUD='NO8',
                   NOM_CMP='DY',
                   VALE_CALC=-108.819035357,
                   VALE_REFE=-108.81999999999999,
                   PRECISION=1.E-2,),
                _F(INST=2.0,
                   REFERENCE='NON_DEFINI',
                   RESULTAT=VT,
                   NOM_CHAM='DEPL',
                   NOEUD='NO8',
                   NOM_CMP='DZ',
                   VALE_CALC=-108.819035357,
                   VALE_REFE=-108.81999999999999,
                   PRECISION=1.E-2,),
                _F(INST=2.0,
                   REFERENCE='NON_DEFINI',
                   POINT=1,
                   RESULTAT=VT,
                   NOM_CHAM='SIEF_ELGA',
                   NOM_CMP='SIXX',
                   VALE_CALC= 2.65163306E+03,
                   VALE_REFE=2651.6329999999998,
                   PRECISION=1.E-2,
                   MAILLE='MA1',),
                _F(INST=2.0,
                   REFERENCE='NON_DEFINI',
                   POINT=1,
                   RESULTAT=VT,
                   NOM_CHAM='VARI_ELGA',
                   NOM_CMP='V1',
                   VALE_CALC=0.245562348,
                   VALE_REFE=0.24556,
                   PRECISION=0.014999999999999999,
                   MAILLE='MA1',),
                ),
          )

#
#  ISOT_PUIS


VP=STAT_NON_LINE(
                            MODELE=MO,
                        CHAM_MATER=CHP_MATT,EXCIT=(
                             _F(
                CHARGE = CHR_LIAI),),
                         COMP_INCR=_F(
                RELATION = 'VMIS_ISOT_PUIS',
                DEFORMATION = 'SIMO_MIEHE'),
                         INCREMENT=_F(
                LIST_INST = L_INST,
                NUME_INST_FIN = 1),
                            NEWTON=_F(
                MATRICE = 'TANGENTE',
                REAC_ITER = 1),
                       CONVERGENCE=_F(
                RESI_GLOB_MAXI = 1.E-1,
                ITER_GLOB_MAXI = 50),
                     RECH_LINEAIRE=_F(
                ITER_LINE_MAXI = 3)
              )

VP=STAT_NON_LINE( reuse=VP,
                         ETAT_INIT=_F(
                EVOL_NOLI = VP,
                NUME_ORDRE = 1),
                            MODELE=MO,
                        CHAM_MATER=CHP_MATT,EXCIT=(
                             _F(
                CHARGE = CHR_LIAI), _F(
                CHARGE = CHR_TRAC,
                FONC_MULT = F_CHAR,
                TYPE_CHARGE = 'DIDI')),
                         COMP_INCR=_F(
                RELATION = 'VMIS_ISOT_PUIS',
                DEFORMATION = 'SIMO_MIEHE'),
                         INCREMENT=_F(
                LIST_INST = L_INST),
                            NEWTON=_F(
                MATRICE = 'TANGENTE',
                REAC_ITER = 1),
                       CONVERGENCE=_F(
                RESI_GLOB_RELA = 1.E-6,
                ITER_GLOB_MAXI = 50),
                     RECH_LINEAIRE=_F(
                ITER_LINE_MAXI = 3)
              )

TEST_RESU(RESU=(_F(INST=2.0,
                   REFERENCE='NON_DEFINI',
                   RESULTAT=VP,
                   NOM_CHAM='DEPL',
                   NOEUD='NO8',
                   NOM_CMP='DX',
                   VALE_CALC=303.062840686,
                   VALE_REFE=303.06,
                   PRECISION=1.E-2,),
                _F(INST=2.0,
                   REFERENCE='NON_DEFINI',
                   RESULTAT=VP,
                   NOM_CHAM='DEPL',
                   NOEUD='NO8',
                   NOM_CMP='DY',
                   VALE_CALC=-108.818982369,
                   VALE_REFE=-108.81999999999999,
                   PRECISION=1.E-2,),
                _F(INST=2.0,
                   REFERENCE='NON_DEFINI',
                   RESULTAT=VP,
                   NOM_CHAM='DEPL',
                   NOEUD='NO8',
                   NOM_CMP='DZ',
                   VALE_CALC=-108.818982369,
                   VALE_REFE=-108.81999999999999,
                   PRECISION=1.E-2,),
                _F(INST=2.0,
                   REFERENCE='NON_DEFINI',
                   POINT=1,
                   RESULTAT=VP,
                   NOM_CHAM='SIEF_ELGA',
                   NOM_CMP='SIXX',
                   VALE_CALC= 2.65169422E+03,
                   VALE_REFE=2651.6329999999998,
                   PRECISION=1.E-2,
                   MAILLE='MA1',),
                _F(INST=2.0,
                   REFERENCE='NON_DEFINI',
                   POINT=1,
                   RESULTAT=VP,
                   NOM_CHAM='VARI_ELGA',
                   NOM_CMP='V1',
                   VALE_CALC=0.245582394,
                   VALE_REFE=0.24556,
                   PRECISION=0.014999999999999999,
                   MAILLE='MA1',),
                ),
          )

FIN()
#
