# ======================================================================
# COPYRIGHT (C) 1991 - 2016  EDF R&D                  WWW.CODE-ASTER.ORG
# THIS PROGRAM IS FREE SOFTWARE; YOU CAN REDISTRIBUTE IT AND/OR MODIFY
# IT UNDER THE TERMS OF THE GNU GENERAL PUBLIC LICENSE AS PUBLISHED BY
# THE FREE SOFTWARE FOUNDATION; EITHER VERSION 2 OF THE LICENSE, OR
# (AT YOUR OPTION) ANY LATER VERSION.
#
# THIS PROGRAM IS DISTRIBUTED IN THE HOPE THAT IT WILL BE USEFUL, BUT
# WITHOUT ANY WARRANTY; WITHOUT EVEN THE IMPLIED WARRANTY OF
# MERCHANTABILITY OR FITNESS FOR A PARTICULAR PURPOSE. SEE THE GNU
# GENERAL PUBLIC LICENSE FOR MORE DETAILS.
#
# YOU SHOULD HAVE RECEIVED A COPY OF THE GNU GENERAL PUBLIC LICENSE
# ALONG WITH THIS PROGRAM; IF NOT, WRITE TO EDF R&D CODE_ASTER,
#    1 AVENUE DU GENERAL DE GAULLE, 92141 CLAMART CEDEX, FRANCE.
# ======================================================================
#       VOLUME EN TRACTION/TEMPERATURE VARIABLES ET CISAILLEMENT
#       MODELISATION F : ECROUISSAGE CINEMATIQUE LINEAIRE
# IDEM MODELISATION B POUR TEST TEMP_DEF_ALPHA
# person_in_charge: jean-michel.proix at edf.fr


DEBUT(CODE=_F(NIV_PUB_WEB='INTERNET'),DEBUG=_F(SDVERI='NON'))
# SDVERI='NON' car la verification est trop couteuse en CPU

TITRE='PHI2AS TEST2 CINEMATIQUE LINEAIRE'

MA=LIRE_MAILLAGE()

MO=AFFE_MODELE(
                           MAILLAGE=MA,
                            AFFE=_F(  TOUT = 'OUI',
                                   MODELISATION = '3D',
                                   PHENOMENE = 'MECANIQUE',    )
                                )

Y_F = FORMULE(NOM_PARA='TEMP',VALE='2.E5 - (1.E5*((TEMP - 100.)/960.)**2)')

# Alpha donne par PHI2AS, TDEF=20
AL_F20 = FORMULE(NOM_PARA='TEMP',VALE='(1.E-5+(1.E-5 *((TEMP-100.)/960.)**4))')

C1 = 1.E-5
TDEF=-100.
TREF=20.
DT=TREF-TDEF

CST = (C1+(C1 *(TDEF-100./960.)**4))*DT

# Alpha pour test TEMP_DEF_ALPHA, TDEF=-100
#  doit conduire aux memes resultats

AL_F100 = FORMULE(NOM_PARA='TEMP',VALE='''
((C1+(C1*((TEMP-100.)/960.)**4))*(TEMP-TREF)+CST)/(TEMP-TDEF)''')

# C(100)=15000

C_F = FORMULE(NOM_PARA='TEMP',VALE='(40000. - (25000. * (TEMP - 100.) / 960.))')

DSDE_F = FORMULE(NOM_PARA='TEMP',VALE='Y_F(TEMP)*C_F(TEMP)/(Y_F(TEMP)+C_F(TEMP))')

TEMPE1=DEFI_LIST_REEL(  DEBUT=20.,
                          INTERVALLE=_F(  JUSQU_A = 1060.,    NOMBRE = 1040,  )
                         )

YOUN=CALC_FONC_INTERP(    FONCTION=Y_F,
                             LIST_PARA=TEMPE1,
                            NOM_PARA = 'TEMP',)

DSDE=CALC_FONC_INTERP(    FONCTION=DSDE_F,
                             LIST_PARA=TEMPE1,
                            NOM_PARA = 'TEMP', )

ALPH100=CALC_FONC_INTERP(    FONCTION=AL_F100,
                             LIST_PARA=TEMPE1,
                             NOM_PARA = 'TEMP',)
ALPH20=CALC_FONC_INTERP(FONCTION=AL_F20,LIST_PARA=TEMPE1,
NOM_PARA ='TEMP')

IMPR_FONCTION( UNITE=25, FORMAT='AGRAF',
               LEGENDE_X='Temperature',
               LEGENDE_Y='Alpha ',
               TITRE=TITRE,
               COURBE=(
              _F(  FONCTION = ALPH20,
                       LEGENDE = 'Alpha - TDEF=20', ),
              _F(  FONCTION = ALPH100,
                       LEGENDE = 'Alpha - TDEF=-100', ),),)

POISS=DEFI_CONSTANTE( VALE=0.3)

SIGY=DEFI_CONSTANTE( VALE=100.0)

MAT=DEFI_MATERIAU(
                             ELAS_FO=_F(
                                   E = YOUN,
                                   NU = POISS,
                                #   ALPHA = ALPH,
                               #    TEMP_DEF_ALPHA=20.0,
                                   ALPHA = ALPH100,
                                TEMP_DEF_ALPHA=TDEF,
                                  ),
                             ECRO_LINE_FO=_F(
                                             D_SIGM_EPSI = DSDE,
                                             SY = SIGY,
                                            )
                          )


#################
## CHARGEMENTS ##
#################


#### CYCLES


NPAS=30

L_INST=DEFI_LIST_REEL(
                         #   DEBUT: 0.0
                             DEBUT=-1.,INTERVALLE=(
                             _F( JUSQU_A = 0.,     NOMBRE = 1, ),
                                          _F( JUSQU_A = 1.,     NOMBRE = 10, ),
                                          _F( JUSQU_A = 61.,    NOMBRE = NPAS,  ),
                                          _F( JUSQU_A = 121.,   NOMBRE = NPAS,  ),
                                          _F( JUSQU_A = 181.,   NOMBRE = NPAS,  ),
                                          _F( JUSQU_A = 241.,   NOMBRE = NPAS,  ),
                                          _F( JUSQU_A = 301.,   NOMBRE = NPAS,  ),
                                          _F( JUSQU_A = 361.,   NOMBRE = NPAS,  ),
                                          _F( JUSQU_A = 421.,   NOMBRE = NPAS,  ),
                                          _F( JUSQU_A = 453.,   NOMBRE = 32,  ),
                                          _F( JUSQU_A = 453.4,   NOMBRE = 1,  ),
                                          _F( JUSQU_A = 454.,   NOMBRE = 1,  ),
                                          _F( JUSQU_A = 461.,   NOMBRE = 7,  ),
                                          _F( JUSQU_A = 461.8,   NOMBRE = 1,  ),
                                          _F( JUSQU_A = 462.,   NOMBRE = 1,  ),
                                          _F( JUSQU_A = 471.,   NOMBRE = 9,  ),
                                          _F( JUSQU_A = 471.4,   NOMBRE = 1,  ),
                                          _F( JUSQU_A = 472.,   NOMBRE = 1,  ),
                                          _F( JUSQU_A = 481.,   NOMBRE = 9,  ))
                           )

P_PLUS=DEFI_FONCTION(
                         NOM_PARA='INST',
                         VALE=(  -1., 0.,
                                0.,  0.,
                                 1.,  100.,
                                61.,  100.,
                               121.,  100.,
                               181.,  100.,
                               241.,  100.,
                               301.,  100.,
                               361.,  100.,
                               421.,  100.,
                               481.,  100.,
                               )
                        )

P_MOINS=DEFI_FONCTION(
                         NOM_PARA='INST',
                         VALE=(  -1.,  0.,
                                  0.,  0.,
                                 1.,  -100.,
                                61.,  -100.,
                               121.,  -100.,
                               181.,  -100.,
                               241.,  -100.,
                               301.,  -100.,
                               361.,  -100.,
                               421.,  -100.,
                               481.,  -100.,
                               )
                        )

#DYVAR= -0.02 ;
DY1=-2.08000E-02

DY2=-8.0E-04

DEP_Y=DEFI_FONCTION(
                         NOM_PARA='INST',
                         VALE=(  -1., 0.,
                                  0., DY1,
                                 1.,  DY1,
                                61.,  DY2,
                               121.,  DY1,
                               181., DY2,
                               241., DY1,
                               301., DY2,
                               361., DY1,
                               421., DY2,
                               481., DY1,
                               )
                        )

TEMP_CY=DEFI_FONCTION(
                         NOM_PARA='INST',
                          NOM_RESU='TEMP',
                         VALE=( -1.,  20.,
                                 0.,  1060.,
                                 1.,  1060.,
                                61.,   100.,
                               121.,  1060.,
                               181.,   100.,
                               241.,  1060.,
                               301.,   100.,
                               361.,  1060.,
                               421.,   100.,
                               481.,  1060.,
                               )
                        )


#### CYCLES

CH_CY=CREA_CHAMP(OPERATION='AFFE', TYPE_CHAM='NOEU_TEMP_F',
               MAILLAGE=MA,
                   AFFE=_F(
               TOUT = 'OUI',
               NOM_CMP = 'TEMP',
               VALE_F = TEMP_CY,
               )
             )

T_CY=CREA_RESU(
                 OPERATION='AFFE', TYPE_RESU='EVOL_THER',
                  NOM_CHAM='TEMP',
                   AFFE=_F(
               LIST_INST = L_INST,
               CHAM_GD = CH_CY,
               )
             )

CHA1=AFFE_CHAR_MECA_F(
                   MODELE=MO,FORCE_FACE=(

                      _F(  MAILLE = 'GAUCHE',           FY = P_MOINS,  ),
                      _F(  MAILLE = 'DROITE',           FY = P_PLUS,   ),
                      _F(  MAILLE = 'HAUT',     FX = P_PLUS,           ),
                      _F(  MAILLE = 'BAS',      FX = P_MOINS,          ))
                    )

CHA2=AFFE_CHAR_MECA_F(
                   MODELE=MO,
                    FACE_IMPO=_F(  MAILLE = 'GAUCHE',    DX = DEP_Y,  )
                    )


CHA4=AFFE_CHAR_MECA(
                           MODELE=MO,DDL_IMPO=(

                               _F(  NOEUD = 'NO4',    DX = 0.,   DY = 0.,         ),
                               _F(  NOEUD = 'NO8',    DX = 0.,   DY = 0.,   DZ = 0., ),
                               _F(  NOEUD = 'NO2',    DX = 0.,                 ),
                               _F(  NOEUD = 'NO6',    DX = 0.,                 ))
                           )

CHMTM=AFFE_MATERIAU(
                            MAILLAGE=MA,
                           AFFE=_F(
                                 TOUT = 'OUI',
                                 MATER = MAT,),
                           AFFE_VARC=_F( TOUT='OUI',
                                     EVOL=T_CY,
                                     NOM_VARC='TEMP',
                                     NOM_CHAM='TEMP',
                                     VALE_REF=TREF),
                           )


RESU=STAT_NON_LINE(
                                  MODELE=MO,
                              CHAM_MATER=CHMTM,
                              EXCIT=(
                                   _F( CHARGE = CHA1, ),
                                   _F( CHARGE = CHA2,),
                                   _F( CHARGE = CHA4,
                                          )),
                               COMPORTEMENT=_F( RELATION = 'VMIS_CINE_LINE' ),
                                  NEWTON=_F(  MATRICE = 'TANGENTE',
                                             REAC_ITER = 1,),
                           RECH_LINEAIRE=_F( ITER_LINE_MAXI = 3,
                                            RESI_LINE_RELA = 1.E-3,  ),
                               INCREMENT=_F(  LIST_INST = L_INST, ),

                                       CONVERGENCE=_F(
                               ITER_GLOB_MAXI = 100,
                                       )
                                    )

RESU=CALC_CHAMP(reuse=RESU,RESULTAT=RESU,CONTRAINTE=('SIGM_ELNO'),DEFORMATION=('EPSI_ELNO'))


SYY=RECU_FONCTION(    RESULTAT=RESU,   NOM_CHAM='SIGM_ELNO',
          NOM_CMP='SIXX', NOEUD='NO1', MAILLE='CUBE',
          PROL_GAUCHE='CONSTANT',   PROL_DROITE='CONSTANT'
 )

EPYY=RECU_FONCTION(    RESULTAT=RESU,   NOM_CHAM='EPSI_ELNO',
          NOM_CMP='EPXX', NOEUD='NO1', MAILLE='CUBE',
          PROL_GAUCHE='CONSTANT',   PROL_DROITE='CONSTANT'
 )

EPXY=RECU_FONCTION(    RESULTAT=RESU,   NOM_CHAM='EPSI_ELNO',
          NOM_CMP='EPXY', NOEUD='NO1', MAILLE='CUBE',
          PROL_GAUCHE='CONSTANT',   PROL_DROITE='CONSTANT'
 )

IMPR_FONCTION( UNITE=27, UNITE_DIGR=28,
               FORMAT='AGRAF',
               LEGENDE_X='T (S)',
               LEGENDE_Y='SIYY ET EPYY ET EPXY ',
               TITRE=TITRE,
               COURBE=(
              _F(  FONCTION = SYY,
                       LEGENDE = 'SIYY', ),
              _F(  FONCTION = EPYY,
                       LEGENDE = 'EPYY', ),
              _F(  FONCTION = EPXY,
                       LEGENDE = 'EPXY', )))

# T=421
NINST1F=221

# T=453.4
NINST2F=254

# T=461.8
NINST3F=263

# T=471.4
NINST4F=274

# T= 481
NINST5F=284

TEST_RESU(RESU=(_F(NUME_ORDRE=221,
                   REFERENCE='SOURCE_EXTERNE',
                   RESULTAT=RESU,
                   NOM_CHAM='SIGM_ELNO',
                   NOEUD='NO1',
                   NOM_CMP='SIXX',
                   VALE_CALC=-72.611333599,
                   VALE_REFE=-72.909999999999997,
                   PRECISION=1.E-2,
                   MAILLE='CUBE',),
                _F(NUME_ORDRE=254,
                   REFERENCE='SOURCE_EXTERNE',
                   RESULTAT=RESU,
                   NOM_CHAM='SIGM_ELNO',
                   NOEUD='NO1',
                   NOM_CMP='SIXX',
                   VALE_CALC=200.683517723,
                   VALE_REFE=200.68000000000001,
                   PRECISION=1.E-2,
                   MAILLE='CUBE',),
                _F(NUME_ORDRE=263,
                   REFERENCE='SOURCE_EXTERNE',
                   RESULTAT=RESU,
                   NOM_CHAM='SIGM_ELNO',
                   NOEUD='NO1',
                   NOM_CMP='SIXX',
                   VALE_CALC=187.968945438,
                   VALE_REFE=188.66,
                   PRECISION=1.E-2,
                   MAILLE='CUBE',),
                _F(NUME_ORDRE=274,
                   REFERENCE='SOURCE_EXTERNE',
                   RESULTAT=RESU,
                   NOM_CHAM='SIGM_ELNO',
                   NOEUD='NO1',
                   NOM_CMP='SIXX',
                   VALE_CALC=5.781921520,
                   VALE_REFE=5.8399999999999999,
                   PRECISION=1.E-2,
                   MAILLE='CUBE',),
                _F(NUME_ORDRE=284,
                   REFERENCE='SOURCE_EXTERNE',
                   RESULTAT=RESU,
                   NOM_CHAM='SIGM_ELNO',
                   NOEUD='NO1',
                   NOM_CMP='SIXX',
                   VALE_CALC=-74.628893345,
                   VALE_REFE=-75.290000000000006,
                   PRECISION=1.E-2,
                   MAILLE='CUBE',),
                _F(NUME_ORDRE=221,
                   REFERENCE='SOURCE_EXTERNE',
                   RESULTAT=RESU,
                   NOM_CHAM='EPSI_ELNO',
                   NOEUD='NO1',
                   NOM_CMP='EPXX',
                   VALE_CALC= 8.00000000E-04,
                   VALE_REFE=8.0000000000000004E-4,
                   MAILLE='CUBE',),
                _F(NUME_ORDRE=284,
                   REFERENCE='SOURCE_EXTERNE',
                   RESULTAT=RESU,
                   NOM_CHAM='EPSI_ELNO',
                   NOEUD='NO1',
                   NOM_CMP='EPXX',
                   VALE_CALC=0.020800000,
                   VALE_REFE=0.020799999999999999,
                   MAILLE='CUBE',),
                _F(NUME_ORDRE=221,
                   REFERENCE='SOURCE_EXTERNE',
                   RESULTAT=RESU,
                   NOM_CHAM='EPSI_ELNO',
                   NOEUD='NO1',
                   NOM_CMP='EPXY',
                   VALE_CALC= 5.46236815E-03,
                   VALE_REFE=5.4288000000000001E-3,
                   PRECISION=1.E-2,
                   MAILLE='CUBE',),
                _F(NUME_ORDRE=254,
                   REFERENCE='SOURCE_EXTERNE',
                   RESULTAT=RESU,
                   NOM_CHAM='EPSI_ELNO',
                   NOEUD='NO1',
                   NOM_CMP='EPXY',
                   VALE_CALC= 5.56099758E-03,
                   VALE_REFE=5.5541999999999996E-3,
                   PRECISION=1.E-2,
                   MAILLE='CUBE',),
                _F(NUME_ORDRE=263,
                   REFERENCE='SOURCE_EXTERNE',
                   RESULTAT=RESU,
                   NOM_CHAM='EPSI_ELNO',
                   NOEUD='NO1',
                   NOM_CMP='EPXY',
                   VALE_CALC= 5.74821593E-03,
                   VALE_REFE=5.7410999999999998E-3,
                   PRECISION=1.E-2,
                   MAILLE='CUBE',),
                _F(NUME_ORDRE=274,
                   REFERENCE='SOURCE_EXTERNE',
                   RESULTAT=RESU,
                   NOM_CHAM='EPSI_ELNO',
                   NOEUD='NO1',
                   NOM_CMP='EPXY',
                   VALE_CALC= 5.91045003E-03,
                   VALE_REFE=5.9002000000000004E-3,
                   PRECISION=1.E-2,
                   MAILLE='CUBE',),
                _F(NUME_ORDRE=284,
                   REFERENCE='SOURCE_EXTERNE',
                   RESULTAT=RESU,
                   NOM_CHAM='EPSI_ELNO',
                   NOEUD='NO1',
                   NOM_CMP='EPXY',
                   VALE_CALC= 8.33668397E-03,
                   VALE_REFE=8.2185000000000001E-3,
                   PRECISION=0.02,
                   MAILLE='CUBE',),
                ),
          )

#  Solution du HSNV125B, VERSION 6.3
TEST_RESU(RESU=(_F(NUME_ORDRE=221,
                   REFERENCE='AUTRE_ASTER',
                   RESULTAT=RESU,
                   NOM_CHAM='SIGM_ELNO',
                   NOEUD='NO1',
                   NOM_CMP='SIXX',
                   VALE_CALC=-72.611333599,
                   VALE_REFE=-72.611333857738003,
                   PRECISION=9.9999999999999995E-07,
                   MAILLE='CUBE',),
                _F(NUME_ORDRE=254,
                   REFERENCE='AUTRE_ASTER',
                   RESULTAT=RESU,
                   NOM_CHAM='SIGM_ELNO',
                   NOEUD='NO1',
                   NOM_CMP='SIXX',
                   VALE_CALC=200.683517723,
                   VALE_REFE=200.68351759817,
                   PRECISION=9.9999999999999995E-07,
                   MAILLE='CUBE',),
                _F(NUME_ORDRE=263,
                   REFERENCE='AUTRE_ASTER',
                   RESULTAT=RESU,
                   NOM_CHAM='SIGM_ELNO',
                   NOEUD='NO1',
                   NOM_CMP='SIXX',
                   VALE_CALC=187.968945438,
                   VALE_REFE=187.96894523995999,
                   PRECISION=9.9999999999999995E-07,
                   MAILLE='CUBE',),
                _F(NUME_ORDRE=274,
                   REFERENCE='AUTRE_ASTER',
                   RESULTAT=RESU,
                   NOM_CHAM='SIGM_ELNO',
                   NOEUD='NO1',
                   NOM_CMP='SIXX',
                   VALE_CALC=5.781921520,
                   VALE_REFE=5.7819213552901996,
                   PRECISION=9.9999999999999995E-07,
                   MAILLE='CUBE',),
                _F(NUME_ORDRE=284,
                   REFERENCE='AUTRE_ASTER',
                   RESULTAT=RESU,
                   NOM_CHAM='SIGM_ELNO',
                   NOEUD='NO1',
                   NOM_CMP='SIXX',
                   VALE_CALC=-74.628893345,
                   VALE_REFE=-74.628893398886007,
                   PRECISION=9.9999999999999995E-07,
                   MAILLE='CUBE',),
                _F(NUME_ORDRE=221,
                   REFERENCE='AUTRE_ASTER',
                   RESULTAT=RESU,
                   NOM_CHAM='EPSI_ELNO',
                   NOEUD='NO1',
                   NOM_CMP='EPXX',
                   VALE_CALC= 8.00000000E-04,
                   VALE_REFE=8.0000000000000004E-4,
                   MAILLE='CUBE',),
                _F(NUME_ORDRE=284,
                   REFERENCE='AUTRE_ASTER',
                   RESULTAT=RESU,
                   NOM_CHAM='EPSI_ELNO',
                   NOEUD='NO1',
                   NOM_CMP='EPXX',
                   VALE_CALC=0.020800000,
                   VALE_REFE=0.020799999999999999,
                   MAILLE='CUBE',),
                _F(NUME_ORDRE=221,
                   REFERENCE='AUTRE_ASTER',
                   RESULTAT=RESU,
                   NOM_CHAM='EPSI_ELNO',
                   NOEUD='NO1',
                   NOM_CMP='EPXY',
                   VALE_CALC= 5.46236815E-03,
                   VALE_REFE=5.4623681479410999E-3,
                   PRECISION=9.9999999999999995E-07,
                   MAILLE='CUBE',),
                _F(NUME_ORDRE=254,
                   REFERENCE='AUTRE_ASTER',
                   RESULTAT=RESU,
                   NOM_CHAM='EPSI_ELNO',
                   NOEUD='NO1',
                   NOM_CMP='EPXY',
                   VALE_CALC= 5.56099758E-03,
                   VALE_REFE=5.5609975819504998E-3,
                   PRECISION=9.9999999999999995E-07,
                   MAILLE='CUBE',),
                _F(NUME_ORDRE=263,
                   REFERENCE='AUTRE_ASTER',
                   RESULTAT=RESU,
                   NOM_CHAM='EPSI_ELNO',
                   NOEUD='NO1',
                   NOM_CMP='EPXY',
                   VALE_CALC= 5.74821593E-03,
                   VALE_REFE=5.7482159311483998E-3,
                   PRECISION=9.9999999999999995E-07,
                   MAILLE='CUBE',),
                _F(NUME_ORDRE=274,
                   REFERENCE='AUTRE_ASTER',
                   RESULTAT=RESU,
                   NOM_CHAM='EPSI_ELNO',
                   NOEUD='NO1',
                   NOM_CMP='EPXY',
                   VALE_CALC= 5.91045003E-03,
                   VALE_REFE=5.9104500352038002E-3,
                   PRECISION=9.9999999999999995E-07,
                   MAILLE='CUBE',),
                _F(NUME_ORDRE=284,
                   REFERENCE='AUTRE_ASTER',
                   RESULTAT=RESU,
                   NOM_CHAM='EPSI_ELNO',
                   NOEUD='NO1',
                   NOM_CMP='EPXY',
                   VALE_CALC= 8.33668397E-03,
                   VALE_REFE=8.3366839728445993E-3,
                   PRECISION=0.02,
                   MAILLE='CUBE',),
                ),
          )

FIN()
