# TITRE THERMO-PLASTICITE EN TRACTION SIMPLE (MODELISATION:3D_INCO_UPG)
# ======================================================================
# COPYRIGHT (C) 1991 - 2015  EDF R&D                  WWW.CODE-ASTER.ORG
# THIS PROGRAM IS FREE SOFTWARE; YOU CAN REDISTRIBUTE IT AND/OR MODIFY
# IT UNDER THE TERMS OF THE GNU GENERAL PUBLIC LICENSE AS PUBLISHED BY
# THE FREE SOFTWARE FOUNDATION; EITHER VERSION 2 OF THE LICENSE, OR
# (AT YOUR OPTION) ANY LATER VERSION.
#
# THIS PROGRAM IS DISTRIBUTED IN THE HOPE THAT IT WILL BE USEFUL, BUT
# WITHOUT ANY WARRANTY; WITHOUT EVEN THE IMPLIED WARRANTY OF
# MERCHANTABILITY OR FITNESS FOR A PARTICULAR PURPOSE. SEE THE GNU
# GENERAL PUBLIC LICENSE FOR MORE DETAILS.
#
# YOU SHOULD HAVE RECEIVED A COPY OF THE GNU GENERAL PUBLIC LICENSE
# ALONG WITH THIS PROGRAM; IF NOT, WRITE TO EDF R&D CODE_ASTER,
#    1 AVENUE DU GENERAL DE GAULLE, 92141 CLAMART CEDEX, FRANCE.
# ======================================================================
# person_in_charge: sebastien.fayolle at edf.fr

DEBUT(CODE=_F(NIV_PUB_WEB='INTERNET',),
      DEBUG=_F(SDVERI='OUI',),);

#......................................................................
# CAS TEST THERMOPLASTICITE ELEMENTAIRE
#......................................................................
# DEFINITION DES CARACTERISTIQUES DU MATERIAU

MAIL=LIRE_MAILLAGE(FORMAT='MED',);

#
# DONNEES DE MODELISATION

FCT1=DEFI_FONCTION(
                   NOM_PARA='EPSI',
                   VALE=(0.002 ,400.0 ,
                         0.004 ,500.0 ,),
                   PROL_DROITE='LINEAIRE',
                   PROL_GAUCHE='LINEAIRE',);

#

FCT2=DEFI_FONCTION(
                   NOM_PARA='EPSI',
                   VALE=(0.001 ,200.0 ,
                         0.003 ,300.0 ,),
                   PROL_DROITE='LINEAIRE',
                   PROL_GAUCHE='LINEAIRE',);

#

CTRACB=DEFI_NAPPE(NOM_PARA='TEMP',
                  PARA=(0.0,50.0,),
                  FONCTION=(FCT1,FCT2,),
                  PROL_DROITE='LINEAIRE',
                  PROL_GAUCHE='LINEAIRE',);

#

MAT=DEFI_MATERIAU(ELAS=_F(E=200000.0,
                          NU=0.3,
                          ALPHA=1e-05,),
                  TRACTION=_F(SIGM=CTRACB,),
                  THER=_F(LAMBDA=0.001,
                          RHO_CP=0.0,),);

#

CM=AFFE_MATERIAU(MAILLAGE=MAIL,
                 AFFE=_F(TOUT='OUI',
                         MATER=MAT,),);

#

T0=CREA_CHAMP(TYPE_CHAM='NOEU_TEMP_R',
              OPERATION='AFFE',
              MAILLAGE=MAIL,
              AFFE=_F(TOUT='OUI',
                      NOM_CMP='TEMP',
                      VALE=0.0,),);

L_INST=DEFI_LIST_REEL(DEBUT=0.0,
                      INTERVALLE=(_F(JUSQU_A=66.666,
                                     NOMBRE=1,),
                                  _F(JUSQU_A=80.0,
                                     NOMBRE=2,),
                                  _F(JUSQU_A=90.0,
                                     NOMBRE=2,),),);

#

TIMPVAR=DEFI_FONCTION(
                      NOM_PARA='INST',
                      NOM_RESU='TEMP',
                      VALE=(0.0 ,0.0 ,
                            100.0 ,100.0 ,),);

#

MOTHER=AFFE_MODELE(MAILLAGE=MAIL,
                   AFFE=_F(TOUT='OUI',
                           PHENOMENE='THERMIQUE',
                           MODELISATION='3D',),);

#

MOMECA=AFFE_MODELE(MAILLAGE=MAIL,
                   AFFE=_F(TOUT='OUI',
                           PHENOMENE='MECANIQUE',
                           MODELISATION='3D_INCO_UPG',),);

#

CHTHER=AFFE_CHAR_THER_F(MODELE=MOTHER,
                        TEMP_IMPO=_F(TOUT='OUI',
                                     TEMP=TIMPVAR,),);

#

TEMPE=THER_LINEAIRE(MODELE=MOTHER,
                    CHAM_MATER=CM,
                    EXCIT=_F(CHARGE=CHTHER,),
                    ETAT_INIT=_F(CHAM_NO=T0,),
                    INCREMENT=_F(LIST_INST=L_INST,),);

CHMECA=AFFE_CHAR_MECA(MODELE=MOMECA,
                      DDL_IMPO=(_F(GROUP_MA='GRDX',
                                   DX=0.0,),
                                _F(GROUP_MA='GRDY',
                                   DY=0.0,),
                                _F(GROUP_MA='GRDZ',
                                   DZ=0.0,),),);

CTM=AFFE_MATERIAU(MAILLAGE=MAIL,
                  AFFE=_F(TOUT='OUI',
                          MATER=MAT,),
                  AFFE_VARC=_F(TOUT='OUI',
                               NOM_VARC='TEMP',
                               EVOL=TEMPE,
                               NOM_CHAM='TEMP',
                               VALE_REF=0.0,),);

U=STAT_NON_LINE(MODELE=MOMECA,
                CHAM_MATER=CTM,
                EXCIT=_F(CHARGE=CHMECA,),
                COMPORTEMENT=_F(RELATION='VMIS_ISOT_TRAC',),
                INCREMENT=_F(LIST_INST=L_INST,),
                NEWTON=_F(MATRICE='TANGENTE',
                          REAC_ITER=1,),
                CONVERGENCE=_F(RESI_GLOB_RELA=1e-05,
                               ITER_GLOB_MAXI=10,),);

#

U=CALC_CHAMP(reuse =U,
             RESULTAT=U,
             CONTRAINTE='SIGM_ELNO',
             DEFORMATION='EPSI_ELNO',
             VARI_INTERNE='VARI_ELNO',);

#

TEST_RESU(RESU=(_F(RESULTAT=TEMPE,
                   NUME_ORDRE=5,
                   NOM_CHAM='TEMP',
                   NOM_CMP='TEMP',
                   NOEUD='N1',
                   VALE_REFE=90.0,
                   REFERENCE='ANALYTIQUE',
                   VALE_CALC=90.0,),
                _F(RESULTAT=U,
                   NUME_ORDRE=1,
                   NOM_CHAM='EPSI_ELNO',
                   NOM_CMP='EPXX',
                   MAILLE='M19',
                   NOEUD='N1',
                   VALE_REFE=0.00086666,
                   REFERENCE='ANALYTIQUE',
                   VALE_CALC=0.000866658,),
                _F(RESULTAT=U,
                   NUME_ORDRE=1,
                   NOM_CHAM='SIGM_ELNO',
                   NOM_CMP='SIYY',
                   MAILLE='M19',
                   NOEUD='N1',
                   VALE_REFE=-133.333,
                   REFERENCE='ANALYTIQUE',
                   VALE_CALC=-133.332,),
                _F(RESULTAT=U,
                   NUME_ORDRE=3,
                   NOM_CHAM='EPSI_ELNO',
                   NOM_CMP='EPXX',
                   MAILLE='M19',
                   NOEUD='N2',
                   VALE_REFE=0.0011,
                   REFERENCE='ANALYTIQUE',
                   VALE_CALC=0.0011,),
                _F(RESULTAT=U,
                   NUME_ORDRE=3,
                   NOM_CHAM='VARI_ELNO',
                   NOM_CMP='V1',
                   MAILLE='M19',
                   NOEUD='N2',
                   VALE_REFE=0.0003,
                   REFERENCE='ANALYTIQUE',
                   VALE_CALC=0.0003,),
                _F(RESULTAT=U,
                   NUME_ORDRE=3,
                   NOM_CHAM='SIGM_ELNO',
                   NOM_CMP='SIYY',
                   MAILLE='M19',
                   NOEUD='N2',
                   VALE_REFE=-100.0,
                   REFERENCE='ANALYTIQUE',
                   VALE_CALC=-100.0,),
                _F(RESULTAT=U,
                   NUME_ORDRE=5,
                   NOM_CHAM='EPSI_ELNO',
                   NOM_CMP='EPXX',
                   MAILLE='M19',
                   NOEUD='N3',
                   VALE_REFE=0.001275,
                   REFERENCE='ANALYTIQUE',
                   VALE_CALC=0.001275,),
                _F(RESULTAT=U,
                   NUME_ORDRE=5,
                   NOM_CHAM='VARI_ELNO',
                   NOM_CMP='V1',
                   MAILLE='M19',
                   NOEUD='N3',
                   VALE_REFE=0.000525,
                   REFERENCE='ANALYTIQUE',
                   VALE_CALC=0.000525,),
                _F(RESULTAT=U,
                   NUME_ORDRE=5,
                   NOM_CHAM='SIGM_ELNO',
                   NOM_CMP='SIYY',
                   MAILLE='M19',
                   NOEUD='N3',
                   VALE_REFE=-75.0,
                   REFERENCE='ANALYTIQUE',
                   VALE_CALC=-75.0,),),);

FIN();

#
#CHECKSUM:e562273c5628d9957aedbda535892e1b  -:FIN CHECKSUM
