# person_in_charge: mickael.abbas at edf.fr
# ======================================================================
# COPYRIGHT (C) 1991 - 2016  EDF R&D                  WWW.CODE-ASTER.ORG
# THIS PROGRAM IS FREE SOFTWARE; YOU CAN REDISTRIBUTE IT AND/OR MODIFY
# IT UNDER THE TERMS OF THE GNU GENERAL PUBLIC LICENSE AS PUBLISHED BY
# THE FREE SOFTWARE FOUNDATION; EITHER VERSION 2 OF THE LICENSE, OR
# (AT YOUR OPTION) ANY LATER VERSION.
#
# THIS PROGRAM IS DISTRIBUTED IN THE HOPE THAT IT WILL BE USEFUL, BUT
# WITHOUT ANY WARRANTY; WITHOUT EVEN THE IMPLIED WARRANTY OF
# MERCHANTABILITY OR FITNESS FOR A PARTICULAR PURPOSE. SEE THE GNU
# GENERAL PUBLIC LICENSE FOR MORE DETAILS.
#
# YOU SHOULD HAVE RECEIVED A COPY OF THE GNU GENERAL PUBLIC LICENSE
# ALONG WITH THIS PROGRAM; IF NOT, WRITE TO EDF R&D CODE_ASTER,
#    1 AVENUE DU GENERAL DE GAULLE, 92141 CLAMART CEDEX, FRANCE.
# ======================================================================
#
DEBUT(CODE=_F(NIV_PUB_WEB='INTERNET'), DEBUG=_F(SDVERI='OUI'))

#......................................................................
# CAS TEST THERMOPLASTICITE ELEMENTAIRE
#......................................................................
# DEFINITION DES CARACTERISTIQUES DU MATERIAU
#

MAIL=LIRE_MAILLAGE( )

# -----------------------------------------------------------------------------
# DONNEES DE MODELISATION
# -----------------------------------------------------------------------------

FCT1=DEFI_FONCTION(   NOM_PARA='EPSI',  PROL_DROITE='LINEAIRE',
                                          PROL_GAUCHE='LINEAIRE',
                       VALE=(
                             0.500E-3,      100.,
                             0.300E-2,      110.,))

MAT=DEFI_MATERIAU(    ELAS=_F( E = 200.E+3, NU = .3,ALPHA = 10.0E-6),
                      THER=_F( RHO_CP = 0.0E-3,LAMBDA = 1.0E-3),
                      TRACTION=_F( SIGM = FCT1), )

#

CM=AFFE_MATERIAU(
                      MAILLAGE=MAIL,
                      AFFE=_F( TOUT = 'OUI',MATER = MAT), )

#

L_INST=DEFI_LIST_REEL(
                      DEBUT=0.,INTERVALLE=(
                      _F( JUSQU_A = 66.666E0,   NOMBRE = 1),
                      _F( JUSQU_A = 80.000E0,   NOMBRE = 2),
                      _F( JUSQU_A = 90.000E0,   NOMBRE = 2))
         )

#

MOMECA=AFFE_MODELE(  MAILLAGE=MAIL,
                     AFFE=_F( TOUT = 'OUI', MODELISATION = 'C_PLAN', PHENOMENE = 'MECANIQUE'))

#

CHMECA=AFFE_CHAR_MECA(
                     MODELE=MOMECA,DDL_IMPO=(
                     _F( NOEUD = 'N1',     DX = 0.),
                     _F( GROUP_NO = 'GRNO1',  DY = 0.),
                     _F( GROUP_NO = 'GRNO3',  DY = 0.)),)

# -----------------------------------------------------------------------------
# CHAMP DE CONTRAINTES IMPOSEES
# -----------------------------------------------------------------------------
EPS0=CREA_CHAMP(TYPE_CHAM='ELNO_EPSI_R',
                OPERATION='AFFE',
                MODELE=MOMECA,
                AFFE=_F(GROUP_MA='GRSD1',
                        NOM_CMP=('EPXX','EPYY','EPZZ','EPXY'),
                        VALE=(0.,0.,0.,0.),),);

EPS1=CREA_CHAMP(TYPE_CHAM='ELNO_EPSI_R',
                OPERATION='AFFE',
                MODELE=MOMECA,
                AFFE=(
                      _F(GROUP_MA='GRSD1',
                         NOM_CMP=('EPXX','EPYY','EPZZ',),
                         VALE=(6.6666E-4,6.6666E-4,6.6666E-4,)),
                      _F(GROUP_MA='GRSD1',
                         NOM_CMP=('EPXY',),
                         VALE=(0.),),),);

EPS2=CREA_CHAMP(TYPE_CHAM='ELNO_EPSI_R',
                OPERATION='AFFE',
                MODELE=MOMECA,
                AFFE=(
                      _F(GROUP_MA='GRSD1',
                         NOM_CMP=('EPXX','EPYY','EPZZ',),
                         VALE=(7.3333E-4,7.3333E-4,7.3333E-4),),
                      _F(GROUP_MA='GRSD1',
                         NOM_CMP=('EPXY'),
                         VALE=(0.),),),);

EPS3=CREA_CHAMP(TYPE_CHAM='ELNO_EPSI_R',
                OPERATION='AFFE',
                MODELE=MOMECA,
                AFFE=(
                      _F(GROUP_MA='GRSD1',
                         NOM_CMP=('EPXX','EPYY','EPZZ',),
                         VALE=(8.E-4,8.E-4,8.E-4,),),
                      _F(GROUP_MA='GRSD1',
                         NOM_CMP=('EPXY'),
                         VALE=(0.),),),);

EPS4=CREA_CHAMP(TYPE_CHAM='ELNO_EPSI_R',
                OPERATION='AFFE',
                MODELE=MOMECA,
                AFFE=(
                      _F(GROUP_MA='GRSD1',
                         NOM_CMP=('EPXX','EPYY','EPZZ',),
                         VALE=(8.5E-4,8.5E-4,8.5E-4,)),
                      _F(GROUP_MA='GRSD1',
                         NOM_CMP=('EPXY'),
                         VALE=(0.),),),);

EPS5=CREA_CHAMP(TYPE_CHAM='ELNO_EPSI_R',
                OPERATION='AFFE',
                MODELE=MOMECA,
                AFFE=(
                      _F(GROUP_MA='GRSD1',
                         NOM_CMP=('EPXX','EPYY','EPZZ',),
                         VALE=(9.E-4,9.E-4,9.E-4,),),
                      _F(GROUP_MA='GRSD1',
                         NOM_CMP=('EPXY'),
                         VALE=(0.),),),);

EPSA=CREA_RESU(OPERATION='AFFE',
               TYPE_RESU='EVOL_VARC',
               NOM_CHAM='EPSA_ELNO',
               AFFE=(
                     _F(CHAM_GD=EPS0,  INST=0.,),
                     _F(CHAM_GD=EPS1,  INST=6.6666E+1,),
                     _F(CHAM_GD=EPS2,  INST=7.3333E+1,),
                     _F(CHAM_GD=EPS3,  INST=80.,),
                     _F(CHAM_GD=EPS4,  INST=85.,),
                     _F(CHAM_GD=EPS5,  INST=90,),),);


CTM=AFFE_MATERIAU(MAILLAGE=MAIL,
                  AFFE=_F(TOUT='OUI',
                          MATER=MAT,),
                  AFFE_VARC=(_F(TOUT='OUI',
                                EVOL=EPSA,
                                NOM_VARC='EPSA',
                                NOM_CHAM='EPSA_ELNO',),
                             _F(TOUT='OUI',
                                NOM_VARC='TEMP',
                                VALE_REF=0.),),);

T0=CREA_CHAMP( OPERATION='AFFE', TYPE_CHAM='NOEU_TEMP_R', MAILLAGE=MAIL,
                        AFFE=_F( TOUT = 'OUI', NOM_CMP = 'TEMP',
                              VALE = 0.0)                 )
TIMPVAR=DEFI_FONCTION(
                             NOM_PARA='INST',  NOM_RESU='TEMP',
                             VALE=(  0.E0,   0.E0,
                                  100.E0, 100.E0,))
MOTHER=AFFE_MODELE(  MAILLAGE=MAIL,
         AFFE=_F( TOUT = 'OUI', MODELISATION = 'PLAN', PHENOMENE = 'THERMIQUE'))

#CHTHER=AFFE_CHAR_THER_F(    MODELE=MOTHER,TEMP_IMPO=(
#                            _F( GROUP_NO = 'GRNOTOUT',  TEMP = TIMPVAR),),)


CHTHER=AFFE_CHAR_THER_F(    MODELE=MOTHER,TEMP_IMPO=(
                            _F( GROUP_NO = 'GRNO1',  TEMP = TIMPVAR),
                            _F( GROUP_NO = 'GRNO2',  TEMP = TIMPVAR),
                            _F( GROUP_NO = 'GRNO3',  TEMP = TIMPVAR),
                            _F( GROUP_NO = 'GRNO4',  TEMP = TIMPVAR))
                          )



TEMPE=THER_LINEAIRE(  MODELE=MOTHER,   CHAM_MATER=CM,
                   EXCIT=_F( CHARGE = CHTHER),
                   ETAT_INIT=_F( CHAM_NO = T0),
                   INCREMENT=_F( LIST_INST = L_INST)
                        )
CTM2=AFFE_MATERIAU(
          MAILLAGE=MAIL,
          AFFE=_F( TOUT = 'OUI',MATER = MAT,),
          AFFE_VARC=_F( TOUT='OUI',
                        EVOL=TEMPE,
                        NOM_VARC='TEMP',
                        NOM_CHAM='TEMP',
                        VALE_REF=0.),)

# -----------------------------------------------------------------------------
# RESOLUTION
# -----------------------------------------------------------------------------

U=STAT_NON_LINE(MODELE=MOMECA,
                CHAM_MATER=CTM,
                EXCIT=_F(CHARGE=CHMECA,),
                COMPORTEMENT=_F(RELATION='VMIS_ISOT_TRAC',),
                INCREMENT=_F(LIST_INST=L_INST,),
                NEWTON=_F(MATRICE='TANGENTE',
                          REAC_ITER=1,),
                CONVERGENCE=_F(RESI_GLOB_RELA=1.E-5,
                               ITER_GLOB_MAXI=10,),);

U2=STAT_NON_LINE(
                MODELE=MOMECA,
                CHAM_MATER=CTM2,
                EXCIT=_F(
                CHARGE = CHMECA),
                         COMPORTEMENT=_F(
                RELATION = 'VMIS_ISOT_TRAC'),
                            NEWTON=_F(
                MATRICE = 'TANGENTE',
                REAC_ITER = 1),
                         INCREMENT=_F(
                LIST_INST = L_INST),
                       CONVERGENCE=_F(
                RESI_GLOB_RELA = 1.E-5,
                ITER_GLOB_MAXI = 10)
              )

IMPR_RESU(RESU=_F(RESULTAT=U))
IMPR_RESU(RESU=_F(RESULTAT=U2))
# -----------------------------------------------------------------------------
# TESTS
# -----------------------------------------------------------------------------

#  TESTS DES CONTRAINTES/DEFORMATIONS

U=CALC_CHAMP(reuse=U,RESULTAT=U,CONTRAINTE=('SIGM_ELNO'))


#
TEST_RESU(RESU=(_F(NUME_ORDRE=1,
                   REFERENCE='ANALYTIQUE',
                   RESULTAT=U,
                   NOM_CHAM='SIGM_ELNO',
                   NOEUD='N1',
                   NOM_CMP='SIYY',
                   VALE_CALC=-100.666685576,
                   VALE_REFE=-100.66668557592,
                   MAILLE='M1',),
                _F(NUME_ORDRE=3,
                   REFERENCE='ANALYTIQUE',
                   RESULTAT=U,
                   NOM_CHAM='SIGM_ELNO',
                   NOEUD='N2',
                   NOM_CMP='SIYY',
                   VALE_CALC=-101.200004414,
                   VALE_REFE=-101.20000441373,
                   MAILLE='M1',),
                _F(NUME_ORDRE=5,
                   REFERENCE='ANALYTIQUE',
                   RESULTAT=U,
                   NOM_CHAM='SIGM_ELNO',
                   NOEUD='N3',
                   NOM_CMP='SIYY',
                   VALE_CALC=-101.600001847,
                   VALE_REFE=-101.60000184665,
                   MAILLE='M1',),
                _F(NUME_ORDRE=5,
                   REFERENCE='ANALYTIQUE',
                   RESULTAT=U,
                   NOM_CHAM='SIGM_ELNO',
                   NOEUD='N3',
                   NOM_CMP='SIZZ',
                   VALE_CALC=-2.36619756E-14,
                   VALE_REFE=0.0,
                   CRITERE='ABSOLU',
                   PRECISION=9.9999999999999995E-07,
                   MAILLE='M1',),
                ),
          )

#  TESTS DES ENERGIES

U=CALC_CHAMP(reuse=U,RESULTAT=U,ENERGIE=('ETOT_ELGA','ENEL_ELGA'))


TEST_RESU(RESU=_F(NUME_ORDRE=1,
                  REFERENCE='ANALYTIQUE',
                  POINT=1,
                  RESULTAT=U,
                  NOM_CHAM='ENEL_ELGA',
                  NOM_CMP='TOTALE',
                  VALE_CALC=0.025334453,
                  VALE_REFE=0.025334453380157999,
                  MAILLE='M1',),
          )

U=CALC_CHAMP(reuse=U,DEFORMATION=('EPSP_ELGA'),RESULTAT=U)

#

TEST_RESU(RESU=(_F(NUME_ORDRE=5,
                   POINT=1,
                   RESULTAT=U,
                   NOM_CHAM='EPSP_ELGA',
                   NOM_CMP='EPXX',
                   VALE_CALC=1.9599999999999999E-4,
                   CRITERE='RELATIF',
                   MAILLE='M1',),
                _F(NUME_ORDRE=5,
                   POINT=1,
                   RESULTAT=U,
                   NOM_CHAM='EPSP_ELGA',
                   NOM_CMP='EPYY',
                   VALE_CALC=-3.9199999999999999E-4,
                   CRITERE='RELATIF',
                   MAILLE='M1',),
                ),
          )

#
U=CALC_CHAMP(reuse=U,DEFORMATION=('EPSP_ELNO'),RESULTAT=U)

#
TEST_RESU(RESU=(_F(NUME_ORDRE=5,
                   RESULTAT=U,
                   NOM_CHAM='EPSP_ELNO',
                   NOEUD='N1',
                   NOM_CMP='EPXX',
                   VALE_CALC=1.9599999061299E-4,

                   CRITERE='RELATIF',
                   MAILLE='M1',),
                _F(NUME_ORDRE=5,
                   RESULTAT=U,
                   NOM_CHAM='EPSP_ELNO',
                   NOEUD='N1',
                   NOM_CMP='EPYY',
                   VALE_CALC=-3.9199999081423E-4,

                   CRITERE='RELATIF',
                   MAILLE='M1',),
                ),
          )

IND_ENER=POST_ELEM(  RESULTAT=U,
                     NUME_ORDRE= 5,
                     INDIC_ENER=_F(TOUT = 'OUI'));

IND_SEUI=POST_ELEM(    RESULTAT=U,
                       NUME_ORDRE= 5,
                       INDIC_SEUIL=_F(TOUT = 'OUI'));
#
TEST_TABLE(CRITERE='RELATIF',
           REFERENCE='ANALYTIQUE',
           VALE_CALC= 0.00000000E+00,
           VALE_REFE=0.0,
           NOM_PARA='INDIC_ENER',
           TABLE=IND_ENER,)

#
TEST_TABLE(CRITERE='RELATIF',
           REFERENCE='ANALYTIQUE',
           VALE_CALC= 0.00000000E+00,
           VALE_REFE=0.0,
           NOM_PARA='INDIC_SEUIL',
           TABLE=IND_SEUI,)

#
T_TOT=POST_ELEM(ENER_TOTALE=_F(TOUT='OUI',),
                RESULTAT=U,);
#
IMPR_TABLE(TABLE=T_TOT);
#
TEST_TABLE(REFERENCE='ANALYTIQUE',
           VALE_CALC=0.166886175,
           VALE_REFE=0.16688617514241,
           NOM_PARA='TOTALE',
           TABLE=T_TOT,
           FILTRE=_F(NOM_PARA='NUME_ORDRE',
                     VALE_I=1,),
           )

##############################################################################
#  TESTS DES CONTRAINTES/DEFORMATIONS
U2=CALC_CHAMP(reuse=U2,RESULTAT=U2,CONTRAINTE=('SIGM_ELNO'))

#
TEST_RESU(RESU=(_F(NUME_ORDRE=1,
                   REFERENCE='ANALYTIQUE',
                   RESULTAT=U2,
                   NOM_CHAM='SIGM_ELNO',
                   NOEUD='N1',
                   NOM_CMP='SIYY',
                   VALE_CALC=-100.666685576,
                   VALE_REFE=-100.66668557592,
                   MAILLE='M1',),
                _F(NUME_ORDRE=3,
                   REFERENCE='ANALYTIQUE',
                   RESULTAT=U2,
                   NOM_CHAM='SIGM_ELNO',
                   NOEUD='N2',
                   NOM_CMP='SIYY',
                   VALE_CALC=-101.200004414,
                   VALE_REFE=-101.20000441373,
                   MAILLE='M1',),
                _F(NUME_ORDRE=5,
                   REFERENCE='ANALYTIQUE',
                   RESULTAT=U2,
                   NOM_CHAM='SIGM_ELNO',
                   NOEUD='N3',
                   NOM_CMP='SIYY',
                   VALE_CALC=-101.600001847,
                   VALE_REFE=-101.60000184665,
                   MAILLE='M1',),
                _F(NUME_ORDRE=5,
                   REFERENCE='ANALYTIQUE',
                   RESULTAT=U2,
                   NOM_CHAM='SIGM_ELNO',
                   NOEUD='N3',
                   NOM_CMP='SIZZ',
                   VALE_CALC= 4.78340980E-14,
                   VALE_REFE=0.0,
                   CRITERE='ABSOLU',
                   PRECISION=9.9999999999999995E-07,
                   MAILLE='M1',),
                ),
          )

#  TESTS DES ENERGIES

U2=CALC_CHAMP(reuse=U2,RESULTAT=U2,ENERGIE=('ETOT_ELGA','ENEL_ELGA'))

#
TEST_RESU(RESU=_F(NUME_ORDRE=1,
                  REFERENCE='ANALYTIQUE',
                  POINT=1,
                  RESULTAT=U2,
                  NOM_CHAM='ENEL_ELGA',
                  NOM_CMP='TOTALE',
                  VALE_CALC=0.025334453,
                  VALE_REFE=0.025334453380157999,
                  MAILLE='M1',),
          )

#
U2=CALC_CHAMP(reuse=U2,DEFORMATION=('EPSP_ELGA'),RESULTAT=U2)

#
TEST_RESU(RESU=(_F(NUME_ORDRE=5,
                   POINT=1,
                   RESULTAT=U2,
                   NOM_CHAM='EPSP_ELGA',
                   NOM_CMP='EPXX',
                   VALE_CALC=1.9599999999999999E-4,
                   CRITERE='RELATIF',
                   MAILLE='M1',),
                _F(NUME_ORDRE=5,
                   POINT=1,
                   RESULTAT=U2,
                   NOM_CHAM='EPSP_ELGA',
                   NOM_CMP='EPYY',
                   VALE_CALC=-3.9199999999999999E-4,
                   CRITERE='RELATIF',
                   MAILLE='M1',),
                ),
          )

#
U2=CALC_CHAMP(reuse=U2,DEFORMATION=('EPSP_ELNO'),RESULTAT=U2)

#
TEST_RESU(RESU=(_F(NUME_ORDRE=5,
                   RESULTAT=U2,
                   NOM_CHAM='EPSP_ELNO',
                   NOEUD='N1',
                   NOM_CMP='EPXX',
                   VALE_CALC=1.9599999061299E-4,

                   CRITERE='RELATIF',
                   MAILLE='M1',),
                _F(NUME_ORDRE=5,
                   RESULTAT=U2,
                   NOM_CHAM='EPSP_ELNO',
                   NOEUD='N1',
                   NOM_CMP='EPYY',
                   VALE_CALC=-3.9199999081423E-4,

                   CRITERE='RELATIF',
                   MAILLE='M1',),
                ),
          )

IND_ENE2=POST_ELEM(  RESULTAT=U2,
                     NUME_ORDRE= 5,
                     INDIC_ENER=_F(TOUT = 'OUI'))
#
IND_SEU2=POST_ELEM(    RESULTAT=U2,
                       NUME_ORDRE= 5,
                       INDIC_SEUIL=_F(TOUT = 'OUI'))
#
TEST_TABLE(CRITERE='RELATIF',
           REFERENCE='ANALYTIQUE',
           VALE_CALC= 0.00000000E+00,
           VALE_REFE=0.0,
           NOM_PARA='INDIC_ENER',
           TABLE=IND_ENE2,)

#
TEST_TABLE(CRITERE='RELATIF',
           REFERENCE='ANALYTIQUE',
           VALE_CALC= 0.00000000E+00,
           VALE_REFE=0.0,
           NOM_PARA='INDIC_SEUIL',
           TABLE=IND_SEU2,)

#
T_TOT2=POST_ELEM(ENER_TOTALE=_F(TOUT='OUI',),
                RESULTAT=U2,);
#
IMPR_TABLE(TABLE=T_TOT2);
#
TEST_TABLE(REFERENCE='ANALYTIQUE',
           VALE_CALC=0.166886175,
           VALE_REFE=0.16688617514241,
           NOM_PARA='TOTALE',
           TABLE=T_TOT2,
           FILTRE=_F(NOM_PARA='NUME_ORDRE',
                     VALE_I=1,),
           )

FIN()
