# TITRE TRACTION THERMIQUE PLASTIQUE GRANDES DEFORMATIONS COQUES 3D
# ======================================================================
# COPYRIGHT (C) 1991 - 2013  EDF R&D                  WWW.CODE-ASTER.ORG
# THIS PROGRAM IS FREE SOFTWARE; YOU CAN REDISTRIBUTE IT AND/OR MODIFY
# IT UNDER THE TERMS OF THE GNU GENERAL PUBLIC LICENSE AS PUBLISHED BY
# THE FREE SOFTWARE FOUNDATION; EITHER VERSION 2 OF THE LICENSE, OR
# (AT YOUR OPTION) ANY LATER VERSION.
#
# THIS PROGRAM IS DISTRIBUTED IN THE HOPE THAT IT WILL BE USEFUL, BUT
# WITHOUT ANY WARRANTY; WITHOUT EVEN THE IMPLIED WARRANTY OF
# MERCHANTABILITY OR FITNESS FOR A PARTICULAR PURPOSE. SEE THE GNU
# GENERAL PUBLIC LICENSE FOR MORE DETAILS.
#
# YOU SHOULD HAVE RECEIVED A COPY OF THE GNU GENERAL PUBLIC LICENSE
# ALONG WITH THIS PROGRAM; IF NOT, WRITE TO EDF R&D CODE_ASTER,
#    1 AVENUE DU GENERAL DE GAULLE, 92141 CLAMART CEDEX, FRANCE.
# ======================================================================


DEBUT(CODE=_F(NIV_PUB_WEB='INTERNET'),DEBUG=_F(SDVERI='OUI'))

MA=LIRE_MAILLAGE()

MA=DEFI_GROUP( reuse=MA,   MAILLAGE=MA,
   CREA_GROUP_MA=_F(  NOM = 'TOUT', TOUT = 'OUI'))

MO=AFFE_MODELE(
               MAILLAGE=MA,
                  
               AFFE=_F(
               TOUT = 'OUI',
               PHENOMENE = 'MECANIQUE',
               MODELISATION = 'COQUE_3D')
             )

CARAC=AFFE_CARA_ELEM(   MODELE=MO,
                           COQUE=_F(   GROUP_MA = 'TOUT',  EPAIS = 1000.,COQUE_NCOU=9,
                                       A_CIS = 0.83333333333333)
                          )

COU_T20=DEFI_FONCTION(
               NOM_PARA='EPSI',
               PROL_DROITE='LINEAIRE',
               VALE=(
               0.010,    1000.,
               1.010,    3500.,
               )
             )

COU_T120=DEFI_FONCTION(
               NOM_PARA='EPSI',
               PROL_DROITE='LINEAIRE',
               VALE=(
               0.005,    1000.,
               1.005,    3000.,
               )
             )

COU_TRAC=DEFI_NAPPE(

              NOM_PARA='TEMP',
                  PARA=(20.,120.,),
              FONCTION=(COU_T20,COU_T120,),
              PROL_GAUCHE='CONSTANT',
               PROL_DROITE='CONSTANT'
             )

ACIER_T=DEFI_MATERIAU(
                   ELAS=_F(
               E = 200000.,
               NU = 0.3,
               ALPHA = 1.E-4),
              TRACTION=_F(  SIGM = COU_TRAC)
             )


L_INST=DEFI_LIST_REEL(
              DEBUT=0.0,INTERVALLE=(

               _F(  JUSQU_A = 1.00, NOMBRE = 1),
               _F(  JUSQU_A = 2.00, NOMBRE = 20))
             )

F_CHAR=DEFI_FONCTION(
                NOM_PARA='INST',
              PROL_DROITE='CONSTANT',
                    VALE=(
               0.,   0.,
               1.,   0.,
               2.,   293.3,
               )
             )

F_TEMP=DEFI_FONCTION(
                NOM_PARA='INST',
                NOM_RESU='TEMP',
              PROL_DROITE='CONSTANT',
                    VALE=(
               0.,    20.,
               1.,   120.,
               2.,   120.,
               )
             )

CHP_TEMP=CREA_CHAMP(OPERATION='AFFE', TYPE_CHAM='NOEU_TEMP_F',
               MAILLAGE=MA,AFFE=(

                   _F(
               TOUT = 'OUI',
               NOM_CMP = 'TEMP_INF',
               VALE_F = F_TEMP),
                   _F(
               TOUT = 'OUI',
               NOM_CMP = 'TEMP_MIL',
               VALE_F = F_TEMP),
                   _F(
               TOUT = 'OUI',
               NOM_CMP = 'TEMP_SUP',
               VALE_F = F_TEMP))
             )

TEMP=CREA_RESU(
               OPERATION='AFFE', TYPE_RESU='EVOL_THER',
                NOM_CHAM='TEMP',
                 AFFE=_F(
               LIST_INST = L_INST,
               CHAM_GD = CHP_TEMP)
             )

TEMPER=CREA_RESU(  OPERATION='PREP_VRC2', TYPE_RESU='EVOL_THER',
    PREP_VRC2= _F(  MODELE=MO, CARA_ELEM=CARAC, EVOL_THER = TEMP, ),)


CHP_MATT=AFFE_MATERIAU(
               MAILLAGE=MA,
                   AFFE=_F(
               TOUT = 'OUI',
               MATER = ACIER_T,
               ),
               AFFE_VARC=_F(TOUT='OUI',EVOL=TEMPER,
               NOM_VARC='TEMP',NOM_CHAM='TEMP',VALE_REF=20.0),)


CHR_LIAI=AFFE_CHAR_MECA(
              MODELE=MO,DDL_IMPO=(

               _F( NOEUD = 'NO2',  DX = 0.,  DY = 0.,  DZ = 0.,
                             DRX = 0., DRY = 0.,  DRZ = 0.),
               _F( NOEUD = 'NO1',  DX = 0.,          DZ = 0.),
               _F( NOEUD = 'NO5',  DX = 0.,          DZ = 0.))
             )

CHR_TRAC=AFFE_CHAR_MECA(
                     MODELE=MO,
                  FACE_IMPO=_F( MAILLE = 'MA2',  DX = 1.)
             )

VT=STAT_NON_LINE(
                            MODELE=MO,
                         CARA_ELEM=CARAC,
                        CHAM_MATER=CHP_MATT,EXCIT=(
                             _F(
                CHARGE = CHR_LIAI), ),
                         COMPORTEMENT=_F(
                RELATION = 'VMIS_ISOT_TRAC',
                DEFORMATION = 'PETIT_REAC'),
                         INCREMENT=_F(
                LIST_INST = L_INST,
                NUME_INST_FIN = 1),
                            NEWTON=_F(
                MATRICE = 'ELASTIQUE',
                REAC_ITER = 1),
                       CONVERGENCE=_F(
                RESI_GLOB_MAXI = 1.E-1,
                ITER_GLOB_MAXI = 50),
                     RECH_LINEAIRE=_F(
                ITER_LINE_MAXI = 3)
              )

VT=STAT_NON_LINE( reuse=VT,
                         ETAT_INIT=_F(
                EVOL_NOLI = VT,
                NUME_ORDRE = 1),
                            MODELE=MO,
                        CHAM_MATER=CHP_MATT,
                         CARA_ELEM=CARAC,EXCIT=(
                             _F(
                CHARGE = CHR_LIAI), _F(
                CHARGE = CHR_TRAC,
                FONC_MULT = F_CHAR,
                TYPE_CHARGE = 'DIDI')),
                         COMPORTEMENT=_F(
                RELATION = 'VMIS_ISOT_TRAC',
                DEFORMATION = 'PETIT_REAC'),
                         INCREMENT=_F(
                LIST_INST = L_INST),
                            NEWTON=_F(
                MATRICE = 'TANGENTE',
                REAC_ITER = 10),
                     RECH_LINEAIRE=_F(
                ITER_LINE_MAXI = 3),
                       CONVERGENCE=_F(
                RESI_GLOB_RELA = 1.E-06,
                ITER_GLOB_MAXI = 50)
              )

# TOLE_MACHINE pourquoi ?
TEST_RESU(RESU=(_F(INST=2.0,
                   RESULTAT=VT,
                   NOM_CHAM='DEPL',
                   NOEUD='NO4',
                   NOM_CMP='DX',
                   VALE_CALC=303.401010101,
                   VALE_REFE=303.0,
                   REFERENCE='ANALYTIQUE',
                   PRECISION=1.E-2,
                   TOLE_MACHINE=(1.E-2, 1.E-4),),
                _F(INST=2.0,
                   RESULTAT=VT,
                   NOM_CHAM='DEPL',
                   NOEUD='NO4',
                   NOM_CMP='DY',
                   VALE_CALC=-108.657237142,
                   VALE_REFE=-110.0,
                   REFERENCE='ANALYTIQUE',
                   PRECISION=0.014999999999999999,
                   TOLE_MACHINE=(0.014999999999999999, 1.E-4),),
                _F(INST=2.0,
                   POINT=1,
                   SOUS_POINT=1,
                   RESULTAT=VT,
                   NOM_CHAM='SIEF_ELGA',
                   NOM_CMP='SIXX',
                   VALE_CALC=1498.15194571,
                   VALE_REFE=1453.0,
                   REFERENCE='ANALYTIQUE',
                   PRECISION=0.032, TOLE_MACHINE=(0.031, 1.E-4),
                   MAILLE='MA1',),
                _F(INST=2.0,
                   POINT=1,
                   SOUS_POINT=1,
                   RESULTAT=VT,
                   NOM_CHAM='VARI_ELGA',
                   NOM_CMP='V1',
                   VALE_CALC=0.246274963801,
                   VALE_REFE=0.2475,
                   REFERENCE='ANALYTIQUE',
                   PRECISION=0.014999999999999999,
                   TOLE_MACHINE=(0.014999999999999999, 1.E-4),
                   MAILLE='MA1',),
                ),
          )

FIN()
#
