# TITRE ESSAI DE TRACTION-CISAILLEMENT (MISES ECROUISSAGE ISOTROPE)
# ======================================================================
# COPYRIGHT (C) 1991 - 2012  EDF R&D                  WWW.CODE-ASTER.ORG
# THIS PROGRAM IS FREE SOFTWARE; YOU CAN REDISTRIBUTE IT AND/OR MODIFY
# IT UNDER THE TERMS OF THE GNU GENERAL PUBLIC LICENSE AS PUBLISHED BY
# THE FREE SOFTWARE FOUNDATION; EITHER VERSION 2 OF THE LICENSE, OR
# (AT YOUR OPTION) ANY LATER VERSION.
#
# THIS PROGRAM IS DISTRIBUTED IN THE HOPE THAT IT WILL BE USEFUL, BUT
# WITHOUT ANY WARRANTY; WITHOUT EVEN THE IMPLIED WARRANTY OF
# MERCHANTABILITY OR FITNESS FOR A PARTICULAR PURPOSE. SEE THE GNU
# GENERAL PUBLIC LICENSE FOR MORE DETAILS.
#
# YOU SHOULD HAVE RECEIVED A COPY OF THE GNU GENERAL PUBLIC LICENSE
# ALONG WITH THIS PROGRAM; IF NOT, WRITE TO EDF R&D CODE_ASTER,
#    1 AVENUE DU GENERAL DE GAULLE, 92141 CLAMART CEDEX, FRANCE.
# ======================================================================
# ======================================================================

DEBUT(CODE=_F(NIV_PUB_WEB='INTERNET'), DEBUG=_F(SDVERI='OUI'))

#......................................................................
# PLAQUE CARREE EN TRACTION CISAILLEMENT CALCUL 3D
# ELASTO-VISCOPLASTICITE  ISOTROPE VON MISES
# AVEC METALLURGIE
#......................................................................

MA=LIRE_MAILLAGE( )

TRCMNDA=DEFI_TRC(HIST_EXP=(

 _F( VALE = (
-1.106E+03,  1.100E+01,  8.563E+00, -2.760E-02,
 1.220E-04, -2.955E-07,  3.402E-10, -1.517E-13,
 0.000E+00,  0.000E+00,  0.000E+00,  8.360E+02,
 0.000E+00,  0.000E+00,  0.000E+00,  6.001E+02,
 0.000E+00,  0.000E+00,  1.000E+00,  3.450E+02,
      )),
 _F( VALE = (
-2.206E+03,  1.100E+01,  8.563E+00, -2.760E-02,
 1.220E-04, -2.955E-07,  3.402E-10, -1.517E-13,
 0.000E+00,  0.000E+00,  0.000E+00,  8.360E+02,
 0.000E+00,  0.000E+00,  0.000E+00,  6.001E+02,
 0.000E+00,  0.000E+00,  1.000E+00,  3.450E+02,
      ))),
   TEMP_MS=_F(
    SEUIL = 4.500E-01,
    AKM = -3.125E+01,
    BKM = 1.406E+01,
    TPLM = -3.497E+03)
   )

ACIER=DEFI_MATERIAU(         THER=_F(  RHO_CP = 2000000.0, LAMBDA = 9999.9),
                           META_ACIER=_F(  TRC = TRCMNDA,    AR3 = 830.0,
                                       ALPHA = -0.0300,    MS0 = 200.0,
                                       AC1 = 724.0,     AC3 = 846.0,
                                       TAUX_1 = 0.34,     TAUX_3 = 0.34)
                       )

CHMAT=AFFE_MATERIAU(    MAILLAGE=MA,
                               AFFE=_F(  TOUT = 'OUI', MATER = ACIER)
                       )

MOTH=AFFE_MODELE(    MAILLAGE=MA,
                             AFFE=_F(  TOUT = 'OUI',
                                    MODELISATION = '3D',
                                    PHENOMENE = 'THERMIQUE')
                     )

TIMPO=DEFI_CONSTANTE(
                                  VALE=700.
                       )

CHTH=AFFE_CHAR_THER_F(       MODELE=MOTH,
                              TEMP_IMPO=_F( TOUT = 'OUI',
                                         TEMP = TIMPO)
                       )

LR8=DEFI_LIST_REEL(   DEBUT=0.,
                          INTERVALLE=(
                           _F(  JUSQU_A = 10.0,  NOMBRE = 20),
                           _F(  JUSQU_A = 60.0,  NOMBRE = 25)
                                      )
                       )

PHASINIT=CREA_CHAMP(OPERATION='AFFE', TYPE_CHAM='CART_VAR2_R',
                  MAILLAGE=MA,
                  AFFE=_F(  TOUT = 'OUI',
                NOM_CMP = ('V1', 'V2', 'V3', 'V4', 'V5',),

                VALE = ( 0.0, 0.0, 0.0, 0.0, 20., ))
                        )

TEMPE=THER_LINEAIRE(        MODELE=MOTH,
                           CHAM_MATER=CHMAT,
                           PARM_THETA=0.57,
                                EXCIT=_F(  CHARGE = CHTH),
                            INCREMENT=_F(  LIST_INST = LR8),
                            ETAT_INIT=_F(  VALE = 700.)
                    )

TEMPE=CALC_META(reuse=TEMPE,
                RESULTAT=TEMPE,
                ETAT_INIT=_F(META_INIT_ELNO=PHASINIT),
                COMPORTEMENT=_F(RELATION='ACIER',
                             TOUT='OUI'),
                OPTION='META_ELNO',);

MO=AFFE_MODELE(

               MAILLAGE=MA,
                 

                AFFE=_F(
                TOUT = 'OUI',
                PHENOMENE = 'MECANIQUE',
                MODELISATION = '3D')
              )

FBM1=DEFI_FONCTION(      NOM_PARA='EPSI',
                            PROL_DROITE='LINEAIRE',
                           PROL_GAUCHE='CONSTANT',
                                 VALE=(
     5.00000E-04  ,  13.1681 ,
     1.00000E-03  ,  25.6939 ,
     1.50000E-03  ,  37.6088 ,
     2.00000E-03  ,  48.9427 ,
     2.50000E-03  ,  59.7238 ,
     3.00000E-03  ,  69.9791 ,
     3.50000E-03  ,  79.734 ,
     4.00000E-03  ,  89.014 ,
     4.50000E-03  ,  97.840 ,
     5.00000E-03  ,  106.237 ,
     5.50000E-03  ,  114.224 ,
     6.00000E-03  ,  121.821 ,
     6.50000E-03  ,  129.048 ,
     7.00000E-03  ,  135.922 ,
     7.50000E-03  ,  142.461 ,
     8.00000E-03  ,  148.681 ,
     8.50000E-03  ,  154.598 ,
     9.00000E-03  ,  160.226 ,
     9.50000E-03  ,  165.580 ,
     1.00000E-02  ,  170.673 ,
# ... 30 like lines cut
                                       ))


FBM2=DEFI_CONSTANTE(
                         VALE=30.
                       )

AUS2=DEFI_CONSTANTE(
                         VALE=30.
                       )

ALP1=DEFI_FONCTION(      NOM_PARA='TEMP',
                            PROL_DROITE='CONSTANT',
                           PROL_GAUCHE='CONSTANT',
                                 VALE=( 0., 15.E-6,  900., 15.E-6, ))

ALP2=DEFI_FONCTION(      NOM_PARA='TEMP',
                            PROL_DROITE='CONSTANT',
                           PROL_GAUCHE='CONSTANT',
                                 VALE=( 0., 23.5E-6,  900., 23.5E-6, ))

VISCO1=DEFI_CONSTANTE(
                           VALE=600.
                       )

VISCO2=DEFI_CONSTANTE(
                           VALE=3.5
                       )

VISCO3=DEFI_CONSTANTE(
                           VALE=0.
                       )

VISCO4=DEFI_CONSTANTE(
                           VALE=20.
                       )

FMEL=DEFI_FONCTION(      NOM_PARA='META',
                          PROL_DROITE='CONSTANT',
                         PROL_GAUCHE='CONSTANT',
                               VALE=( 0.,  0.,   1., 1., ))

YOUNG=DEFI_CONSTANTE( VALE=195000.)

NU=DEFI_CONSTANTE( VALE=0.3)

ACIER2=DEFI_MATERIAU(
             ELAS_META_FO=_F( E = YOUNG,
                      NU = NU,
                      F_ALPHA = ALP1,
                      C_ALPHA = ALP2,
                      TEMP_DEF_ALPHA=700.0,
               PHASE_REFE = 'CHAUD',
               EPSF_EPSC_TREF = 2.52E-3,
               F1_S_VP = FBM2,
               F2_S_VP = FBM2,
               F3_S_VP = FBM2,
               F4_S_VP = FBM2,
               C_S_VP = AUS2,

               S_VP_MELANGE = FMEL),
             META_TRACTION=_F(
                        SIGM_F1 = FBM1,
                        SIGM_F2 = FBM1,
                        SIGM_F3 = FBM1,
 SIGM_F4 = FBM1,
                        SIGM_C = FBM1),
           META_VISC_FO=_F( F1_ETA = VISCO1,
                  F2_ETA = VISCO1,
  F3_ETA = VISCO1,
  F4_ETA = VISCO1,
  C_ETA = VISCO1,
                            F1_N = VISCO2,
     F2_N = VISCO2,
     F3_N = VISCO2,
     F4_N = VISCO2,
     C_N = VISCO2,
                            F1_C = VISCO3,
     F2_C = VISCO3,
     F3_C = VISCO3,
     F4_C = VISCO3,
     C_C = VISCO3,
                            F1_M = VISCO4,
     F2_M = VISCO4,
     F3_M = VISCO4,
     F4_M = VISCO4,
     C_M = VISCO4)
           )

CM=AFFE_MATERIAU(

               MAILLAGE=MA,

                AFFE=_F(
                TOUT = 'OUI',
                MATER = ACIER2,),
                AFFE_VARC=(_F(TOUT='OUI',
                             EVOL=TEMPE,
                             NOM_VARC='M_ACIER',
                             NOM_CHAM='META_ELNO'),
                           _F(TOUT='OUI',
                             EVOL=TEMPE,
                             NOM_VARC='TEMP',
                             NOM_CHAM='TEMP',VALE_REF=700),)
              )

SIGMA_F=DEFI_FONCTION(

                 NOM_PARA='INST',
               PROL_DROITE='EXCLU',
              PROL_GAUCHE='EXCLU',

                VALE=(
                0.0,    0.0,
                10.,    242.0,
                60.,    242.0,
                )
              )

TAU_F=DEFI_FONCTION(

                 NOM_PARA='INST',
               PROL_DROITE='EXCLU',
              PROL_GAUCHE='EXCLU',

                VALE=(
                0.0,    0.0,
                10.,    146.0,
                60.,    146.0,
                )
              )

TRACTION=AFFE_CHAR_MECA(

                      MODELE=MO,

                FORCE_FACE=_F(
                MAILLE = 'GAUCHE',
                FX = -1.)
              )

CISAIL=AFFE_CHAR_MECA(

                      MODELE=MO,FORCE_FACE=(

                _F( MAILLE = 'GAUCHE',          FY = -1.),
                _F( MAILLE = 'DROITE',          FY = 1.),
                _F( MAILLE = 'HAUT',    FX = 1.),
                _F( MAILLE = 'BAS',     FX = -1.))
              )

LIAISON=AFFE_CHAR_MECA(

               MODELE=MO,DDL_IMPO=(

                _F( NOEUD = 'NO4',     DX = 0.,  DY = 0.),
                _F( NOEUD = 'NO8',     DX = 0.,  DY = 0.,  DZ = 0.),
                _F( NOEUD = 'NO2',     DX = 0.),
                _F( NOEUD = 'NO6',     DX = 0.))
              )

L_INST=DEFI_LIST_REEL(   DEBUT=0.,
                          INTERVALLE=(
                           _F(  JUSQU_A = 10.0,  NOMBRE = 20),
                           _F(  JUSQU_A = 60.0,  NOMBRE = 25)
                                      )
                       )


U=STAT_NON_LINE(
                            MODELE=MO,
                        CHAM_MATER=CM,EXCIT=(
                             _F(
                CHARGE = LIAISON), _F(
                CHARGE = TRACTION,
                FONC_MULT = SIGMA_F), _F(
                CHARGE = CISAIL,
                FONC_MULT = TAU_F)),
                         COMPORTEMENT=_F(
                RELATION = 'META_V_INL',
                RELATION_KIT = ('ACIER',)),
                         INCREMENT=_F(
                LIST_INST = L_INST),
                            NEWTON=_F(
                MATRICE = 'TANGENTE',
                REAC_ITER = 1),
                       CONVERGENCE=_F(
                RESI_GLOB_MAXI = 1.E-6,
                ITER_GLOB_MAXI = 50),
                     RECH_LINEAIRE=_F(
                ITER_LINE_MAXI = 5)
              )

U=CALC_CHAMP(reuse=U,CONTRAINTE=('SIGM_ELNO'),VARI_INTERNE=('VARI_ELNO'),RESULTAT=U)


U=CALC_CHAMP(reuse=U,RESULTAT=U,DEFORMATION=('EPSI_ELNO'))


TEST_RESU(RESU=(_F(INST=10.0,
                   REFERENCE='AUTRE_ASTER',
                   POINT=1,
                   RESULTAT=U,
                   NOM_CHAM='EPSI_ELNO',
                   NOM_CMP='EPXX',
                   VALE_CALC=0.010683827,
                   VALE_REFE=0.0106503,
                   PRECISION=5.0000000000000001E-3,
                   MAILLE='CUBE',),
                _F(INST=10.0,
                   REFERENCE='AUTRE_ASTER',
                   POINT=1,
                   RESULTAT=U,
                   NOM_CHAM='EPSI_ELNO',
                   NOM_CMP='EPXY',
                   VALE_CALC= 9.51867808E-03,
                   VALE_REFE=9.4883999999999993E-3,
                   PRECISION=5.0000000000000001E-3,
                   MAILLE='CUBE',),
                _F(INST=60.0,
                   REFERENCE='AUTRE_ASTER',
                   POINT=1,
                   RESULTAT=U,
                   NOM_CHAM='EPSI_ELNO',
                   NOM_CMP='EPXX',
                   VALE_CALC=0.027678509,
                   VALE_REFE=0.027626000000000001,
                   PRECISION=5.0000000000000001E-3,
                   MAILLE='CUBE',),
                _F(INST=60.0,
                   REFERENCE='AUTRE_ASTER',
                   POINT=1,
                   RESULTAT=U,
                   NOM_CHAM='EPSI_ELNO',
                   NOM_CMP='EPXY',
                   VALE_CALC=0.024898163,
                   VALE_REFE=0.024851000000000002,
                   PRECISION=5.0000000000000001E-3,
                   MAILLE='CUBE',),
                ),
          )

FIN()
#
#
