# TITRE TUBE SOUS PRESSION A TEMPERATURE CONSTANTE
# ======================================================================
# COPYRIGHT (C) 1991 - 2012  EDF R&D                  WWW.CODE-ASTER.ORG
# THIS PROGRAM IS FREE SOFTWARE; YOU CAN REDISTRIBUTE IT AND/OR MODIFY
# IT UNDER THE TERMS OF THE GNU GENERAL PUBLIC LICENSE AS PUBLISHED BY
# THE FREE SOFTWARE FOUNDATION; EITHER VERSION 2 OF THE LICENSE, OR
# (AT YOUR OPTION) ANY LATER VERSION.
#
# THIS PROGRAM IS DISTRIBUTED IN THE HOPE THAT IT WILL BE USEFUL, BUT
# WITHOUT ANY WARRANTY; WITHOUT EVEN THE IMPLIED WARRANTY OF
# MERCHANTABILITY OR FITNESS FOR A PARTICULAR PURPOSE. SEE THE GNU
# GENERAL PUBLIC LICENSE FOR MORE DETAILS.
#
# YOU SHOULD HAVE RECEIVED A COPY OF THE GNU GENERAL PUBLIC LICENSE
# ALONG WITH THIS PROGRAM; IF NOT, WRITE TO EDF R&D CODE_ASTER,
#    1 AVENUE DU GENERAL DE GAULLE, 92141 CLAMART CEDEX, FRANCE.
# ======================================================================


DEBUT(CODE=_F(NIV_PUB_WEB='INTERNET',),DEBUG=_F(SDVERI='OUI'))

MAIL=LIRE_MAILLAGE(UNITE=20,
                   FORMAT='MED',);

MAIL=MODI_MAILLAGE(reuse =MAIL,
                   MAILLAGE=MAIL,
                   ORIE_PEAU_3D=_F(GROUP_MA=('FACE_INT','FACE_SUP',),),);

# PARTIES THERMIQUE ET METALLURGIQUE
# TEMPERATURE DE 700 DEGRES PARTOUT DANS LE TUBE
# ET CONSTANTE AU COURS DU TEMPS
# A CETTE TEMPERATURE PAS DE TRANSFORMATION

ZIRCALOY=DEFI_MATERIAU(THER=_F(RHO_CP = 2000000.0, LAMBDA = 9999.9),
                       META_ZIRC=_F(
                                  TDEQ = 809.,   K = 1.135E-2,   N = 2.187,
                                  T1C = 831. , T2C=0.,
                                  QSR_K = 14614.,AC = 1.58E-4,  M = 4.7,
                                  T1R=949.1, T2R=0.,AR = -5.725,  BR = 0.05))

CHMAT=AFFE_MATERIAU(MAILLAGE=MAIL,
                    AFFE=_F(TOUT = 'OUI',MATER = ZIRCALOY))

MOTH=AFFE_MODELE(MAILLAGE=MAIL,
                 AFFE=_F(TOUT = 'OUI',
                         MODELISATION = '3D',
                         PHENOMENE = 'THERMIQUE'))

TFONC=DEFI_FONCTION(NOM_PARA='INST',
                    NOM_RESU='TEMP',
                    VALE=( 0. ,    700.0,
                           100.,   700.,),
                    PROL_GAUCHE='CONSTANT',
                    PROL_DROITE='CONSTANT',)

TIMPO=CREA_CHAMP(OPERATION='AFFE',
                 TYPE_CHAM='NOEU_TEMP_F',
                 MAILLAGE=MAIL,
                 AFFE=_F(TOUT = 'OUI',
                         NOM_CMP = 'TEMP',
                         VALE_F = TFONC))

L_INST=DEFI_LIST_REEL(DEBUT=0.0,
                      INTERVALLE=(
                      _F(JUSQU_A=1.1,NOMBRE = 10),
                      _F(JUSQU_A=100.,NOMBRE = 10),),)

PHASINIT=CREA_CHAMP(OPERATION='AFFE',
                    TYPE_CHAM='CART_VAR2_R',
                    MAILLAGE=MAIL,
                    AFFE=_F(TOUT = 'OUI',
                            NOM_CMP = ('V1', 'V2', 'V3','V4'),
                            VALE = ( 1.0, 0.0, 20.,0.)))

TEMPE=CREA_RESU(OPERATION='AFFE',
                TYPE_RESU='EVOL_THER',
                NOM_CHAM='TEMP',
                AFFE=_F(CHAM_GD = TIMPO,
                        LIST_INST = L_INST))

TEMPE=CALC_META(reuse =TEMPE,
                MODELE=MOTH,
                CHAM_MATER=CHMAT,
                RESULTAT=TEMPE,
                ETAT_INIT=_F(META_INIT_ELNO=PHASINIT,),
                COMPORTEMENT=_F(RELATION='ZIRC',
                             TOUT='OUI',),
                OPTION='META_ELNO',);

#IMPR_RESU(RESU=_F(RESULTAT=TEMPE,VALE_MAX='OUI'))

# PARTIE MECANIQUE
# ON DEGENERE LA LOI POUR AVOIR UNE LOI DE VISCOSITE
# DE TYPE NORTON D OU F1_M=0.D0
# CETTE LOI ANISOTROPE AVEC UNE SEULE PHASE ET UNE LOI DE NORTON
# EST IDENTIQUE A UNE LOI CONTENUE DANS ZMAT

ACIER=DEFI_MATERIAU(ELAS_META=_F(E = 80000.,
                               NU = 0.35,
                               F_ALPHA = 0.,
                               C_ALPHA = 0.,
                               PHASE_REFE = 'FROID',
                               EPSF_EPSC_TREF = 0.,),
                    META_LEMA_ANI=_F(
                             F1_A=2.39,    F2_A=0.22,     C_A=9.36,
                             F1_M=0.0,    F2_M=0.77E-04,  C_M=0.99E-04,
                             F1_N=4.39,    F2_N=2.96,     C_N=6.11,
                             F1_Q=19922.8, F2_Q=21023.7,  C_Q=6219.,
                             F_MXX_XX=0.4414,             C_MXX_XX=1.,
                             F_MYY_YY=0.714,              C_MYY_YY=1.,
                             F_MZZ_ZZ=1.,                 C_MZZ_ZZ=1.,
                             F_MXY_XY=0.75,               C_MXY_XY=0.75,
                             F_MXZ_XZ=0.75,               C_MXZ_XZ=0.75,
                             F_MYZ_YZ=0.75,               C_MYZ_YZ=0.75,),),



CM2=AFFE_MATERIAU(MAILLAGE=MAIL,
                  AFFE=_F( TOUT = 'OUI', MATER = ACIER ),
                  AFFE_VARC=(_F(TOUT='OUI',
                                EVOL=TEMPE,
                                NOM_VARC='M_ZIRC',
                                NOM_CHAM='META_ELNO'),
                             _F(TOUT='OUI',
                                EVOL=TEMPE,
                                VALE_REF=700.,
                                NOM_VARC='TEMP',
                                NOM_CHAM='TEMP'),))



MO=AFFE_MODELE(MAILLAGE=MAIL,
               AFFE=_F(TOUT='OUI',
                       PHENOMENE ='MECANIQUE',
                       MODELISATION ='3D'))

CH_L=AFFE_CHAR_MECA(MODELE=MO,
                    FACE_IMPO=(_F(GROUP_MA='FACE_INF',DNOR=0.,),
                               _F(GROUP_MA='FACE_X0',DX=0.,),
                               _F(GROUP_MA='FACE_Y0',DY=0.,),),
                    LIAISON_UNIF=_F(GROUP_MA='FACE_SUP',DDL='DZ',),);

# ON MET UNE PRESSION INTERNE ET L EFFET DE FOND
RINT = 4.118;
REXT = 4.746;
COEF = ((RINT * RINT) / ((REXT * REXT) - (RINT * RINT)));

CHPC=AFFE_CHAR_MECA(MODELE=MO,
                    PRES_REP=(_F(GROUP_MA='FACE_INT',PRES=1.,),
                              _F(GROUP_MA='FACE_SUP',PRES=-COEF,),),);

FMULT=DEFI_FONCTION(NOM_PARA='INST',
                    VALE=(0.0,0.0,
                          1.1,7.5,
                          100.0,9.5,),
                    PROL_DROITE='CONSTANT',
                    PROL_GAUCHE='CONSTANT',);

U=STAT_NON_LINE(MODELE=MO,
                CHAM_MATER=CM2,
                EXCIT=(_F(CHARGE=CHPC,FONC_MULT=FMULT,),
                       _F(CHARGE=CH_L,),),
                COMPORTEMENT=_F(RELATION = 'META_LEMA_ANI',
                             RELATION_KIT='ZIRC'),
               INCREMENT=_F(LIST_INST = L_INST),
               NEWTON=_F(MATRICE = 'TANGENTE',
                         REAC_ITER = 1),
               CONVERGENCE=_F(RESI_GLOB_RELA = 1.E-6,
                              ITER_GLOB_MAXI = 30))

U=CALC_CHAMP(reuse=U,RESULTAT=U,CONTRAINTE=('SIGM_NOEU'),DEFORMATION=('EPSI_NOEU'))



# NA (CE NOEUD SE SITUE A L INTERIEUR DU TUBE EN Y=0)
# TEST DES TROIS DEFORMATIONS ET DES TROIS CONTRAINTES
# COMPARAISON AVEC LA SOLUTION ZMAT

TEST_RESU(RESU=(_F(NUME_ORDRE=20,
                   GROUP_NO='NA',
                   REFERENCE='AUTRE_ASTER',
                   RESULTAT=U,
                   NOM_CHAM='SIGM_NOEU',
                   NOM_CMP='SIXX',
                   VALE_CALC=-11.0219995345,
                   VALE_REFE=-11.0220005719,
                   CRITERE='ABSOLU',
                   PRECISION=1.E-3,),
                _F(NUME_ORDRE=20,
                   GROUP_NO='NA',
                   REFERENCE='AUTRE_ASTER',
                   RESULTAT=U,
                   NOM_CHAM='SIGM_NOEU',
                   NOM_CMP='SIZZ',
                   VALE_CALC=33.9399296361,
                   VALE_REFE=33.9399350421,
                   CRITERE='ABSOLU',
                   PRECISION=1.E-3,),
                _F(NUME_ORDRE=20,
                   GROUP_NO='NA',
                   REFERENCE='AUTRE_ASTER',
                   RESULTAT=U,
                   NOM_CHAM='SIGM_NOEU',
                   NOM_CMP='SIYY',
                   VALE_CALC=59.6779044119,
                   VALE_REFE=59.6779069982,
                   CRITERE='ABSOLU',
                   PRECISION=1.E-3,),
                _F(NUME_ORDRE=20,
                   GROUP_NO='NA',
                   REFERENCE='AUTRE_ASTER',
                   RESULTAT=U,
                   NOM_CHAM='EPSI_NOEU',
                   NOM_CMP='EPXX',
                   VALE_CALC=-0.0100788193019,
                   VALE_REFE=-0.010078818101,
                   CRITERE='ABSOLU',
                   PRECISION=1.0000000000000001E-05,),
                _F(NUME_ORDRE=20,
                   GROUP_NO='NA',
                   REFERENCE='AUTRE_ASTER',
                   RESULTAT=U,
                   NOM_CHAM='EPSI_NOEU',
                   NOM_CMP='EPZZ',
                   VALE_CALC=0.000109050055373,
                   VALE_REFE=0.000109050040392,
                   CRITERE='ABSOLU',
                   PRECISION=1.0000000000000001E-05,),
                _F(NUME_ORDRE=20,
                   GROUP_NO='NA',
                   REFERENCE='AUTRE_ASTER',
                   RESULTAT=U,
                   NOM_CHAM='EPSI_NOEU',
                   NOM_CMP='EPYY',
                   VALE_CALC=0.010279503626,
                   VALE_REFE=0.0102795024661,
                   CRITERE='ABSOLU',
                   PRECISION=1.0000000000000001E-05,),
                ),
          )

# NB (CE NOEUD SE SITUE A L EXTERIEUR DU TUBE EN Y=0)
# TEST DES TROIS DEFORMATIONS ET DES TROIS CONTRAINTES
# COMPARAISON AVEC LA SOLUTION ZMAT

TEST_RESU(RESU=(_F(NUME_ORDRE=20,
                   GROUP_NO='NB',
                   REFERENCE='AUTRE_ASTER',
                   RESULTAT=U,
                   NOM_CHAM='SIGM_NOEU',
                   NOM_CMP='SIXX',
                   VALE_CALC=0.897898881663,
                   VALE_REFE=0.897898733485,
                   CRITERE='ABSOLU',
                   PRECISION=1.E-3,),
                _F(NUME_ORDRE=20,
                   GROUP_NO='NB',
                   REFERENCE='AUTRE_ASTER',
                   RESULTAT=U,
                   NOM_CHAM='SIGM_NOEU',
                   NOM_CMP='SIZZ',
                   VALE_CALC=42.730195735,
                   VALE_REFE=42.7301955456,
                   CRITERE='ABSOLU',
                   PRECISION=1.E-3,),
                _F(NUME_ORDRE=20,
                   GROUP_NO='NB',
                   REFERENCE='AUTRE_ASTER',
                   RESULTAT=U,
                   NOM_CHAM='SIGM_NOEU',
                   NOM_CMP='SIYY',
                   VALE_CALC=66.7347898858,
                   VALE_REFE=66.7347890435,
                   CRITERE='ABSOLU',
                   PRECISION=1.E-3,),
                _F(NUME_ORDRE=20,
                   GROUP_NO='NB',
                   REFERENCE='AUTRE_ASTER',
                   RESULTAT=U,
                   NOM_CHAM='EPSI_NOEU',
                   NOM_CMP='EPXX',
                   VALE_CALC=-0.00760314123251,
                   VALE_REFE=-0.00760314106143,
                   CRITERE='ABSOLU',
                   PRECISION=1.0000000000000001E-05,),
                _F(NUME_ORDRE=20,
                   GROUP_NO='NB',
                   REFERENCE='AUTRE_ASTER',
                   RESULTAT=U,
                   NOM_CHAM='EPSI_NOEU',
                   NOM_CMP='EPZZ',
                   VALE_CALC=0.000109050055373,
                   VALE_REFE=0.00010905006745,
                   CRITERE='ABSOLU',
                   PRECISION=1.0000000000000001E-05,),
                _F(NUME_ORDRE=20,
                   GROUP_NO='NB',
                   REFERENCE='AUTRE_ASTER',
                   RESULTAT=U,
                   NOM_CHAM='EPSI_NOEU',
                   NOM_CMP='EPYY',
                   VALE_CALC=0.00790795199402,
                   VALE_REFE=0.00790795180644,
                   CRITERE='ABSOLU',
                   PRECISION=1.0000000000000001E-05,),
                ),
          )



FIN()
