# TITRE  THERMO_METALLO_MECANIQUE EN TRACTION SIMPLE
# ======================================================================
# COPYRIGHT (C) 1991 - 2012  EDF R&D                  WWW.CODE-ASTER.ORG
# THIS PROGRAM IS FREE SOFTWARE; YOU CAN REDISTRIBUTE IT AND/OR MODIFY
# IT UNDER THE TERMS OF THE GNU GENERAL PUBLIC LICENSE AS PUBLISHED BY
# THE FREE SOFTWARE FOUNDATION; EITHER VERSION 2 OF THE LICENSE, OR
# (AT YOUR OPTION) ANY LATER VERSION.
#
# THIS PROGRAM IS DISTRIBUTED IN THE HOPE THAT IT WILL BE USEFUL, BUT
# WITHOUT ANY WARRANTY; WITHOUT EVEN THE IMPLIED WARRANTY OF
# MERCHANTABILITY OR FITNESS FOR A PARTICULAR PURPOSE. SEE THE GNU
# GENERAL PUBLIC LICENSE FOR MORE DETAILS.
#
# YOU SHOULD HAVE RECEIVED A COPY OF THE GNU GENERAL PUBLIC LICENSE
# ALONG WITH THIS PROGRAM; IF NOT, WRITE TO EDF R&D CODE_ASTER,
#    1 AVENUE DU GENERAL DE GAULLE, 92141 CLAMART CEDEX, FRANCE.
# ======================================================================
# AVEC ECROUISSAGE NON LINEAIRE
# BARREAU CYLINDRIQUE EN TRACTION
# MODELISATION AXIS GRANDE DEFORMATION
#==================================================================

DEBUT(CODE=_F(NOM='HSNV126B',NIV_PUB_WEB='INTERNET'),DEBUG=_F(SDVERI='NON'))
# SDVERI='NON' car la verification est trop couteuse en CPU

MAIL=LIRE_MAILLAGE( )

TRC=DEFI_TRC(HIST_EXP=(

_F( VALE = (
-1.000E+00,  1.000E+01,  0.000E+00,  0.0000E+00,
 0.000E+00,  0.000E+00,  0.000E+00,  0.0000E+00,
 0.000E+00,  0.000E+00,  0.000E+00,  8.3000E+02,
 0.000E+00,  0.000E+00,  0.000E+00,  5.6520E+02,
 0.000E+00,  0.000E+00,  1.000E-02,  5.6000E+02,
 0.000E+00,  0.000E+00,  2.400E-02,  5.5062E+02,
 0.000E+00,  0.000E+00,  7.600E-02,  5.3670E+02,
 0.000E+00,  0.000E+00,  12.00E-02,  5.2960E+02,
 0.000E+00,  0.000E+00,  22.70E-02,  5.1380E+02,
 0.000E+00,  0.000E+00,  32.50E-02,  5.0155E+02,
 0.000E+00,  0.000E+00,  41.80E-02,  4.8748E+02,
 0.000E+00,  0.000E+00,  52.80E-02,  4.6595E+02,
 0.000E+00,  0.000E+00,  57.60E-02,  4.5422E+02,
 0.000E+00,  0.000E+00,  60.00E-02,  4.4531E+02,
 0.000E+00,  0.000E+00,  69.00E-02,  4.0712E+02,
 0.000E+00,  0.000E+00,  72.20E-02,  3.9157E+02,
 0.000E+00,  0.000E+00,  7.500E-01,  3.6600E+02,
 0.000E+00,  0.000E+00,  7.600E-01,  3.6080E+02, )),
_F( VALE = (
-3.400E+00,  1.000E+01,  0.000E+00,  0.0000E+00,
 0.000E+00,  0.000E+00,  0.000E+00,  0.0000E+00,
 0.000E+00,  0.000E+00,  0.000E+00,  8.3000E+02,
 0.000E+00,  0.000E+00,  0.000E+00,  5.6530E+02,
 0.000E+00,  0.000E+00,  1.000E-02,  5.6000E+02,
 0.000E+00,  0.000E+00,  5.980E-02,  5.4326E+02,
 0.000E+00,  0.000E+00,  35.00E-02,  5.0750E+02,
 0.000E+00,  0.000E+00,  44.00E-02,  4.9711E+02,
 0.000E+00,  0.000E+00,  52.50E-02,  4.7641E+02,
 0.000E+00,  0.000E+00,  65.00E-02,  4.2853E+02,
 0.000E+00,  0.000E+00,  6.840E-01,  3.8393E+02,
 0.000E+00,  0.000E+00,  6.800E-01,  3.8200E+02,
 0.000E+00,  0.000E+00,  6.900E-01,  3.7670E+02,
     )),
_F( VALE = (
-8.000E+00,  1.000E+01,  0.000E+00,  0.000E+00,
 0.000E+00,  0.000E+00,  0.000E+00,  0.000E+00,
 0.000E+00,  0.000E+00,  0.000E+00,  8.300E+02,
 0.000E+00,  0.000E+00,  0.000E+00,  5.570E+02,
 0.000E+00,  0.000E+00,  1.000E-02,  5.500E+02,
 0.000E+00,  0.000E+00,  1.800E-02,  5.4746E+02,
 0.000E+00,  0.000E+00,  10.80E-02,  5.2087E+02,
 0.000E+00,  0.000E+00,  27.00E-02,  4.8780E+02,
 0.000E+00,  0.000E+00,  37.30E-02,  4.5920E+02,
 0.000E+00,  0.000E+00,  44.40E-02,  4.2560E+02,
 0.000E+00,  0.000E+00,  49.70E-02,  3.7440E+02,
 0.000E+00,  0.000E+00,  5.115E-01,  3.6400E+02,
 0.000E+00,  0.000E+00,  5.215E-01,  3.5660E+02, ))),
  TEMP_MS=_F(
    SEUIL = 4.500E-01,
    AKM = -3.125E+01,
    BKM = 1.406E+01,
    TPLM = -3.497E+00),
   GRAIN_AUST=_F(  DREF = 11.00E-6,
                A = 11200.)

     )

PHASINIT=CREA_CHAMP(OPERATION='AFFE', TYPE_CHAM='CART_VAR2_R',
                    MAILLAGE=MAIL,
                    AFFE=_F( TOUT = 'OUI',
                             NOM_CMP = ( 'V1', 'V2', 'V3', 'V4',  'V5',  ),
                             VALE    = ( 0.7 , 0.0 , 0.3 , 0.0 ,  0.0 ,  ))
                        )

MOTH=AFFE_MODELE( MAILLAGE=MAIL,
                  AFFE=_F( TOUT = 'OUI',
                           PHENOMENE = 'THERMIQUE',
                           MODELISATION = 'AXIS'))

ACIER=DEFI_MATERIAU(
              THER=_F( RHO_CP = 5260000.0,
                    LAMBDA = 33.5),
         META_ACIER=_F( TRC = TRC,
                    AR3 = 830.0,
                    ALPHA = -0.0247,
                    MS0 = 365.0,
                    AC1 = 700.0,
                    AC3 = 800.0,
                    TAUX_1 = 0.5,
                    TAUX_3 = 0.5))

CHMAT=AFFE_MATERIAU( MAILLAGE=MAIL,
                     AFFE=_F( TOUT = 'OUI', MATER = ACIER))

TIMPO=DEFI_FONCTION( NOM_RESU='TEMP',
                     NOM_PARA='INST',
                     VALE=( 0.,    20.,
                            1.,   120.,
                            2.,   120.,
               ),
         PROL_DROITE='CONSTANT',
        PROL_GAUCHE='LINEAIRE')

LIST_T=DEFI_LIST_REEL(
                DEBUT=0.,INTERVALLE=(
          _F( JUSQU_A = 1.,  NOMBRE = 1),
          _F( JUSQU_A = 2.,  NOMBRE = 200)))

CHTH=CREA_CHAMP(OPERATION='AFFE', TYPE_CHAM='NOEU_TEMP_F',
        MAILLAGE=MAIL,
            AFFE=_F( TOUT = 'OUI',
                  NOM_CMP = 'TEMP',
                  VALE_F = TIMPO))

TEMPE=CREA_RESU( OPERATION='AFFE', TYPE_RESU='EVOL_THER',
                 NOM_CHAM='TEMP',
                 AFFE=_F( CHAM_GD = CHTH, LIST_INST = LIST_T))

TEMPE=CALC_META(reuse=TEMPE,
                MODELE=MOTH,
                CHAM_MATER=CHMAT,
                RESULTAT=TEMPE,
                ETAT_INIT=_F(META_INIT_ELNO=PHASINIT),
                COMP_INCR=_F(RELATION='ACIER',
                             TOUT='OUI'),
                OPTION=('META_ELNO','META_NOEU'),);

# CALCUL MECANIQUE

MOMECA=AFFE_MODELE(
          MAILLAGE=MAIL,
              AFFE=_F( TOUT = 'OUI',
             PHENOMENE = 'MECANIQUE',
             MODELISATION = 'AXIS'))

COU_T20=DEFI_FONCTION(
               NOM_PARA='EPSI',
               PROL_DROITE='LINEAIRE',
               VALE=(
               0.99,    250.,
               ))

COU_T120=DEFI_FONCTION(
               NOM_PARA='EPSI',
               PROL_DROITE='LINEAIRE',
               VALE=(
               0.0105,    90.,
               0.032,    160.,
               0.064,    220.,
               0.1125,   250.,
               0.1815,   270.,))

COU_TRAC=DEFI_NAPPE(
               NOM_PARA='TEMP',
                   PARA=(20.,120.,),
               FONCTION=(COU_T20,COU_T120,),
            PROL_GAUCHE='CONSTANT',
             PROL_DROITE='CONSTANT')

SIGY=DEFI_FONCTION( NOM_PARA='TEMP',
                    PROL_DROITE='CONSTANT',
                    VALE=( 20.,  100.,
                          120.,  100.,))

YOUNG=DEFI_FONCTION( NOM_PARA='TEMP',
                     PROL_DROITE='CONSTANT',
                     VALE=( 20.,  25000.,
                           120.,  20000.,))

NU=DEFI_CONSTANTE( VALE=0.3)

ALPHAF=DEFI_FONCTION( NOM_PARA='TEMP',
                      PROL_GAUCHE='CONSTANT',
                      PROL_DROITE='CONSTANT',
                      VALE=( 20.,  10.E-06,
                            120., 10.E-06,))

ALPHAA=DEFI_FONCTION( NOM_PARA='TEMP',
                      PROL_GAUCHE='CONSTANT',
                      PROL_DROITE='CONSTANT',
                      VALE=( 20., 0.0001,
                            120., 0.0001,))

MELANGE=DEFI_FONCTION( NOM_PARA='META',
                       PROL_DROITE='LINEAIRE',
                       PROL_GAUCHE='LINEAIRE',
                       VALE=(0.000,  0.0000,
                             1.000,  1.0000,))

ACIERM=DEFI_MATERIAU(
           ELAS_META_FO=_F(
           E = YOUNG,
           NU = NU,
           F_ALPHA = ALPHAF,
           C_ALPHA = ALPHAA,
           TEMP_DEF_ALPHA=20.0,
           PHASE_REFE = 'FROID',
           EPSF_EPSC_TREF = 1.E-2,
           F1_SY = SIGY,
           F2_SY = SIGY,
           F3_SY = SIGY,
           F4_SY = SIGY,
           C_SY = SIGY,
           SY_MELANGE = MELANGE),
              META_TRACTION=_F(
                        SIGM_F1 = COU_TRAC,
                        SIGM_F2 = COU_TRAC,
                        SIGM_F3 = COU_TRAC,
                        SIGM_F4 = COU_TRAC,
                        SIGM_C = COU_TRAC))

CHP_MATL=AFFE_MATERIAU(
            MAILLAGE=MAIL,
                AFFE=_F( TOUT = 'OUI',
                      MATER = ACIERM),
                AFFE_VARC=(_F(TOUT='OUI',
                             EVOL=TEMPE,
                             NOM_VARC='M_ACIER',
                             NOM_CHAM='META_ELNO'),
                          _F(TOUT='OUI',
                             EVOL=TEMPE,
                             NOM_VARC='TEMP',
                             NOM_CHAM='TEMP',
                             VALE_REF=20),),);

INST_M=DEFI_LIST_REEL(
                DEBUT=0.0,INTERVALLE=(
           _F( JUSQU_A = 1.00, NOMBRE = 1),
                      _F( JUSQU_A = 2.00, NOMBRE = 200)))

F_CHAR=DEFI_FONCTION(
            NOM_PARA='INST',
          PROL_DROITE='CONSTANT',
                VALE=(0.,  0.,
                      1.,  0.,
                      2.,  30.,))

CHR_LIAI=AFFE_CHAR_MECA(
              MODELE=MOMECA,DDL_IMPO=(
            _F( NOEUD = 'NO1',  DY = 0.),
                     _F( NOEUD = 'NO2',  DY = 0.)))

CHR_TRAC=AFFE_CHAR_MECA(
               MODELE=MOMECA,
            FACE_IMPO=_F( MAILLE = 'MA2',  DY = 1.))

U=STAT_NON_LINE(
            MODELE=MOMECA,
            CHAM_MATER=CHP_MATL,EXCIT=_F( CHARGE = CHR_LIAI),
            COMP_INCR=_F( RELATION = 'META_P_INL',
                          RELATION_KIT = ('ACIER',),
                          DEFORMATION = 'SIMO_MIEHE'),
            INCREMENT=_F( LIST_INST = INST_M,
                          NUME_INST_FIN = 1),
            NEWTON=_F( MATRICE = 'TANGENTE',
                       REAC_ITER = 1),
            CONVERGENCE=_F( RESI_GLOB_RELA = 1.E-6,
                            ITER_GLOB_MAXI = 50),
            RECH_LINEAIRE=_F( ITER_LINE_MAXI = 3))

U=STAT_NON_LINE(reuse=U,
                ETAT_INIT=_F( EVOL_NOLI = U, NUME_ORDRE = 1),
                MODELE=MOMECA,
                CHAM_MATER=CHP_MATL,
                EXCIT=( _F( CHARGE = CHR_LIAI),
                        _F( CHARGE = CHR_TRAC,
                             FONC_MULT = F_CHAR,
                             TYPE_CHARGE = 'DIDI')),
                COMP_INCR=_F( RELATION = 'META_P_INL',
                              RELATION_KIT = ('ACIER',),
                              DEFORMATION = 'SIMO_MIEHE'),
                INCREMENT=_F( LIST_INST = INST_M),
                NEWTON=_F( MATRICE = 'TANGENTE',
                           REAC_ITER = 1),
                CONVERGENCE=_F( RESI_GLOB_RELA = 1.E-6,
                                ITER_GLOB_MAXI = 50),
                RECH_LINEAIRE=_F( ITER_LINE_MAXI = 3))

U=CALC_CHAMP(reuse=U,RESULTAT=U,CONTRAINTE=('SIGM_ELNO'),VARI_INTERNE=('VARI_ELNO'))


U=CALC_CHAMP(reuse=U,
             RESULTAT=U,
             CONTRAINTE='SIGM_NOEU',VARI_INTERNE='VARI_NOEU')

CHSIY11=CREA_CHAMP( OPERATION='EXTR', TYPE_CHAM='NOEU_SIEF_R',
RESULTAT=U, NOM_CHAM='SIGM_NOEU',
                       INST=1.1 )

CHUY11=CREA_CHAMP( OPERATION='EXTR', TYPE_CHAM='NOEU_DEPL_R',
RESULTAT=U, NOM_CHAM='DEPL',
                       INST=1.1 )

CHVAR11=CREA_CHAMP( OPERATION='EXTR', TYPE_CHAM='NOEU_VAR2_R',
RESULTAT=U, NOM_CHAM='VARI_NOEU',
                       INST=1.1 )

CHSIY14=CREA_CHAMP( OPERATION='EXTR', TYPE_CHAM='NOEU_SIEF_R',
RESULTAT=U, NOM_CHAM='SIGM_NOEU',
                       INST=1.4 )

CHUY14=CREA_CHAMP( OPERATION='EXTR', TYPE_CHAM='NOEU_DEPL_R',
RESULTAT=U, NOM_CHAM='DEPL',
                       INST=1.4 )

CHVAR14=CREA_CHAMP( OPERATION='EXTR', TYPE_CHAM='NOEU_VAR2_R',
RESULTAT=U, NOM_CHAM='VARI_NOEU',
                       INST=1.4)

CHSIY20=CREA_CHAMP( OPERATION='EXTR', TYPE_CHAM='NOEU_SIEF_R',
RESULTAT=U, NOM_CHAM='SIGM_NOEU',
                       INST=2. )

CHUY20=CREA_CHAMP( OPERATION='EXTR', TYPE_CHAM='NOEU_DEPL_R',
RESULTAT=U, NOM_CHAM='DEPL',
                       INST=2. )

CHVAR20=CREA_CHAMP( OPERATION='EXTR', TYPE_CHAM='NOEU_VAR2_R',
RESULTAT=U, NOM_CHAM='VARI_NOEU',
                       INST=2.)

#------------------------------------------------------------------

TEST_RESU(CHAM_NO=(_F(NOEUD='NO3',
                      CRITERE='ABSOLU',
                      NOM_CMP='SIYY',
                      CHAM_GD=CHSIY11,
                      VALE_CALC=59.724891293855,
                      ),
                   _F(NOEUD='NO3',
                      CRITERE='ABSOLU',
                      NOM_CMP='SIYY',
                      CHAM_GD=CHSIY14,
                      VALE_CALC=140.9974996111,
                      ),
                   _F(NOEUD='NO3',
                      CRITERE='ABSOLU',
                      NOM_CMP='SIYY',
                      CHAM_GD=CHSIY20,
                      VALE_CALC=215.66273036229,
                      ),
                   _F(NOEUD='NO3',
                      CRITERE='ABSOLU',
                      NOM_CMP='DY',
                      CHAM_GD=CHUY11,
                      VALE_CALC=3.997513578839,
                      ),
                   _F(NOEUD='NO3',
                      CRITERE='ABSOLU',
                      NOM_CMP='DY',
                      CHAM_GD=CHUY14,
                      VALE_CALC=12.997513578839,
                      ),
                   _F(NOEUD='NO3',
                      CRITERE='ABSOLU',
                      NOM_CMP='DY',
                      CHAM_GD=CHUY20,
                      VALE_CALC=30.997513578839,
                      ),
                   _F(NOEUD='NO3',
                      CRITERE='ABSOLU',
                      NOM_CMP='V1',
                      CHAM_GD=CHVAR11,
                      VALE_CALC=0.0E+00,),
                   _F(NOEUD='NO3',
                      CRITERE='RELATIF',
                      NOM_CMP='V1',
                      CHAM_GD=CHVAR14,
                      VALE_CALC=4.8787703363342E-03,),
                   _F(NOEUD='NO3',
                      CRITERE='RELATIF',
                      NOM_CMP='V1',
                      CHAM_GD=CHVAR20,
                      VALE_CALC=0.018866871352413,),
                   _F(NOEUD='NO3',
                      CRITERE='ABSOLU',
                      NOM_CMP='V7',
                      CHAM_GD=CHVAR11,
                      VALE_CALC=0.0E+00,),
                   _F(NOEUD='NO3',
                      CRITERE='RELATIF',
                      NOM_CMP='V7',
                      CHAM_GD=CHVAR14,
                      VALE_CALC=41.818031454293,
                      ),
                   _F(NOEUD='NO3',
                      CRITERE='RELATIF',
                      NOM_CMP='V7',
                      CHAM_GD=CHVAR20,
                      VALE_CALC=117.24097649623,
                      ),
                   ),
          )

FIN()
#
