# MODIF  DATE 17/07/2007   AUTEUR PELLET J.PELLET 
# TITRE THERMO-PLASTICITE EN TRACTION SIMPLE TUYAU 6 MODES
#            CONFIGURATION MANAGEMENT OF EDF VERSION
# ======================================================================
# COPYRIGHT (C) 1991 - 2001  EDF R&D                  WWW.CODE-ASTER.ORG
# THIS PROGRAM IS FREE SOFTWARE; YOU CAN REDISTRIBUTE IT AND/OR MODIFY
# IT UNDER THE TERMS OF THE GNU GENERAL PUBLIC LICENSE AS PUBLISHED BY
# THE FREE SOFTWARE FOUNDATION; EITHER VERSION 2 OF THE LICENSE, OR
# (AT YOUR OPTION) ANY LATER VERSION.
#
# THIS PROGRAM IS DISTRIBUTED IN THE HOPE THAT IT WILL BE USEFUL, BUT
# WITHOUT ANY WARRANTY; WITHOUT EVEN THE IMPLIED WARRANTY OF
# MERCHANTABILITY OR FITNESS FOR A PARTICULAR PURPOSE. SEE THE GNU
# GENERAL PUBLIC LICENSE FOR MORE DETAILS.
#
# YOU SHOULD HAVE RECEIVED A COPY OF THE GNU GENERAL PUBLIC LICENSE
# ALONG WITH THIS PROGRAM; IF NOT, WRITE TO EDF R&D CODE_ASTER,
#    1 AVENUE DU GENERAL DE GAULLE, 92141 CLAMART CEDEX, FRANCE.
# ======================================================================

DEBUT(CODE=_F(NOM='HSNV100D', NIV_PUB_WEB='INTERNET'), DEBUG=_F(SDVERI='OUI'))

TITRE='THERMO-PLASTICITE EN TRACTION SIMPLE'

MAIL=LIRE_MAILLAGE( )

MAIL=DEFI_GROUP( reuse=MAIL,   MAILLAGE=MAIL,
  CREA_GROUP_MA=_F(  NOM = 'TOUT', TOUT = 'OUI'))

MOMECA=AFFE_MODELE(  MAILLAGE=MAIL,
    AFFE=_F( TOUT = 'OUI', MODELISATION = 'TUYAU_6M', PHENOMENE = 'MECANIQUE'))

YOUNG=200000.

POISSON=0.3

DILAT=10.0E-6

PENTE=DEFI_CONSTANTE( VALE=50000. )

SIGY=DEFI_FONCTION(     NOM_PARA='TEMP',
                           PROL_DROITE='LINEAIRE',
                                  VALE=(  0.,  400.,
                                         50.,  200.,  )
                         )

EP=0.01

REXT=2.

RINT=REXT - EP

CAREL=AFFE_CARA_ELEM(   MODELE=MOMECA,
           POUTRE=_F(
       GROUP_MA = 'TOUT',
  SECTION = 'CERCLE',TUYAU_NCOU=1,
          CARA = (   'R', 'EP',  ), VALE = (  REXT, EP, ))
)

SURF=pi* (REXT*REXT-RINT*RINT)

MAT=DEFI_MATERIAU(
          ELAS=_F( E = YOUNG, NU = POISSON, ALPHA = DILAT),
           ECRO_LINE_FO=_F(  D_SIGM_EPSI = PENTE, SY = SIGY)
                        )

TIMPVAR=DEFI_FONCTION(    NOM_PARA='INST',  NOM_RESU='TEMP',
           VALE=(  0.E0,  0.E0, 100.E0, 100.E0,),);

CHP_TEMP=CREA_CHAMP( OPERATION='AFFE', TYPE_CHAM='NOEU_TEMP_F',
MAILLAGE=MAIL,
               AFFE=_F(  TOUT = 'OUI',
                      NOM_CMP = ('TEMP', ),
                      VALE_F = (TIMPVAR,))
                        )
#
L_INST=DEFI_LIST_REEL(       DEBUT=0.,INTERVALLE=(

                    _F( JUSQU_A = 66.666E0,   NOMBRE = 1),
                      _F( JUSQU_A = 80.000E0,   NOMBRE = 20),
                      _F( JUSQU_A = 90.000E0,   NOMBRE = 20))
         )

TEMPE=CREA_RESU(    OPERATION='AFFE', TYPE_RESU='EVOL_THER',
                          NOM_CHAM='TEMP',
                           AFFE=_F(  LIST_INST = L_INST,
                                     CHAM_GD = CHP_TEMP)
                     )

CM=AFFE_MATERIAU(    MAILLAGE=MAIL,
          AFFE=_F( TOUT = 'OUI',MATER = MAT),
          AFFE_VARC=_F(TOUT='OUI',
                       EVOL=TEMPE,
                       NOM_VARC='TEMP',
                       NOM_CHAM='TEMP',
                       VALE_REF=0),);


CHMECA=AFFE_CHAR_MECA(    MODELE=MOMECA,DDL_IMPO=(
 _F( GROUP_NO = 'GRNO1', DX = 0., DZ = 0., DY = 0., DRX = 0., DRY = 0., DRZ = 0.),
           _F( GROUP_NO = 'GRNO2',  DY = 0.)),)

U=STAT_NON_LINE(
                            MODELE=MOMECA,
                        CHAM_MATER=CM,
                             EXCIT=_F(
                CHARGE = CHMECA),
                         CARA_ELEM=CAREL,
                         COMP_INCR=_F(
                RELATION = 'VMIS_ISOT_LINE' ),
                         INCREMENT=_F(
                LIST_INST = L_INST),
                            NEWTON=_F(
                REAC_ITER = 1),
                       CONVERGENCE=_F(
                RESI_GLOB_RELA = 1.E-5,
                ITER_GLOB_MAXI = 10)
              )

U=CALC_ELEM( reuse=U,
                            OPTION=(
                  'SIEF_ELNO_ELGA',  'VARI_ELNO_ELGA',),
                          RESULTAT=U,
              )

U=CALC_NO(reuse=U,
          OPTION='FORC_NODA',
            RESULTAT=U
         )

F66=133.333*SURF

F80=100.*SURF

F90=75.*SURF

N66=-133.333*SURF

N80=-100.*SURF

N90=-75.*SURF

TEST_RESU(RESU=(

_F( RESULTAT = TEMPE, NOM_CHAM = 'TEMP', INST = 90.,
                 REFERENCE = 'ANALYTIQUE',
      NOEUD = 'N1', NOM_CMP = 'TEMP', VALE = 90.),

_F( RESULTAT = U, NOM_CHAM = 'SIEF_ELGA', INST = 66.666,
                 REFERENCE = 'ANALYTIQUE',
      MAILLE = 'M1', POINT = 1, NOM_CMP = 'SIXX', VALE = -133.333,
      PRECISION = 0.002),

_F( RESULTAT = U, NOM_CHAM = 'VARI_ELNO_ELGA', INST = 80.,
                 REFERENCE = 'ANALYTIQUE',
      MAILLE = 'M1', NOEUD = 'N2', SOUS_POINT=3, NOM_CMP = 'V1', VALE = 3.0000E-4,
      PRECISION = 0.002),

_F( RESULTAT = U, NOM_CHAM = 'SIEF_ELGA', INST = 80.,
                 REFERENCE = 'ANALYTIQUE',
      MAILLE = 'M1', POINT = 1, NOM_CMP = 'SIXX',VALE = -100.,
      PRECISION = 0.002),

_F( RESULTAT = U, NOM_CHAM = 'VARI_ELNO_ELGA', INST = 90.,
                 REFERENCE = 'ANALYTIQUE',
      MAILLE = 'M1', NOEUD = 'N1', SOUS_POINT=3,  NOM_CMP = 'V1',VALE = 5.2500E-4,
      PRECISION = 0.002),

_F( RESULTAT = U, NOM_CHAM = 'SIEF_ELGA', INST = 90.,
                 REFERENCE = 'ANALYTIQUE',
      MAILLE = 'M1', POINT = 1, NOM_CMP = 'SIXX', VALE = -75.000,
      PRECISION = 0.003),

_F( RESULTAT = U, NOM_CHAM = 'FORC_NODA', INST = 66.666,
                 REFERENCE = 'ANALYTIQUE',
      NOEUD = 'N1', NOM_CMP = 'DY', VALE = F66),
_F( RESULTAT = U, NOM_CHAM = 'FORC_NODA', INST = 80.,
                 REFERENCE = 'ANALYTIQUE',
      NOEUD = 'N1', NOM_CMP = 'DY', VALE = F80),
_F( RESULTAT = U, NOM_CHAM = 'FORC_NODA', INST = 90.,
                 REFERENCE = 'ANALYTIQUE',
      NOEUD = 'N1', NOM_CMP = 'DY', VALE = F90),

_F( RESULTAT = U, NOM_CHAM = 'SIEF_ELNO_ELGA', INST = 66.666,
                 REFERENCE = 'ANALYTIQUE',
      MAILLE = 'M1', NOEUD = 'N2', NOM_CMP = 'N', VALE = N66),
_F( RESULTAT = U, NOM_CHAM = 'SIEF_ELNO_ELGA', INST = 80.,
                 REFERENCE = 'ANALYTIQUE',
      MAILLE = 'M1', NOEUD = 'N2', NOM_CMP = 'N', VALE = N80),
_F( RESULTAT = U, NOM_CHAM = 'SIEF_ELNO_ELGA', INST = 90.,
                 REFERENCE = 'ANALYTIQUE',
      MAILLE = 'M1', NOEUD = 'N1', NOM_CMP = 'N', VALE = N90))
  )

FIN()
#
#
#
#
