# TITRE TRACTION THERMIQUE HYPER-ELASTICITE NON LINEAIRE 2D
#            CONFIGURATION MANAGEMENT OF EDF VERSION
# ======================================================================
# COPYRIGHT (C) 1991 - 2012  EDF R&D                  WWW.CODE-ASTER.ORG
# THIS PROGRAM IS FREE SOFTWARE; YOU CAN REDISTRIBUTE IT AND/OR MODIFY
# IT UNDER THE TERMS OF THE GNU GENERAL PUBLIC LICENSE AS PUBLISHED BY
# THE FREE SOFTWARE FOUNDATION; EITHER VERSION 2 OF THE LICENSE, OR
# (AT YOUR OPTION) ANY LATER VERSION.
#
# THIS PROGRAM IS DISTRIBUTED IN THE HOPE THAT IT WILL BE USEFUL, BUT
# WITHOUT ANY WARRANTY; WITHOUT EVEN THE IMPLIED WARRANTY OF
# MERCHANTABILITY OR FITNESS FOR A PARTICULAR PURPOSE. SEE THE GNU
# GENERAL PUBLIC LICENSE FOR MORE DETAILS.
#
# YOU SHOULD HAVE RECEIVED A COPY OF THE GNU GENERAL PUBLIC LICENSE
# ALONG WITH THIS PROGRAM; IF NOT, WRITE TO EDF R&D CODE_ASTER,
#    1 AVENUE DU GENERAL DE GAULLE, 92141 CLAMART CEDEX, FRANCE.
# ======================================================================


DEBUT(CODE=_F(NOM='HSNV120B',NIV_PUB_WEB='INTERNET'),DEBUG=_F(SDVERI='OUI'))

MA=LIRE_MAILLAGE()

MO=AFFE_MODELE(
               MAILLAGE=MA,
                  VERIF='MAILLE',
               AFFE=_F(
               TOUT = 'OUI',
               PHENOMENE = 'MECANIQUE',
               MODELISATION = 'C_PLAN')
             )

COU_TRAC=DEFI_FONCTION(
               NOM_PARA='EPSI',
               PROL_DROITE='LINEAIRE',
               VALE=(
               0.005,    1000.,
               1.005,    3000.,
               )
             )

ACIER_L=DEFI_MATERIAU(
                   ELAS=_F(
               E = 200000.,
               NU = 0.3,
               ALPHA = 1.E-4),
               ECRO_LINE=_F(
               D_SIGM_EPSI = 2000.,
               SY = 1000.)
             )

ACIER_T=DEFI_MATERIAU(
                   ELAS=_F(
               E = 200000.,
               NU = 0.3,
               ALPHA = 1.E-4),
               TRACTION=_F(  SIGM = COU_TRAC)
             )

L_INST=DEFI_LIST_REEL(
              DEBUT=0.0,INTERVALLE=(

               _F(  JUSQU_A = 1.,   NOMBRE = 10),
               _F(  JUSQU_A = 2.,   NOMBRE = 10),
               _F(  JUSQU_A = 2.5,  NOMBRE = 10),
               _F(  JUSQU_A = 3.,   NOMBRE = 1))
             )

F_CHAR=DEFI_FONCTION(
                NOM_PARA='INST',
              PROL_DROITE='CONSTANT',
                    VALE=(
               0.,  0.,
               1.,  0.,
               2.,  1.,
               3.,  0.,
               )
             )

F_TEMP=DEFI_FONCTION(
                NOM_PARA='INST',
                NOM_RESU='TEMP',
              PROL_DROITE='CONSTANT',
                    VALE=(
               0.,   20.,
               1.,  120.,
               2.,  120.,
               3.,   20.,
               )
             )

CHP_TEMP=CREA_CHAMP( OPERATION='AFFE', TYPE_CHAM='NOEU_TEMP_F',
               MAILLAGE=MA,
                   AFFE=_F(
               TOUT = 'OUI',
               NOM_CMP = 'TEMP',
               VALE_F = F_TEMP)
             )

TEMP=CREA_RESU(
               OPERATION='AFFE', TYPE_RESU='EVOL_THER',
                NOM_CHAM='TEMP',
                 AFFE=_F(
               LIST_INST = L_INST,
               CHAM_GD = CHP_TEMP)
             )

CHP_MATL=AFFE_MATERIAU(
               MAILLAGE=MA,
                   AFFE=_F(
               TOUT = 'OUI',
               MATER = ACIER_L,),
          AFFE_VARC=_F( TOUT='OUI',
                        EVOL=TEMP,
                        NOM_VARC='TEMP',
                        NOM_CHAM='TEMP',
                        VALE_REF=20.),)

CHP_MATT=AFFE_MATERIAU(
               MAILLAGE=MA,
                   AFFE=_F(
               TOUT = 'OUI',
               MATER = ACIER_T,),
          AFFE_VARC=_F( TOUT='OUI',
                        EVOL=TEMP,
                        NOM_VARC='TEMP',
                        NOM_CHAM='TEMP',
                        VALE_REF=20.),)


CHR_LIAI=AFFE_CHAR_MECA(
              MODELE=MO,DDL_IMPO=(

               _F( NOEUD = 'NO2',       DX = 0.,  DY = 0.),
               _F( NOEUD = ('NO1', 'NO5',),  DX = 0.))
             )

CHR_FORC=AFFE_CHAR_MECA(
                     MODELE=MO,

               FORCE_CONTOUR=_F( MAILLE = 'MA2',  FX = 1298.)
             )

DEFLIST =DEFI_LIST_INST(DEFI_LIST=_F(LIST_INST = L_INST,),
                        ECHEC=_F(EVENEMENT     = 'ERREUR',
                                 ACTION        = 'DECOUPE',
                                 SUBD_METHODE  = 'MANUEL',
                                 SUBD_PAS      = 5,
                                 SUBD_PAS_MINI = 0.0001,),)

VL=STAT_NON_LINE(
                            MODELE=MO,
                        CHAM_MATER=CHP_MATL,EXCIT=(
                             _F(
                CHARGE = CHR_LIAI), _F(
                CHARGE = CHR_FORC,
                FONC_MULT = F_CHAR)),
                         COMP_ELAS=_F(
                RELATION = 'ELAS_VMIS_LINE',
                DEFORMATION = 'GROT_GDEP'),
                         INCREMENT=_F(
                LIST_INST = DEFLIST,
                                       ),
                         ARCHIVAGE=_F(
                LIST_INST = L_INST),
                            NEWTON=_F(
                MATRICE = 'TANGENTE',
                REAC_ITER = 1),
                       CONVERGENCE=_F(
                RESI_GLOB_MAXI = 1.E-3,
                ITER_GLOB_MAXI = 10),
                     RECH_LINEAIRE=_F( METHODE='MIXTE',
                ITER_LINE_MAXI = 2)
              )

VT=STAT_NON_LINE(
                            MODELE=MO,
                        CHAM_MATER=CHP_MATT,EXCIT=(
                             _F(
                CHARGE = CHR_LIAI), _F(
                CHARGE = CHR_FORC,
                FONC_MULT = F_CHAR)),
                         COMP_ELAS=_F(
                RELATION = 'ELAS_VMIS_TRAC',
                DEFORMATION = 'GROT_GDEP'),
                         INCREMENT=_F(
                LIST_INST = DEFLIST,
                                       ),
                         ARCHIVAGE=_F(
                LIST_INST = L_INST),
                            NEWTON=_F(
                MATRICE = 'TANGENTE',
                REAC_ITER = 1),
                       CONVERGENCE=_F(
                RESI_GLOB_MAXI = 1.E-3,
                ITER_GLOB_MAXI = 10),
                     RECH_LINEAIRE=_F( METHODE='MIXTE',
                ITER_LINE_MAXI = 2)
              )

TEST_RESU(RESU=(_F(INST=2.0,
                   RESULTAT=VL,
                   NOM_CHAM='DEPL',
                   NOEUD='NO4',
                   NOM_CMP='DX',
                   VALE_CALC=100.0,
                   TOLE_MACHINE=1.E-3,
                   ),
                _F(INST=2.0,
                   RESULTAT=VL,
                   NOM_CHAM='DEPL',
                   NOEUD='NO4',
                   NOM_CMP='DY',
                   VALE_CALC=-37.0,
                   TOLE_MACHINE=1.E-3,
                   ),
                _F(INST=2.0,
                   POINT=1,
                   RESULTAT=VL,
                   NOM_CHAM='SIEF_ELGA',
                   NOM_CMP='SIXX',
                   VALE_CALC=1399.6600000000001,
                   TOLE_MACHINE=1.E-3,
                   MAILLE='MA1',),
                _F(INST=2.0,
                   POINT=1,
                   RESULTAT=VL,
                   NOM_CHAM='SIEF_ELGA',
                   NOM_CMP='SIXY',
                   VALE_CALC=0.0,
                   TOLE_MACHINE=1.E-3,
                   CRITERE='ABSOLU',
                   MAILLE='MA1',),
                _F(INST=2.0,
                   POINT=1,
                   RESULTAT=VL,
                   NOM_CHAM='SIEF_ELGA',
                   NOM_CMP='SIYY',
                   VALE_CALC=0.0,
                   TOLE_MACHINE=1.E-3,
                   CRITERE='ABSOLU',
                   MAILLE='MA1',),
                _F(INST=2.0,
                   POINT=1,
                   RESULTAT=VL,
                   NOM_CHAM='VARI_ELGA',
                   NOM_CMP='V1',
                   VALE_CALC=0.089099999999999999,
                   TOLE_MACHINE=1.E-3,
                   MAILLE='MA1',),
                _F(INST=3.0,
                   RESULTAT=VL,
                   NOM_CHAM='DEPL',
                   NOEUD='NO4',
                   NOM_CMP='DX',
                   VALE_CALC=0.0,
                   TOLE_MACHINE=1.E-3,
                   CRITERE='ABSOLU',
                   ),
                _F(INST=3.0,
                   RESULTAT=VL,
                   NOM_CHAM='DEPL',
                   NOEUD='NO4',
                   NOM_CMP='DY',
                   VALE_CALC=0.0,
                   TOLE_MACHINE=1.E-3,
                   CRITERE='ABSOLU',
                   ),
                _F(INST=3.0,
                   POINT=1,
                   RESULTAT=VL,
                   NOM_CHAM='SIEF_ELGA',
                   NOM_CMP='SIXX',
                   VALE_CALC=0.0,
                   TOLE_MACHINE=1.E-3,
                   CRITERE='ABSOLU',
                   MAILLE='MA1',),
                _F(INST=3.0,
                   POINT=1,
                   RESULTAT=VL,
                   NOM_CHAM='SIEF_ELGA',
                   NOM_CMP='SIXY',
                   VALE_CALC=0.0,
                   TOLE_MACHINE=1.E-3,
                   CRITERE='ABSOLU',
                   MAILLE='MA1',),
                _F(INST=3.0,
                   POINT=1,
                   RESULTAT=VL,
                   NOM_CHAM='SIEF_ELGA',
                   NOM_CMP='SIYY',
                   VALE_CALC=0.0,
                   TOLE_MACHINE=1.E-3,
                   CRITERE='ABSOLU',
                   MAILLE='MA1',),
                _F(INST=3.0,
                   POINT=1,
                   RESULTAT=VL,
                   NOM_CHAM='VARI_ELGA',
                   NOM_CMP='V1',
                   VALE_CALC=0.0,
                   
                   CRITERE='ABSOLU',
                   MAILLE='MA1',),
                ),
          )

TEST_RESU(RESU=(_F(INST=2.0,
                   RESULTAT=VT,
                   NOM_CHAM='DEPL',
                   NOEUD='NO4',
                   NOM_CMP='DX',
                   VALE_CALC=100.0,
                   TOLE_MACHINE=1.E-3,
                   ),
                _F(INST=2.0,
                   RESULTAT=VT,
                   NOM_CHAM='DEPL',
                   NOEUD='NO4',
                   NOM_CMP='DY',
                   VALE_CALC=-37.0,
                   TOLE_MACHINE=1.E-3,
                   ),
                _F(INST=2.0,
                   POINT=1,
                   RESULTAT=VT,
                   NOM_CHAM='SIEF_ELGA',
                   NOM_CMP='SIXX',
                   VALE_CALC=1399.6600000000001,
                   TOLE_MACHINE=1.E-3,
                   MAILLE='MA1',),
                _F(INST=2.0,
                   POINT=1,
                   RESULTAT=VT,
                   NOM_CHAM='SIEF_ELGA',
                   NOM_CMP='SIXY',
                   VALE_CALC=0.0,
                   TOLE_MACHINE=1.E-3,
                   CRITERE='ABSOLU',
                   MAILLE='MA1',),
                _F(INST=2.0,
                   POINT=1,
                   RESULTAT=VT,
                   NOM_CHAM='SIEF_ELGA',
                   NOM_CMP='SIYY',
                   VALE_CALC=0.0,
                   TOLE_MACHINE=1.E-3,
                   CRITERE='ABSOLU',
                   MAILLE='MA1',),
                _F(INST=2.0,
                   POINT=1,
                   RESULTAT=VT,
                   NOM_CHAM='VARI_ELGA',
                   NOM_CMP='V1',
                   VALE_CALC=0.089099999999999999,
                   TOLE_MACHINE=1.E-3,
                   MAILLE='MA1',),
                _F(INST=3.0,
                   RESULTAT=VT,
                   NOM_CHAM='DEPL',
                   NOEUD='NO4',
                   NOM_CMP='DX',
                   VALE_CALC=0.0,
                   TOLE_MACHINE=1.E-3,
                   CRITERE='ABSOLU',
                   ),
                _F(INST=3.0,
                   RESULTAT=VT,
                   NOM_CHAM='DEPL',
                   NOEUD='NO4',
                   NOM_CMP='DY',
                   VALE_CALC=0.0,
                   TOLE_MACHINE=1.E-3,
                   CRITERE='ABSOLU',
                   ),
                _F(INST=3.0,
                   POINT=1,
                   RESULTAT=VT,
                   NOM_CHAM='SIEF_ELGA',
                   NOM_CMP='SIXX',
                   VALE_CALC=0.0,
                   TOLE_MACHINE=1.E-3,
                   CRITERE='ABSOLU',
                   MAILLE='MA1',),
                _F(INST=3.0,
                   POINT=1,
                   RESULTAT=VT,
                   NOM_CHAM='SIEF_ELGA',
                   NOM_CMP='SIXY',
                   VALE_CALC=0.0,
                   TOLE_MACHINE=1.E-3,
                   CRITERE='ABSOLU',
                   MAILLE='MA1',),
                _F(INST=3.0,
                   POINT=1,
                   RESULTAT=VT,
                   NOM_CHAM='SIEF_ELGA',
                   NOM_CMP='SIYY',
                   VALE_CALC=0.0,
                   TOLE_MACHINE=1.E-3,
                   CRITERE='ABSOLU',
                   MAILLE='MA1',),
                _F(INST=3.0,
                   POINT=1,
                   RESULTAT=VT,
                   NOM_CHAM='VARI_ELGA',
                   NOM_CMP='V1',
                   VALE_CALC=0.0,
                   
                   CRITERE='ABSOLU',
                   MAILLE='MA1',),
                ),
          )

FIN()
#
