# TITRE SIMULATION NUMERIQUE DU COMPORTEMENT D'UN ASSEMBLAGE COMBUSTIBLE EN COMPRESSION ET EN FLEXION
# ======================================================================
# COPYRIGHT (C) 1991 - 2013  EDF R&D                  WWW.CODE-ASTER.ORG
# THIS PROGRAM IS FREE SOFTWARE; YOU CAN REDISTRIBUTE IT AND/OR MODIFY  
# IT UNDER THE TERMS OF THE GNU GENERAL PUBLIC LICENSE AS PUBLISHED BY  
# THE FREE SOFTWARE FOUNDATION; EITHER VERSION 2 OF THE LICENSE, OR     
# (AT YOUR OPTION) ANY LATER VERSION.                                                    
#                                                                       
# THIS PROGRAM IS DISTRIBUTED IN THE HOPE THAT IT WILL BE USEFUL, BUT   
# WITHOUT ANY WARRANTY; WITHOUT EVEN THE IMPLIED WARRANTY OF            
# MERCHANTABILITY OR FITNESS FOR A PARTICULAR PURPOSE. SEE THE GNU      
# GENERAL PUBLIC LICENSE FOR MORE DETAILS.                              
#                                                                       
# YOU SHOULD HAVE RECEIVED A COPY OF THE GNU GENERAL PUBLIC LICENSE     
# ALONG WITH THIS PROGRAM; IF NOT, WRITE TO EDF R&D CODE_ASTER,         
#    1 AVENUE DU GENERAL DE GAULLE, 92141 CLAMART CEDEX, FRANCE.        
# ======================================================================

# UTILISATION : COMPARAISON DE LA SIMULATION NUMERIQUE D'UN ASSEMBLAGE
#               COMBUSTIBLE EN COMPRESSION AVEC LES RESULTATS EXPERIMENTAUX

DEBUT(CODE=_F(NIV_PUB_WEB='INTRANET'),IMPR_MACRO='NON',PAR_LOT='NON')

tabn = LIRE_TABLE(UNITE      = 38,
                  FORMAT     = 'LIBRE',
                  SEPARATEUR = '\t')

MA1=LIRE_MAILLAGE(FORMAT='MED',UNITE=20);

COMPR = CALC_MAC3COEUR(TYPE_COEUR  = 'MONO_FROID',
                      TABLE_N     =  tabn,
                      MAILLAGE_N  =  MA1,
                      DEFORMATION = _F(UNITE_THYC   = 32,
                                       NIVE_FLUENCE = 0.,
                                       TYPE_MAINTIEN = 'FORCE',
                                       FORCE_MAINTIEN = 44967.,
                                       ARCHIMEDE      = 'NON',
                                       ),)

#----------------------------------------------------------------------
# TRACER LA COURBE FORCE-DEPLACEMENT
#----------------------------------------------------------------------

# courbe de charge de l'essai de compression

# COMP_CH = LIRE_FONCTION(UNITE=21,
#                     NOM_PARA='DX',
#                     PROL_DROITE='CONSTANT',
#                     PROL_GAUCHE = 'CONSTANT',);
# 
# 
# COMP_DCH = LIRE_FONCTION(UNITE=22,
#                     NOM_PARA='DX',
#                     PROL_DROITE='CONSTANT',
#                     PROL_GAUCHE = 'CONSTANT',);


COMPR=CALC_CHAMP(reuse =COMPR,
                 RESULTAT=COMPR,
                 FORCE=('FORC_NODA',),)

POST1=POST_RELEVE_T(ACTION=_F(OPERATION='EXTRACTION',
                              INTITULE='DX',
                              RESULTAT =COMPR,
                              NOM_CHAM ='DEPL',
                              NOM_CMP = 'DX',
                              GROUP_NO='VGRIL_10', # car l'identification des parametres est effectue avec la grille 10
                              ),)

# on decale sur 0. l'origine de la table POST1
# pour retrancher le deplacement du a la pesanteur.
ini=POST1['DX',2]
fdecal='(DX-%(ini)e) * -1.    '
formul = FORMULE(VALE=fdecal%locals(),NOM_PARA=('DX',),)
POST1=CALC_TABLE(reuse=POST1,TABLE=POST1,ACTION=_F(OPERATION='OPER',FORMULE=formul,NOM_PARA='DXdecal',),)
POST1=CALC_TABLE(reuse=POST1,TABLE=POST1,ACTION=_F(OPERATION='EXTR',NOM_PARA=('INST','DXdecal',),),)
POST1=CALC_TABLE(reuse=POST1,TABLE=POST1,ACTION=_F(OPERATION='RENOMME',NOM_PARA=['DXdecal','DX']),)

DEPLC=RECU_FONCTION(TABLE=POST1,PARA_X='INST',PARA_Y='DX',)

POST2=POST_RELEVE_T(
   ACTION=_F(INTITULE='FORCES',
             GROUP_NO=('PMNT_S'),
             RESULTAT=COMPR,
             NOM_CHAM='FORC_NODA',
             RESULTANTE=('DX','DY','DZ'),
             REPERE='GLOBAL',
             OPERATION='EXTRACTION',),)
FORC2=RECU_FONCTION(
             TABLE=POST2,
             PARA_X='INST',
             PARA_Y='DX',
             PROL_DROITE='CONSTANT',
             PROL_GAUCHE='CONSTANT',)

FORCC=CALC_FONCTION(COMB=_F(FONCTION=FORC2, COEF=-1.,),)
# 
# # l'activation des commandes suivantes permet
# # de tracer la courbe force-deplacement
# IMPR_FONCTION(FORMAT='XMGRACE',UNITE=29,
#               COURBE=(_F(FONCTION=COMP_CH ,LEGENDE='essai compression - charge'  ,MARQUEUR =   0,COULEUR =    2,STYLE = 1,),
#                       _F(FONCTION=COMP_DCH,LEGENDE='essai compression - decharge',MARQUEUR =   0,COULEUR =    2,STYLE = 1,),
#                       _F(FONC_X=DEPLC,FONC_Y=FORCC,LEGENDE='calcul',MARQUEUR =   0,COULEUR =    4,STYLE = 1,)),
#               BORNE_X=(0.,1.3E-3),BORNE_Y=(0.,40000.),ECHELLE_X='LIN',ECHELLE_Y='LIN',GRILLE_X=0.2E-3,GRILLE_Y=100.,LEGENDE_X='DX(mm)',LEGENDE_Y='effort (N)',
#               TITRE='Reacalage essai de compression RFA1300 (Deplacement grille 10)',)

TEST_TABLE(CRITERE='RELATIF',REFERENCE='SOURCE_EXTERNE',PRECISION=0.05,  VALE_CALC=9.70121E-05,VALE_REFE=9.29819951584e-05,NOM_PARA='DX',TABLE=POST1,FILTRE=_F(NOM_PARA='INST',VALE=5.500E-4,),)
TEST_TABLE(CRITERE='RELATIF',REFERENCE='SOURCE_EXTERNE',PRECISION=0.05,  VALE_CALC=5.24374E-04,VALE_REFE=0.000550362866647,NOM_PARA='DX',TABLE=POST1,FILTRE=_F(NOM_PARA='INST',VALE=7.500E-4,),)
TEST_TABLE(CRITERE='RELATIF',REFERENCE='SOURCE_EXTERNE',PRECISION=0.05,  VALE_CALC=6.80812E-04,VALE_REFE=0.00071638966572 ,NOM_PARA='DX',TABLE=POST1,FILTRE=_F(NOM_PARA='INST',VALE=8.000E-4,),)
TEST_TABLE(CRITERE='RELATIF',REFERENCE='SOURCE_EXTERNE',PRECISION=0.05,  VALE_CALC=0.00106225216357 ,VALE_REFE=0.00111429308846 ,NOM_PARA='DX',TABLE=POST1,FILTRE=_F(NOM_PARA='INST',VALE=9.000E-4,),)
TEST_TABLE(CRITERE='RELATIF',REFERENCE='SOURCE_EXTERNE',PRECISION=0.004, VALE_CALC=1.56636E-03,VALE_REFE=0.0015605        ,NOM_PARA='DX',TABLE=POST1,FILTRE=_F(NOM_PARA='INST',VALE=1.000E-3,),)
TEST_TABLE(CRITERE='RELATIF',REFERENCE='SOURCE_EXTERNE',PRECISION=0.04,  VALE_CALC=0.00146935743388,VALE_REFE=0.00152240044482 , NOM_PARA='DX',TABLE=POST1,FILTRE=_F(NOM_PARA='INST',VALE=8.050E-3,),)
TEST_TABLE(CRITERE='RELATIF',REFERENCE='SOURCE_EXTERNE',PRECISION=0.06,  VALE_CALC=0.00137235513406,VALE_REFE=0.00145638427748 ,NOM_PARA='DX',TABLE=POST1,FILTRE=_F(NOM_PARA='INST',VALE=8.1E-3,),)
TEST_TABLE(CRITERE='RELATIF',REFERENCE='SOURCE_EXTERNE',PRECISION=0.17,  VALE_CALC=0.0011783478321,VALE_REFE=0.00131753914625 ,NOM_PARA='DX',TABLE=POST1,FILTRE=_F(NOM_PARA='INST',VALE=8.2E-3,),)
TEST_TABLE(CRITERE='RELATIF',REFERENCE='SOURCE_EXTERNE',PRECISION=0.17,  VALE_CALC=9.84337E-04,VALE_REFE=0.00117394622093 ,NOM_PARA='DX',TABLE=POST1,FILTRE=_F(NOM_PARA='INST',VALE=8.3E-3,),)
TEST_TABLE(CRITERE='RELATIF',REFERENCE='SOURCE_EXTERNE',PRECISION=0.17,  VALE_CALC=7.90322E-04,VALE_REFE=0.000943959497701,NOM_PARA='DX',TABLE=POST1,FILTRE=_F(NOM_PARA='INST',VALE=8.400E-3,),)
TEST_TABLE(CRITERE='RELATIF',REFERENCE='SOURCE_EXTERNE',PRECISION=0.02,  VALE_CALC=5.62621E-04,VALE_REFE=0.0005725        ,NOM_PARA='DX',TABLE=POST1,FILTRE=_F(NOM_PARA='INST',VALE=8.500E-3,),)

TEST_FONCTION(VALEUR=_F(CRITERE='ABSOLU',REFERENCE='SOURCE_EXTERNE',PRECISION=0.5,VALE_CALC= 4.49670E+03 ,VALE_REFE= 4.49670E+03,NOM_PARA='DX',FONCTION=FORCC,VALE_PARA=5.500E-4,),)
TEST_FONCTION(VALEUR=_F(CRITERE='ABSOLU',REFERENCE='SOURCE_EXTERNE',PRECISION=0.5,VALE_CALC= 2.24835E+04 ,VALE_REFE= 2.24835E+04,NOM_PARA='DX',FONCTION=FORCC,VALE_PARA=7.500E-4,),)
TEST_FONCTION(VALEUR=_F(CRITERE='ABSOLU',REFERENCE='SOURCE_EXTERNE',PRECISION=0.5,VALE_CALC= 2.69802E+04 ,VALE_REFE= 2.69802E+04,NOM_PARA='DX',FONCTION=FORCC,VALE_PARA=8.000E-4,),)
TEST_FONCTION(VALEUR=_F(CRITERE='ABSOLU',REFERENCE='SOURCE_EXTERNE',PRECISION=0.5,VALE_CALC= 3.59736E+04 ,VALE_REFE= 3.59736E+04,NOM_PARA='DX',FONCTION=FORCC,VALE_PARA=9.000E-4,),)
TEST_FONCTION(VALEUR=_F(CRITERE='ABSOLU',REFERENCE='SOURCE_EXTERNE',PRECISION=0.5,VALE_CALC= 4.49670E+04 ,VALE_REFE= 4.49670E+04,NOM_PARA='DX',FONCTION=FORCC,VALE_PARA=1.000E-3,),)
TEST_FONCTION(VALEUR=_F(CRITERE='ABSOLU',REFERENCE='SOURCE_EXTERNE',PRECISION=0.5,VALE_CALC= 4.04703E+04 ,VALE_REFE= 4.04703E+04,NOM_PARA='DX',FONCTION=FORCC,VALE_PARA=8.050E-3,),)
TEST_FONCTION(VALEUR=_F(CRITERE='ABSOLU',REFERENCE='SOURCE_EXTERNE',PRECISION=0.5,VALE_CALC= 3.59736E+04 ,VALE_REFE= 3.59736E+04,NOM_PARA='DX',FONCTION=FORCC,VALE_PARA=8.1E-3,),)
TEST_FONCTION(VALEUR=_F(CRITERE='ABSOLU',REFERENCE='SOURCE_EXTERNE',PRECISION=0.5,VALE_CALC= 2.69802E+04 ,VALE_REFE= 2.69802E+04,NOM_PARA='DX',FONCTION=FORCC,VALE_PARA=8.2E-3,),)
TEST_FONCTION(VALEUR=_F(CRITERE='ABSOLU',REFERENCE='SOURCE_EXTERNE',PRECISION=0.5,VALE_CALC= 1.79868E+04 ,VALE_REFE= 1.79868E+04,NOM_PARA='DX',FONCTION=FORCC,VALE_PARA=8.3E-3,),)
TEST_FONCTION(VALEUR=_F(CRITERE='ABSOLU',REFERENCE='SOURCE_EXTERNE',PRECISION=0.5,VALE_CALC= 8.99340E+03 ,VALE_REFE= 8.99340E+03,NOM_PARA='DX',FONCTION=FORCC,VALE_PARA=8.4E-3,),)
TEST_FONCTION(VALEUR=_F(CRITERE='ABSOLU',REFERENCE='SOURCE_EXTERNE',PRECISION=0.5,VALE_CALC=-4.74457E-13 ,VALE_REFE=-4.74457E-13,NOM_PARA='DX',FONCTION=FORCC,VALE_PARA=8.500E-3,),)


FIN()
