# -*- coding: utf-8 -*-
# person_in_charge: francois.hamon at edf.fr
# ======================================================================
# COPYRIGHT (C) 1991 - 2016  EDF R&D                  WWW.CODE-ASTER.ORG
# THIS PROGRAM IS FREE SOFTWARE; YOU CAN REDISTRIBUTE IT AND/OR MODIFY
# IT UNDER THE TERMS OF THE GNU GENERAL PUBLIC LICENSE AS PUBLISHED BY
# THE FREE SOFTWARE FOUNDATION; EITHER VERSION 2 OF THE LICENSE, OR
# (AT YOUR OPTION) ANY LATER VERSION.
#
# THIS PROGRAM IS DISTRIBUTED IN THE HOPE THAT IT WILL BE USEFUL, BUT
# WITHOUT ANY WARRANTY; WITHOUT EVEN THE IMPLIED WARRANTY OF
# MERCHANTABILITY OR FITNESS FOR A PARTICULAR PURPOSE. SEE THE GNU
# GENERAL PUBLIC LICENSE FOR MORE DETAILS.
#
# YOU SHOULD HAVE RECEIVED A COPY OF THE GNU GENERAL PUBLIC LICENSE
# ALONG WITH THIS PROGRAM; IF NOT, WRITE TO EDF R&D CODE_ASTER,
#    1 AVENUE DU GENERAL DE GAULLE, 92141 CLAMART CEDEX, FRANCE.
# ======================================================================
# -----------------------------------------------------
# MODELISATION 3D : FLUAGE PROPRE avec effet de l'age et de la température BETON_BURGER
# -----------------------------------------------------


os.system("mfront --obuild mfron02c.mfront --interface=aster")
os.system("cp src/libAsterBehaviour.so BurgerAgeing.so")

DEBUT(CODE=_F(NIV_PUB_WEB='INTERNET'),DEBUG=_F(SDVERI='OUI'))


M=LIRE_MAILLAGE(FORMAT='MED', )

M=DEFI_GROUP( reuse=M,
              MAILLAGE=M,
              CREA_GROUP_NO=_F( GROUP_MA = 'S_INF')
           )


M=DEFI_GROUP( reuse=M,
              MAILLAGE=M,
              CREA_GROUP_NO=_F( GROUP_MA = 'S_GCH')
            )

M=DEFI_GROUP( reuse=M,
              MAILLAGE=M,
              CREA_GROUP_NO=_F( GROUP_MA = 'S_DRT')
            )

M=DEFI_GROUP( reuse=M,
              MAILLAGE=M,
              CREA_GROUP_NO=_F( GROUP_MA = 'S_AVT')
            )

M=DEFI_GROUP( reuse=M,
              MAILLAGE=M,
              CREA_GROUP_NO=_F( GROUP_MA = 'S_ARR')
            )

MO=AFFE_MODELE( MAILLAGE=M,
                AFFE=_F( TOUT = 'OUI',PHENOMENE = 'MECANIQUE',MODELISATION = '3D')
              )

FONC1=DEFI_FONCTION( NOM_PARA='SECH',
                     PROL_DROITE='LINEAIRE',
                     PROL_GAUCHE='LINEAIRE',
                     VALE=(0.0, 0.0, 1.0, 1.0,)
                   )

E=DEFI_FONCTION( NOM_PARA='TEMP',
                 PROL_DROITE='LINEAIRE',
                 PROL_GAUCHE='LINEAIRE',
                 VALE=(0.0, 31000., 1.0, 31000.,)
               )

NU=DEFI_FONCTION( NOM_PARA='TEMP',
                  PROL_DROITE='LINEAIRE',
                  PROL_GAUCHE='LINEAIRE',
                  VALE=(0.0,0.2,1.0,0.2,)
                ),

ALPHA=DEFI_CONSTANTE(VALE=0.);
NID__ = 1.0e+5;#Pa.s

KRS__ = 1.956e+5;#Pa

NIS__ = 1.570e+5;

KRD__ = 5.0E+4;

NRD__ = 1.0E+10;

NRS__ = 4.797e+10;

KAPPA = 5.9e-4;

NFD__ = 5.8e9;

ALPHA__=(1-2.000e-06)


BETON28=DEFI_MATERIAU(MFRONT=_F(     LISTE_COEF=(31000, 0.2, KRS__,  NRS__, NIS__, KRD__, NRD__, NID__, ALPHA__,
                                   0., 20., NFD__, 1.,)),
                              ELAS_FO =_F( E = E,
                                  NU = NU ,TEMP_DEF_ALPHA=0.,
                                  ALPHA = ALPHA ,
                                  FONC_DESORP = FONC1),);



TEMP28=CREA_CHAMP( OPERATION='AFFE', TYPE_CHAM='NOEU_TEMP_R', MAILLAGE=M,
                         AFFE=_F(
                               TOUT = 'OUI',
                               NOM_CMP = 'TEMP',
                               VALE = 20.)
                       )

BETON90=DEFI_MATERIAU(MFRONT=_F(     LISTE_COEF=(31000, 0.2, KRS__, NRS__, NIS__, KRD__, NRD__, NID__, ALPHA__,
                                   2100., 20., NFD__, 1.,)),
                              ELAS_FO =_F( E = E,
                                  NU = NU ,TEMP_DEF_ALPHA=0.,
                                  ALPHA = ALPHA ,
                                  FONC_DESORP = FONC1),);



TEMP90=CREA_CHAMP( OPERATION='AFFE', TYPE_CHAM='NOEU_TEMP_R', MAILLAGE=M,
                         AFFE=_F(
                               TOUT = 'OUI',
                               NOM_CMP = 'TEMP',
                               VALE = 30.)
                       )


SECH=CREA_CHAMP( OPERATION='AFFE', TYPE_CHAM='NOEU_TEMP_R', MAILLAGE=M,
                        AFFE=_F( TOUT = 'OUI',
                              NOM_CMP = 'TEMP',
                              VALE = 1.))

CM28=AFFE_MATERIAU(  MAILLAGE=M,
                   AFFE=_F( TOUT = 'OUI',
                            MATER = BETON28,),
                   AFFE_VARC=(_F(TOUT='OUI',
                                CHAM_GD=SECH,
                                NOM_VARC='SECH',
                                VALE_REF=1),
                             _F(TOUT='OUI',
                                CHAM_GD=TEMP28,
                                NOM_VARC='TEMP',
                                VALE_REF=20),),);

CM90=AFFE_MATERIAU(  MAILLAGE=M,
                   AFFE=_F( TOUT = 'OUI',
                            MATER = BETON90,),
                   AFFE_VARC=(_F(TOUT='OUI',
                                CHAM_GD=SECH,
                                NOM_VARC='SECH',
                                VALE_REF=1),
                             _F(TOUT='OUI',
                                CHAM_GD=TEMP90,
                                NOM_VARC='TEMP',
                                VALE_REF=20),),);


CH10=AFFE_CHAR_MECA( MODELE=MO,
                     DDL_IMPO=_F( GROUP_NO = 'S_INF',
                                  DZ       = 0.
                               )
                    )
CH11=AFFE_CHAR_MECA( MODELE=MO,
                     DDL_IMPO=_F( GROUP_NO = 'S_GCH',
                                  DX       = 0.
                                )
                   )

CH12=AFFE_CHAR_MECA( MODELE=MO,
                     DDL_IMPO=_F( GROUP_NO = 'S_AVT',
                                 DY       = 0.
                               ),
                  )

CH20=AFFE_CHAR_MECA_F( MODELE=MO,
                      LIAISON_UNIF=_F( GROUP_NO = 'S_DRT',
                                       DDL      = 'DX'
                                     ),
                     )
CH21=AFFE_CHAR_MECA_F( MODELE=MO,
                      LIAISON_UNIF=_F( GROUP_NO = 'S_ARR',
                                       DDL      = 'DY'
                                     )
                     )

sigm=1;



#Parametres du cas de référence 28 jours
t0=28.*3600.*24.;
t0_1h=t0+3600.;
tfin= 3600*24*800;



FORCE28=DEFI_FONCTION( NOM_PARA='INST',
                     PROL_DROITE='LINEAIRE',
                     PROL_GAUCHE='LINEAIRE',
                     VALE=(0.0, 0.0, t0,0.0,t0_1h, sigm, tfin, sigm,)
                   )

CHARG28=AFFE_CHAR_MECA_F( MODELE=MO,
                      PRES_REP=_F( GROUP_MA= 'S_SUP',
                                   PRES = FORCE28)
                    )


LINST28=DEFI_LIST_REEL(  DEBUT=0.0,INTERVALLE=(
             _F( JUSQU_A = t0,       NOMBRE = 10),
        _F( JUSQU_A = t0_1h, NOMBRE = 10),
             _F( JUSQU_A = tfin,  NOMBRE = 40))
           )

UREF28=STAT_NON_LINE( MODELE=MO,
                 CHAM_MATER=CM28,EXCIT=( _F(CHARGE = CH10),
                             _F(CHARGE = CH11),
                   _F(CHARGE = CH12),
                   _F(CHARGE = CH20),
                   _F(CHARGE = CH21),
                   _F(CHARGE = CHARG28),
                 ),
                   COMPORTEMENT=_F(RELATION='MFRONT',
                                NOM_ROUTINE='asterburgerageing',
                                LIBRAIRIE='BurgerAgeing.so',
                                RESI_INTE_MAXI=1e-11,
                                  ),
                 INCREMENT=_F(LIST_INST = LINST28,
                              ),
                 NEWTON=_F(PREDICTION = 'ELASTIQUE',
                 MATRICE = 'TANGENTE',
                           REAC_ITER = 1),
                 CONVERGENCE=_F(RESI_GLOB_MAXI = 1.E-8,
                                ITER_GLOB_MAXI = 25)
              )

UREF28=CALC_CHAMP(reuse =UREF28,
             RESULTAT=UREF28,
             CONTRAINTE='SIGM_ELNO',
             DEFORMATION=('EPSI_ELNO'),
             VARI_INTERNE='VARI_ELNO',);

TEST_RESU(RESU=(_F(NUME_ORDRE=20,
                   REFERENCE='SOURCE_EXTERNE',
                   RESULTAT=UREF28,
                   NOM_CHAM='EPSI_ELNO',
                   NOEUD='N19',
                   NOM_CMP='EPZZ',
                   VALE_CALC=-3.24100E-05,
                   VALE_REFE=-3.300E-05,
                   PRECISION=0.05,
                   MAILLE='M1',),
                _F(NUME_ORDRE=20,
                   REFERENCE='SOURCE_EXTERNE',
                   RESULTAT=UREF28,
                   NOM_CHAM='VARI_ELNO',
                   NOEUD='N19',
                   NOM_CMP='V30',
                   VALE_CALC=-1.51920629446E-07,
                   VALE_REFE=-1.563E-07,
                   PRECISION=0.05,
                   MAILLE='M1',),
                _F(NUME_ORDRE=27,
                   REFERENCE='SOURCE_EXTERNE',
                   RESULTAT=UREF28,
                   NOM_CHAM='VARI_ELNO',
                   NOEUD='N19',
                   NOM_CMP='V30',
                   VALE_CALC=-3.036647477765E-05,
                   VALE_REFE=-2.87E-05,
                   PRECISION=0.1,
                   MAILLE='M1',),
                _F(NUME_ORDRE=32.0,
                   REFERENCE='SOURCE_EXTERNE',
                   RESULTAT=UREF28,
                   NOM_CHAM='VARI_ELNO',
                   NOEUD='N19',
                   NOM_CMP='V30',
                   VALE_CALC=-3.44479718176E-05,
                   VALE_REFE=-3.29E-05,
                   PRECISION=0.05,
                   MAILLE='M1',),
                _F(NUME_ORDRE=45.0,
                   REFERENCE='SOURCE_EXTERNE',
                   RESULTAT=UREF28,
                   NOM_CHAM='VARI_ELNO',
                   NOEUD='N19',
                   NOM_CMP='V30',
                   VALE_CALC=-4.03900565356E-05,
                   VALE_REFE=-3.93E-05,
                   PRECISION=0.05,
                   MAILLE='M1',),
                _F(NUME_ORDRE=60.0,
                   REFERENCE='SOURCE_EXTERNE',
                   RESULTAT=UREF28,
                   NOM_CHAM='VARI_ELNO',
                   NOEUD='N19',
                   NOM_CMP='V30',
                   VALE_CALC=-4.43381856778E-05,
                   VALE_REFE=-4.36E-05,
                   PRECISION=0.05,
                   MAILLE='M1',),
                ),
          )


#Parametres du cas de référence 90 jours
t0=90.*3600.*24.;
t0_1h=t0+3600.;
tfin= 3600*24*859;

FORCE90=DEFI_FONCTION( NOM_PARA='INST',
                     PROL_DROITE='LINEAIRE',
                     PROL_GAUCHE='LINEAIRE',
                     VALE=(0.0, 0.0, t0,0.0,t0_1h, sigm, tfin, sigm,)
                   )

CHARG90=AFFE_CHAR_MECA_F( MODELE=MO,
                      PRES_REP=_F( GROUP_MA= 'S_SUP',
                                   PRES = FORCE90)
                    )


LINST90=DEFI_LIST_REEL(  DEBUT=0.0,INTERVALLE=(
             _F( JUSQU_A = t0,       NOMBRE = 10),
        _F( JUSQU_A = t0_1h, NOMBRE = 10),
             _F( JUSQU_A = tfin,  NOMBRE = 40))
           )

UREF90=STAT_NON_LINE( MODELE=MO,
                 CHAM_MATER=CM90,EXCIT=( _F(CHARGE = CH10),
                             _F(CHARGE = CH11),
                   _F(CHARGE = CH12),
                   _F(CHARGE = CH20),
                   _F(CHARGE = CH21),
                   _F(CHARGE = CHARG90),
                 ),
                   COMPORTEMENT=_F(RELATION='MFRONT',
                                NOM_ROUTINE='asterburgerageing',
                                LIBRAIRIE='BurgerAgeing.so',
                                RESI_INTE_MAXI=1e-11,
                                  ),
                 INCREMENT=_F(LIST_INST = LINST90,
                              ),
                 NEWTON=_F(PREDICTION = 'ELASTIQUE',
                 MATRICE = 'TANGENTE',
                           REAC_ITER = 1),
                 CONVERGENCE=_F(RESI_GLOB_MAXI = 1.E-8,
                                ITER_GLOB_MAXI = 25)
              )

UREF90=CALC_CHAMP(reuse =UREF90,
             RESULTAT=UREF90,
             CONTRAINTE='SIGM_ELNO',
             DEFORMATION=('EPSI_ELNO'),
             VARI_INTERNE='VARI_ELNO',);



TEST_RESU(RESU=(_F(NUME_ORDRE=20,
                   REFERENCE='SOURCE_EXTERNE',
                   RESULTAT=UREF90,
                   NOM_CHAM='EPSI_ELNO',
                   NOEUD='N19',
                   NOM_CMP='EPZZ',
                   VALE_CALC=-3.24442562209E-05,
                   VALE_REFE=-3.300E-05,
                   PRECISION=0.05,
                   MAILLE='M1',),
                _F(NUME_ORDRE=20,
                   REFERENCE='SOURCE_EXTERNE',
                   RESULTAT=UREF90,
                   NOM_CHAM='VARI_ELNO',
                   NOEUD='N19',
                   NOM_CMP='V30',
                   VALE_CALC=-1.86191710772E-07,
                   VALE_REFE=-1.57E-07,
                   PRECISION=0.3,
                   MAILLE='M1',),
                _F(NUME_ORDRE=25,
                   REFERENCE='SOURCE_EXTERNE',
                   RESULTAT=UREF90,
                   NOM_CHAM='VARI_ELNO',
                   NOEUD='N19',
                   NOM_CMP='V30',
                   VALE_CALC=-2.71253082562E-05,
                   VALE_REFE=-2.65E-05,
                   PRECISION=0.05,
                   MAILLE='M1',),
                _F(NUME_ORDRE=35,
                   REFERENCE='SOURCE_EXTERNE',
                   RESULTAT=UREF90,
                   NOM_CHAM='VARI_ELNO',
                   NOEUD='N19',
                   NOM_CMP='V30',
                   VALE_CALC=-3.50209856876E-05,
                   VALE_REFE=-3.42E-05,
                   PRECISION=0.05,
                   MAILLE='M1',),
                _F(NUME_ORDRE=45.0,
                   REFERENCE='SOURCE_EXTERNE',
                   RESULTAT=UREF90,
                   NOM_CHAM='VARI_ELNO',
                   NOEUD='N19',
                   NOM_CMP='V30',
                   VALE_CALC=-3.95949820792E-05,
                   VALE_REFE=-3.94E-05,
                   PRECISION=0.05,
                   MAILLE='M1',),
                _F(NUME_ORDRE=60.0,
                   REFERENCE='SOURCE_EXTERNE',
                   RESULTAT=UREF90,
                   NOM_CHAM='VARI_ELNO',
                   NOEUD='N19',
                   NOM_CMP='V30',
                   VALE_CALC=-4.414936134E-05,
                   VALE_REFE=-4.36E-05,
                   PRECISION=0.05,
                   MAILLE='M1',),
                ),
          )

FIN();
