# -*- coding: utf-8 -*-
# TITRE ESSAI DE TRACTION-CISAILLEMENT EN CONTRAINTES PLANES (CHABOCHE)
# ======================================================================
# COPYRIGHT (C) 1991 - 2015  EDF R&D                  WWW.CODE-ASTER.ORG
# THIS PROGRAM IS FREE SOFTWARE; YOU CAN REDISTRIBUTE IT AND/OR MODIFY
# IT UNDER THE TERMS OF THE GNU GENERAL PUBLIC LICENSE AS PUBLISHED BY
# THE FREE SOFTWARE FOUNDATION; EITHER VERSION 2 OF THE LICENSE, OR
# (AT YOUR OPTION) ANY LATER VERSION.
#
# THIS PROGRAM IS DISTRIBUTED IN THE HOPE THAT IT WILL BE USEFUL, BUT
# WITHOUT ANY WARRANTY; WITHOUT EVEN THE IMPLIED WARRANTY OF
# MERCHANTABILITY OR FITNESS FOR A PARTICULAR PURPOSE. SEE THE GNU
# GENERAL PUBLIC LICENSE FOR MORE DETAILS.
#
# YOU SHOULD HAVE RECEIVED A COPY OF THE GNU GENERAL PUBLIC LICENSE
# ALONG WITH THIS PROGRAM; IF NOT, WRITE TO EDF R&D CODE_ASTER,
#    1 AVENUE DU GENERAL DE GAULLE, 92141 CLAMART CEDEX, FRANCE.
# ======================================================================
#----------------------------------------------------------------------
#    CAS TEST VPCS PLAQUE CARREE EN TRACTION CISAILLEMENT PROPORTIONNEL
#                   ESSAI AVEC CHARGE EN RAMPE A 100 N
#----------------------------------------------------------------------
#        UNITES : NEWTON , MILLIMETRE , SECONDE (N,MM,S,->MPA)
#                    MODELE ELASTOPLASTIQUE DE CHABOCHE
#----------------------------------------------------------------------
#
#               Y       A                          H = 1 MM (EPAISSEUR)
#               I<----------->                     A = 1 MM (COTE)
#                                                          2
#                                                  S = 1 MM (AIRE)
#                 NO4         +  NO3
#               O-------------OB
#           H  /+             I                F(T)
#             / I             I                 A
#               I NO6         I           100 N I____
#               I-------------I  NO5            I   /I
#               I             I                 I  / I
#               I             I                 I /  I
#               I  NO1        I  NO2            I/   I
#             ++O-------------OB     - X        O---------> T
#               +             B                       1S
#
#
#----------------------------------------------------------------------
#
DEBUT(CODE=_F(NIV_PUB_WEB='INTERNET'),DEBUG=_F(SDVERI='OUI'))


CARRE=LIRE_MAILLAGE(     )

CPLAN=AFFE_MODELE(             MAILLAGE=CARRE,
                                    AFFE=_F(   PHENOMENE = 'MECANIQUE',
                                            MODELISATION = 'C_PLAN',
                                            TOUT = 'OUI'))


C1_I=187.*341.
C2_I=29.*17184.

# LE C_I DU MODELE VISC_CIN1_CHAB EST DETERMINE PAR C_I = C1*A1
ACIER=DEFI_MATERIAU(
                                    ELAS=_F(   E = 145200.,
                                            NU = .3,
                                            ALPHA = 0.,          ),
                           CIN2_CHAB=_F(   R_I = 151.,
                                            R_0 = 87.,
                                            B = 2.3,
                                            K = .43,
                                            W = 6.09,
                                            C1_I = C1_I,
                                            G1_0 = 341.,
                                            C2_I = C2_I,
                                            G2_0 = 17184.,
                                             ),
                    Chaboche=_F(
                                YoungModulus = 145200.,
                                PoissonRatio = 0.3,
                                R_inf = 151.,
                                R_0 = 87.,
                                b = 2.3,
                                k = 0.43,
                                w = 6.09,
                                C_inf_0 = C1_I,
                                C_inf_1 = C2_I,
                                g_0_0 = 341.,
                                g_0_1 = 17184.,
                                a_inf = 1.,
                    )

                                             )


MAT=AFFE_MATERIAU(            MAILLAGE=CARRE,
                                    AFFE=_F(  MAILLE = ('MA1','MA2',),
                                           MATER = ACIER,
                                           ))

LINST=DEFI_LIST_REEL(              DEBUT=0.,INTERVALLE=(
                              _F( JUSQU_A = 0.4, NOMBRE = 1),
                              _F( JUSQU_A = 1.435, NOMBRE = 30)))

TR_CS=AFFE_CHAR_MECA(             MODELE=CPLAN,DDL_IMPO=(
                 _F(  NOEUD = ('NO3','NO5',), DX = 0.),
                 _F(  NOEUD = 'NO2',  DX = 0., DY = 0.)),FORCE_NODALE=(
             _F(  NOEUD = 'NO1', FX = -1.5,   FY = -0.5),
             _F(  NOEUD = 'NO3',            FY = 0.5),
             _F(  NOEUD = 'NO4', FX = 0.5,   FY = -0.5),
             _F(  NOEUD = 'NO5',            FY = 1.0),
             _F(  NOEUD = 'NO6', FX = -1.0,   FY = -1.0))
                          )

COEF=DEFI_FONCTION(      NOM_PARA='INST',
                            PROL_DROITE='LINEAIRE',
                           PROL_GAUCHE='LINEAIRE',
                          VALE=( 0.,  0.,
                                 1.,  50.,     ))

SOLNL=STAT_NON_LINE(
               TITRE='TEST TRACTION_CISAILLEMENT CHABOCHE C_PLAN',
                            MODELE=CPLAN,
                        CHAM_MATER=MAT,
                             EXCIT=_F(
                CHARGE = TR_CS,
                FONC_MULT = COEF,
                TYPE_CHARGE = 'FIXE_CSTE'),
                COMPORTEMENT=_F(RELATION='Chaboche',
                                RESI_INTE_RELA=1.e-8),
                         INCREMENT=_F(
                LIST_INST = LINST),
                            NEWTON=_F(
                MATRICE = 'TANGENTE',
                REAC_INCR = 1,
                REAC_ITER = 1),
                       CONVERGENCE=_F(
                ITER_GLOB_MAXI = 50,
                RESI_GLOB_RELA = 1.0E-6,)
              )

SOLNL=CALC_CHAMP(reuse=SOLNL,CONTRAINTE=('SIGM_ELNO'),VARI_INTERNE=('VARI_ELNO'),DEFORMATION=('EPSI_ELNO'),RESULTAT=SOLNL,INST=1.435)

# comparaison a SSNV101B

TEST_RESU(RESU=(_F(INST=1.4350000000000001,
                   RESULTAT=SOLNL,
                   NOM_CHAM='SIGM_ELNO',
                   NOEUD='NO1',
                   NOM_CMP='SIXX',
                   VALE_CALC=143.500000118,
                   VALE_REFE=143.5,
                   REFERENCE='AUTRE_ASTER',
                   MAILLE='MA1',),
                _F(INST=1.4350000000000001,
                   RESULTAT=SOLNL,
                   NOM_CHAM='EPSI_ELNO',
                   NOEUD='NO1',
                   NOM_CMP='EPXX',
                   VALE_CALC=0.0960648895315,
                   VALE_REFE=0.096064870341893,
                   REFERENCE='AUTRE_ASTER',
                   MAILLE='MA1',),
                _F(INST=1.4350000000000001,
                   RESULTAT=SOLNL,
                   NOM_CHAM='EPSI_ELNO',
                   NOEUD='NO1',
                   NOM_CMP='EPXY',
                   VALE_CALC=0.143899682167,
                   VALE_REFE=0.14389975382192,
                   REFERENCE='AUTRE_ASTER',
                   MAILLE='MA1',),
                _F(INST=1.4350000000000001,
                   RESULTAT=SOLNL,
                   NOM_CHAM='VARI_ELNO',
                   NOEUD='NO1',
                   NOM_CMP='V5',
                   VALE_CALC=0.190153201411,
                   VALE_REFE=0.19015335583293,
                   REFERENCE='AUTRE_ASTER',
                   MAILLE='MA1',),
                ),
          )

FIN()
