# MODIF  DATE 04/04/2005   AUTEUR CIBHHPD L.SALMONA 
# RESPONSABLE D6BHHAR A.RAZAKANAIVO
# TITRE TREMPE D'UN BARREAU INFINI A SECTION CARREE (3D)
#            CONFIGURATION MANAGEMENT OF EDF VERSION
# ======================================================================
# COPYRIGHT (C) 1991 - 2001  EDF R&D                  WWW.CODE-ASTER.ORG
# THIS PROGRAM IS FREE SOFTWARE; YOU CAN REDISTRIBUTE IT AND/OR MODIFY
# IT UNDER THE TERMS OF THE GNU GENERAL PUBLIC LICENSE AS PUBLISHED BY
# THE FREE SOFTWARE FOUNDATION; EITHER VERSION 2 OF THE LICENSE, OR   
# (AT YOUR OPTION) ANY LATER VERSION.                                 
#
# THIS PROGRAM IS DISTRIBUTED IN THE HOPE THAT IT WILL BE USEFUL, BUT 
# WITHOUT ANY WARRANTY; WITHOUT EVEN THE IMPLIED WARRANTY OF          
# MERCHANTABILITY OR FITNESS FOR A PARTICULAR PURPOSE. SEE THE GNU    
# GENERAL PUBLIC LICENSE FOR MORE DETAILS.                            
#
# YOU SHOULD HAVE RECEIVED A COPY OF THE GNU GENERAL PUBLIC LICENSE   
# ALONG WITH THIS PROGRAM; IF NOT, WRITE TO EDF R&D CODE_ASTER,       
#    1 AVENUE DU GENERAL DE GAULLE, 92141 CLAMART CEDEX, FRANCE.      
# ======================================================================

DEBUT(   CODE=_F(  NOM = 'MTLP100B',NIV_PUB_WEB='INTERNET') )

# DEFINITION DES CARACTERISTIQUES DU MATERIAU

TRCMNDA=DEFI_TRC(HIST_EXP=(
  
 _F( VALE = (
-3.497E-03,  1.100E+01,  8.563E+00, -2.760E-02,
 1.220E-04, -2.955E-07,  3.402E-10, -1.517E-13,
 0.000E+00,  0.000E+00,  0.000E+00,  8.360E+02,
 0.000E+00,  0.000E+00,  0.000E+00,  8.005E+02,
 1.000E-02,  0.000E+00,  0.000E+00,  7.970E+02,
 7.554E-01,  0.000E+00,  0.000E+00,  6.676E+02,
 7.850E-01,  1.000E-02,  0.000E+00,  6.625E+02,
 7.950E-01,  2.352E-02,  0.000E+00,  6.590E+02,
 7.950E-01,  1.950E-01,  0.000E+00,  6.150E+02,
 7.950E-01,  2.050E-01,  0.000E+00,  6.099E+02,
      )),
 _F( VALE = (
-4.403E-03,  1.100E+01,  8.563E+00, -2.760E-02,
 1.220E-04, -2.955E-07,  3.402E-10, -1.517E-13,
 0.000E+00,  0.000E+00,  0.000E+00,  8.360E+02,
 0.000E+00,  0.000E+00,  0.000E+00,  7.981E+02,
 1.000E-02,  0.000E+00,  0.000E+00,  7.945E+02,
 7.321E-01,  0.000E+00,  0.000E+00,  6.650E+02,
 7.600E-01,  1.000E-02,  0.000E+00,  6.600E+02,
 7.700E-01,  2.435E-02,  0.000E+00,  6.564E+02,
 7.700E-01,  1.900E-01,  0.000E+00,  6.150E+02,
 7.700E-01,  2.000E-01,  0.000E+00,  6.100E+02,
 7.700E-01,  2.000E-01,  0.000E+00,  4.800E+02,
 7.700E-01,  2.000E-01,  1.000E-02,  4.600E+02,
 7.700E-01,  2.000E-01,  2.000E-02,  4.500E+02,
 7.700E-01,  2.000E-01,  3.000E-02,  4.300E+02,
      )),
 _F( VALE = (
-5.542E-03,  1.100E+01,  8.563E+00, -2.760E-02,
 1.220E-04, -2.955E-07,  3.402E-10, -1.517E-13,
 0.000E+00,  0.000E+00,  0.000E+00,  8.360E+02,
 0.000E+00,  0.000E+00,  0.000E+00,  7.956E+02,
 1.000E-02,  0.000E+00,  0.000E+00,  7.920E+02,
 7.277E-01,  0.000E+00,  0.000E+00,  6.622E+02,
 7.540E-01,  1.000E-02,  0.000E+00,  6.575E+02,
 7.640E-01,  2.523E-02,  0.000E+00,  6.539E+02,
 7.640E-01,  1.890E-01,  0.000E+00,  6.150E+02,
 7.640E-01,  1.990E-01,  0.000E+00,  6.103E+02,
 7.640E-01,  1.990E-01,  0.000E+00,  5.665E+02,
 7.640E-01,  1.990E-01,  1.000E-02,  4.900E+02,
 7.640E-01,  1.990E-01,  2.700E-02,  4.250E+02,
 7.640E-01,  1.990E-01,  3.700E-02,  3.485E+02,
      )),
 _F( VALE = (
-6.977E-03,  1.100E+01,  8.563E+00, -2.760E-02,
 1.220E-04, -2.955E-07,  3.402E-10, -1.517E-13,
 0.000E+00,  0.000E+00,  0.000E+00,  8.360E+02,
 0.000E+00,  0.000E+00,  0.000E+00,  7.927E+02,
 1.000E-02,  0.000E+00,  0.000E+00,  7.890E+02,
 7.163E-01,  0.000E+00,  0.000E+00,  6.595E+02,
 7.410E-01,  1.000E-02,  0.000E+00,  6.550E+02,
 7.510E-01,  2.622E-02,  0.000E+00,  6.513E+02,
 7.510E-01,  1.870E-01,  0.000E+00,  6.150E+02,
 7.510E-01,  1.970E-01,  0.000E+00,  6.105E+02,
 7.510E-01,  1.970E-01,  0.000E+00,  5.347E+02,
 7.510E-01,  1.970E-01,  1.000E-02,  4.900E+02,
 7.510E-01,  1.970E-01,  4.200E-02,  4.185E+02,
 7.510E-01,  1.970E-01,  5.200E-02,  3.738E+02,
      )),
 _F( VALE = (
-8.784E-03,  1.100E+01,  8.563E+00, -2.760E-02,
 1.220E-04, -2.955E-07,  3.402E-10, -1.517E-13,
 0.000E+00,  0.000E+00,  0.000E+00,  8.360E+02,
 0.000E+00,  0.000E+00,  0.000E+00,  7.897E+02,
 1.000E-02,  0.000E+00,  0.000E+00,  7.860E+02,
 7.039E-01,  0.000E+00,  0.000E+00,  6.568E+02,
 7.270E-01,  1.000E-02,  0.000E+00,  6.525E+02,
 7.370E-01,  2.728E-02,  0.000E+00,  6.488E+02,
 7.370E-01,  1.840E-01,  0.000E+00,  6.150E+02,
 7.370E-01,  1.940E-01,  0.000E+00,  6.107E+02,
 7.370E-01,  1.940E-01,  0.000E+00,  5.218E+02,
 7.370E-01,  1.940E-01,  1.000E-02,  4.900E+02,
 7.370E-01,  1.940E-01,  5.900E-02,  4.120E+02,
 7.370E-01,  1.940E-01,  6.900E-02,  3.802E+02,
      )),
 _F( VALE = (
-1.106E-02,  1.100E+01,  8.563E+00, -2.760E-02,
 1.220E-04, -2.955E-07,  3.402E-10, -1.517E-13,
 0.000E+00,  0.000E+00,  0.000E+00,  8.360E+02,
 0.000E+00,  0.000E+00,  0.000E+00,  7.873E+02,
 1.000E-02,  0.000E+00,  0.000E+00,  7.835E+02,
 6.924E-01,  0.000E+00,  0.000E+00,  6.541E+02,
 7.140E-01,  1.000E-02,  0.000E+00,  6.500E+02,
 7.240E-01,  2.853E-02,  0.000E+00,  6.462E+02,
 7.240E-01,  1.810E-01,  0.000E+00,  6.150E+02,
 7.240E-01,  1.910E-01,  0.000E+00,  6.109E+02,
 7.240E-01,  1.910E-01,  0.000E+00,  5.158E+02,
 7.240E-01,  1.910E-01,  1.000E-02,  4.900E+02,
 7.240E-01,  1.910E-01,  7.500E-02,  4.060E+02,
 7.240E-01,  1.910E-01,  8.500E-02,  3.802E+02,
      )),
 _F( VALE = (
-1.392E-02,  1.100E+01,  8.563E+00, -2.760E-02,
 1.220E-04, -2.955E-07,  3.402E-10, -1.517E-13,
 0.000E+00,  0.000E+00,  0.000E+00,  8.360E+02,
 0.000E+00,  0.000E+00,  0.000E+00,  7.849E+02,
 1.000E-02,  0.000E+00,  0.000E+00,  7.810E+02,
 6.800E-01,  0.000E+00,  0.000E+00,  6.514E+02,
 7.000E-01,  1.000E-02,  0.000E+00,  6.475E+02,
 7.100E-01,  3.000E-02,  0.000E+00,  6.436E+02,
 7.100E-01,  1.780E-01,  0.000E+00,  6.150E+02,
 7.100E-01,  1.880E-01,  0.000E+00,  6.111E+02,
 7.100E-01,  1.880E-01,  0.000E+00,  5.121E+02,
 7.100E-01,  1.880E-01,  1.000E-02,  4.900E+02,
 7.100E-01,  1.880E-01,  9.200E-02,  3.995E+02,
 7.100E-01,  1.880E-01,  1.020E-01,  3.774E+02,
      )),
 _F( VALE = (
-1.753E-02,  1.100E+01,  8.563E+00, -2.760E-02,
 1.220E-04, -2.955E-07,  3.402E-10, -1.517E-13,
 0.000E+00,  0.000E+00,  0.000E+00,  8.360E+02,
 0.000E+00,  0.000E+00,  0.000E+00,  7.819E+02,
 1.000E-02,  0.000E+00,  0.000E+00,  7.780E+02,
 6.685E-01,  0.000E+00,  0.000E+00,  6.486E+02,
 6.870E-01,  1.000E-02,  0.000E+00,  6.450E+02,
 6.970E-01,  3.161E-02,  0.000E+00,  6.411E+02,
 6.970E-01,  1.750E-01,  0.000E+00,  6.150E+02,
 6.970E-01,  1.850E-01,  0.000E+00,  6.114E+02,
 6.970E-01,  1.850E-01,  0.000E+00,  5.098E+02,
 6.970E-01,  1.850E-01,  1.000E-02,  4.900E+02,
 6.970E-01,  1.850E-01,  1.080E-01,  3.930E+02,
 6.970E-01,  1.850E-01,  1.180E-01,  3.732E+02,
      )),
 _F( VALE = (
-2.206E-02,  1.100E+01,  8.563E+00, -2.760E-02,
 1.220E-04, -2.955E-07,  3.402E-10, -1.517E-13,
 0.000E+00,  0.000E+00,  0.000E+00,  8.360E+02,
 0.000E+00,  0.000E+00,  0.000E+00,  7.790E+02,
 1.000E-02,  0.000E+00,  0.000E+00,  7.750E+02,
 6.561E-01,  0.000E+00,  0.000E+00,  6.459E+02,
 6.730E-01,  1.000E-02,  0.000E+00,  6.425E+02,
 6.830E-01,  3.369E-02,  0.000E+00,  6.385E+02,
 6.830E-01,  1.730E-01,  0.000E+00,  6.150E+02,
 6.830E-01,  1.830E-01,  0.000E+00,  6.116E+02,
 6.830E-01,  1.830E-01,  0.000E+00,  5.082E+02,
 6.830E-01,  1.830E-01,  1.000E-02,  4.900E+02,
 6.830E-01,  1.830E-01,  1.240E-01,  3.865E+02,
 6.830E-01,  1.830E-01,  1.340E-01,  3.683E+02,
      )),
 _F( VALE = (
-2.777E-02,  1.100E+01,  8.563E+00, -2.760E-02,
 1.220E-04, -2.955E-07,  3.402E-10, -1.517E-13,
 0.000E+00,  0.000E+00,  0.000E+00,  8.360E+02,
 0.000E+00,  0.000E+00,  0.000E+00,  7.766E+02,
 1.000E-02,  0.000E+00,  0.000E+00,  7.725E+02,
 6.447E-01,  0.000E+00,  0.000E+00,  6.431E+02,
 6.600E-01,  1.000E-02,  0.000E+00,  6.400E+02,
 6.700E-01,  3.609E-02,  0.000E+00,  6.359E+02,
 6.700E-01,  1.700E-01,  0.000E+00,  6.150E+02,
 6.700E-01,  1.800E-01,  0.000E+00,  6.119E+02,
 6.700E-01,  1.800E-01,  0.000E+00,  5.069E+02,
 6.700E-01,  1.800E-01,  1.000E-02,  4.900E+02,
 6.700E-01,  1.800E-01,  1.400E-01,  3.800E+02,
 6.700E-01,  1.800E-01,  1.500E-01,  3.631E+02,
      )),
 _F( VALE = (
-3.497E-02,  1.100E+01,  8.563E+00, -2.760E-02,
 1.220E-04, -2.955E-07,  3.402E-10, -1.517E-13,
 0.000E+00,  0.000E+00,  0.000E+00,  8.360E+02,
 0.000E+00,  0.000E+00,  0.000E+00,  7.742E+02,
 1.000E-02,  0.000E+00,  0.000E+00,  7.700E+02,
 6.218E-01,  0.000E+00,  0.000E+00,  6.407E+02,
 6.370E-01,  1.000E-02,  0.000E+00,  6.375E+02,
 6.470E-01,  3.630E-02,  0.000E+00,  6.333E+02,
 6.470E-01,  1.500E-01,  0.000E+00,  6.150E+02,
 6.470E-01,  1.600E-01,  0.000E+00,  6.118E+02,
 6.470E-01,  1.600E-01,  0.000E+00,  5.089E+02,
 6.470E-01,  1.600E-01,  1.000E-02,  4.950E+02,
 6.470E-01,  1.600E-01,  1.830E-01,  3.750E+02,
 6.470E-01,  1.600E-01,  1.930E-01,  3.611E+02,
      )),
 _F( VALE = (
-4.402E-02,  1.100E+01,  8.563E+00, -2.760E-02,
 1.220E-04, -2.955E-07,  3.402E-10, -1.517E-13,
 0.000E+00,  0.000E+00,  0.000E+00,  8.360E+02,
 0.000E+00,  0.000E+00,  0.000E+00,  7.714E+02,
 1.000E-02,  0.000E+00,  0.000E+00,  7.670E+02,
 5.999E-01,  0.000E+00,  0.000E+00,  6.381E+02,
 6.140E-01,  1.000E-02,  0.000E+00,  6.350E+02,
 6.240E-01,  3.841E-02,  0.000E+00,  6.306E+02,
 6.240E-01,  1.400E-01,  0.000E+00,  6.150E+02,
 6.240E-01,  1.500E-01,  0.000E+00,  6.119E+02,
 6.240E-01,  1.500E-01,  0.000E+00,  5.126E+02,
 6.240E-01,  1.500E-01,  1.000E-02,  5.000E+02,
 6.240E-01,  1.500E-01,  2.160E-01,  3.700E+02,
 6.240E-01,  1.500E-01,  2.260E-01,  3.574E+02,
      )),
 _F( VALE = (
-5.542E-02,  1.100E+01,  8.563E+00, -2.760E-02,
 1.220E-04, -2.955E-07,  3.402E-10, -1.517E-13,
 0.000E+00,  0.000E+00,  0.000E+00,  8.360E+02,
 0.000E+00,  0.000E+00,  0.000E+00,  7.685E+02,
 1.000E-02,  0.000E+00,  0.000E+00,  7.640E+02,
 5.781E-01,  0.000E+00,  0.000E+00,  6.354E+02,
 5.910E-01,  1.000E-02,  0.000E+00,  6.325E+02,
 6.010E-01,  4.104E-02,  0.000E+00,  6.280E+02,
 6.010E-01,  1.300E-01,  0.000E+00,  6.150E+02,
 6.010E-01,  1.400E-01,  0.000E+00,  6.121E+02,
 6.010E-01,  1.400E-01,  0.000E+00,  5.167E+02,
 6.010E-01,  1.400E-01,  1.000E-02,  5.050E+02,
 6.010E-01,  1.400E-01,  2.490E-01,  3.650E+02,
 6.010E-01,  1.400E-01,  2.590E-01,  3.533E+02,
      )),
 _F( VALE = (
-6.977E-02,  1.100E+01,  8.563E+00, -2.760E-02,
 1.220E-04, -2.955E-07,  3.402E-10, -1.517E-13,
 0.000E+00,  0.000E+00,  0.000E+00,  8.360E+02,
 0.000E+00,  0.000E+00,  0.000E+00,  7.662E+02,
 1.000E-02,  0.000E+00,  0.000E+00,  7.615E+02,
 5.569E-01,  0.000E+00,  0.000E+00,  6.326E+02,
 5.680E-01,  1.000E-02,  0.000E+00,  6.300E+02,
 5.780E-01,  4.614E-02,  0.000E+00,  6.253E+02,
 5.780E-01,  1.250E-01,  0.000E+00,  6.150E+02,
 5.780E-01,  1.350E-01,  0.000E+00,  6.124E+02,
 5.780E-01,  1.350E-01,  0.000E+00,  5.212E+02,
 5.780E-01,  1.350E-01,  1.000E-02,  5.100E+02,
 5.780E-01,  1.350E-01,  2.770E-01,  3.600E+02,
 5.780E-01,  1.350E-01,  2.870E-01,  3.488E+02,
      )),
 _F( VALE = (
-8.784E-02,  1.100E+01,  8.563E+00, -2.760E-02,
 1.220E-04, -2.955E-07,  3.402E-10, -1.517E-13,
 0.000E+00,  0.000E+00,  0.000E+00,  8.360E+02,
 0.000E+00,  0.000E+00,  0.000E+00,  7.639E+02,
 1.000E-02,  0.000E+00,  0.000E+00,  7.590E+02,
 5.358E-01,  0.000E+00,  0.000E+00,  6.298E+02,
 5.450E-01,  1.000E-02,  0.000E+00,  6.275E+02,
 5.550E-01,  5.326E-02,  0.000E+00,  6.226E+02,
 5.550E-01,  1.200E-01,  0.000E+00,  6.150E+02,
 5.550E-01,  1.300E-01,  0.000E+00,  6.127E+02,
 5.550E-01,  1.300E-01,  0.000E+00,  5.255E+02,
 5.550E-01,  1.300E-01,  1.000E-02,  5.150E+02,
 5.550E-01,  1.300E-01,  3.050E-01,  3.600E+02,
 5.550E-01,  1.300E-01,  3.150E-01,  3.495E+02,
      )),
 _F( VALE = (
-1.106E-01,  1.100E+01,  8.563E+00, -2.760E-02,
 1.220E-04, -2.955E-07,  3.402E-10, -1.517E-13,
 0.000E+00,  0.000E+00,  0.000E+00,  8.360E+02,
 0.000E+00,  0.000E+00,  0.000E+00,  7.611E+02,
 1.000E-02,  0.000E+00,  0.000E+00,  7.560E+02,
 5.122E-01,  0.000E+00,  0.000E+00,  6.275E+02,
 5.220E-01,  1.000E-02,  0.000E+00,  6.250E+02,
 5.320E-01,  5.094E-02,  0.000E+00,  6.199E+02,
 5.320E-01,  9.000E-02,  0.000E+00,  6.150E+02,
 5.320E-01,  1.000E-01,  0.000E+00,  6.125E+02,
 5.320E-01,  1.000E-01,  0.000E+00,  5.292E+02,
 5.320E-01,  1.000E-01,  1.000E-02,  5.200E+02,
 5.320E-01,  1.000E-01,  3.580E-01,  3.600E+02,
 5.320E-01,  1.000E-01,  3.680E-01,  3.508E+02,
      )),
 _F( VALE = (
-1.392E-01,  1.100E+01,  8.563E+00, -2.760E-02,
 1.220E-04, -2.955E-07,  3.402E-10, -1.517E-13,
 0.000E+00,  0.000E+00,  0.000E+00,  8.360E+02,
 0.000E+00,  0.000E+00,  0.000E+00,  7.583E+02,
 1.000E-02,  0.000E+00,  0.000E+00,  7.530E+02,
 4.904E-01,  0.000E+00,  0.000E+00,  6.248E+02,
 4.990E-01,  1.000E-02,  0.000E+00,  6.225E+02,
 5.090E-01,  5.626E-02,  0.000E+00,  6.172E+02,
 5.090E-01,  7.500E-02,  0.000E+00,  6.150E+02,
 5.090E-01,  8.500E-02,  0.000E+00,  6.127E+02,
 5.090E-01,  8.500E-02,  0.000E+00,  5.335E+02,
 5.090E-01,  8.500E-02,  1.000E-02,  5.250E+02,
 5.090E-01,  8.500E-02,  3.960E-01,  3.600E+02,
 5.090E-01,  8.500E-02,  4.060E-01,  3.515E+02,
      )),
 _F( VALE = (
-1.753E-01,  1.100E+01,  8.563E+00, -2.760E-02,
 1.220E-04, -2.955E-07,  3.402E-10, -1.517E-13,
 0.000E+00,  0.000E+00,  0.000E+00,  8.360E+02,
 0.000E+00,  0.000E+00,  0.000E+00,  7.561E+02,
 1.000E-02,  0.000E+00,  0.000E+00,  7.505E+02,
 4.671E-01,  0.000E+00,  0.000E+00,  6.225E+02,
 4.760E-01,  1.000E-02,  0.000E+00,  6.200E+02,
 4.849E-01,  5.000E-02,  0.000E+00,  6.150E+02,
 4.860E-01,  5.240E-02,  0.000E+00,  6.144E+02,
 4.860E-01,  6.000E-02,  0.000E+00,  6.125E+02,
 4.860E-01,  6.000E-02,  0.000E+00,  5.378E+02,
 4.860E-01,  6.000E-02,  1.000E-02,  5.300E+02,
 4.860E-01,  6.000E-02,  4.440E-01,  3.600E+02,
 4.860E-01,  6.000E-02,  4.540E-01,  3.522E+02,
      )),
 _F( VALE = (
-2.206E-01,  1.100E+01,  8.563E+00, -2.760E-02,
 1.220E-04, -2.955E-07,  3.402E-10, -1.517E-13,
 0.000E+00,  0.000E+00,  0.000E+00,  8.360E+02,
 0.000E+00,  0.000E+00,  0.000E+00,  7.539E+02,
 1.000E-02,  0.000E+00,  0.000E+00,  7.480E+02,
 4.445E-01,  0.000E+00,  0.000E+00,  6.200E+02,
 4.530E-01,  1.000E-02,  0.000E+00,  6.175E+02,
 4.572E-01,  3.000E-02,  0.000E+00,  6.150E+02,
 4.615E-01,  4.000E-02,  0.000E+00,  6.125E+02,
 4.630E-01,  4.000E-02,  0.000E+00,  6.116E+02,
 4.630E-01,  4.000E-02,  0.000E+00,  5.423E+02,
 4.630E-01,  4.000E-02,  1.000E-02,  5.350E+02,
 4.630E-01,  4.000E-02,  4.870E-01,  3.600E+02,
 4.630E-01,  4.000E-02,  4.970E-01,  3.527E+02,
      )),
 _F( VALE = (
-2.777E-01,  1.100E+01,  8.563E+00, -2.760E-02,
 1.220E-04, -2.955E-07,  3.402E-10, -1.517E-13,
 0.000E+00,  0.000E+00,  0.000E+00,  8.360E+02,
 0.000E+00,  0.000E+00,  0.000E+00,  7.511E+02,
 1.000E-02,  0.000E+00,  0.000E+00,  7.450E+02,
 4.350E-01,  0.000E+00,  0.000E+00,  6.150E+02,
 4.450E-01,  0.000E+00,  0.000E+00,  6.089E+02,
 4.450E-01,  0.000E+00,  0.000E+00,  5.467E+02,
 4.450E-01,  0.000E+00,  1.000E-02,  5.400E+02,
 4.450E-01,  0.000E+00,  5.450E-01,  3.600E+02,
 4.450E-01,  0.000E+00,  5.550E-01,  3.533E+02,
      )),
 _F( VALE = (
-3.497E-01,  1.100E+01,  8.563E+00, -2.760E-02,
 1.220E-04, -2.955E-07,  3.402E-10, -1.517E-13,
 0.000E+00,  0.000E+00,  0.000E+00,  8.360E+02,
 0.000E+00,  0.000E+00,  0.000E+00,  7.489E+02,
 1.000E-02,  0.000E+00,  0.000E+00,  7.420E+02,
 3.800E-01,  0.000E+00,  0.000E+00,  6.150E+02,
 3.900E-01,  0.000E+00,  0.000E+00,  6.081E+02,
 3.900E-01,  0.000E+00,  0.000E+00,  5.513E+02,
 3.900E-01,  0.000E+00,  1.000E-02,  5.450E+02,
 3.900E-01,  0.000E+00,  6.000E-01,  3.600E+02,
 3.900E-01,  0.000E+00,  6.100E-01,  3.537E+02,
      )),
 _F( VALE = (
-4.402E-01,  1.100E+01,  8.563E+00, -2.760E-02,
 1.220E-04, -2.955E-07,  3.402E-10, -1.517E-13,
 0.000E+00,  0.000E+00,  0.000E+00,  8.360E+02,
 0.000E+00,  0.000E+00,  0.000E+00,  7.473E+02,
 1.000E-02,  0.000E+00,  0.000E+00,  7.395E+02,
 3.200E-01,  0.000E+00,  0.000E+00,  6.180E+02,
 3.300E-01,  0.000E+00,  0.000E+00,  6.102E+02,
 3.300E-01,  0.000E+00,  0.000E+00,  5.558E+02,
 3.300E-01,  0.000E+00,  1.000E-02,  5.500E+02,
 3.300E-01,  0.000E+00,  6.600E-01,  3.600E+02,
 3.300E-01,  0.000E+00,  6.700E-01,  3.542E+02,
      )),
 _F( VALE = (
-5.542E-01,  1.100E+01,  8.563E+00, -2.760E-02,
 1.220E-04, -2.955E-07,  3.402E-10, -1.517E-13,
 0.000E+00,  0.000E+00,  0.000E+00,  8.360E+02,
 0.000E+00,  0.000E+00,  0.000E+00,  7.460E+02,
 1.000E-02,  0.000E+00,  0.000E+00,  7.370E+02,
 2.700E-01,  0.000E+00,  0.000E+00,  6.200E+02,
 2.800E-01,  0.000E+00,  0.000E+00,  6.110E+02,
 2.800E-01,  0.000E+00,  0.000E+00,  5.606E+02,
 2.800E-01,  0.000E+00,  1.000E-02,  5.550E+02,
 2.800E-01,  0.000E+00,  7.100E-01,  3.600E+02,
 2.800E-01,  0.000E+00,  7.200E-01,  3.544E+02,
      )),
 _F( VALE = (
-6.977E-01,  1.100E+01,  8.563E+00, -2.760E-02,
 1.220E-04, -2.955E-07,  3.402E-10, -1.517E-13,
 0.000E+00,  0.000E+00,  0.000E+00,  8.360E+02,
 0.000E+00,  0.000E+00,  0.000E+00,  7.444E+02,
 1.000E-02,  0.000E+00,  0.000E+00,  7.340E+02,
 2.200E-01,  0.000E+00,  0.000E+00,  6.250E+02,
 2.300E-01,  0.000E+00,  0.000E+00,  6.146E+02,
 2.300E-01,  0.000E+00,  0.000E+00,  5.602E+02,
 2.300E-01,  0.000E+00,  1.000E-02,  5.550E+02,
 2.300E-01,  0.000E+00,  7.600E-01,  3.600E+02,
 2.300E-01,  0.000E+00,  7.700E-01,  3.548E+02,
      )),
 _F( VALE = (
-8.784E-01,  1.100E+01,  8.563E+00, -2.760E-02,
 1.220E-04, -2.955E-07,  3.402E-10, -1.517E-13,
 0.000E+00,  0.000E+00,  0.000E+00,  8.360E+02,
 0.000E+00,  0.000E+00,  0.000E+00,  7.436E+02,
 1.000E-02,  0.000E+00,  0.000E+00,  7.310E+02,
 1.700E-01,  0.000E+00,  0.000E+00,  6.300E+02,
 1.800E-01,  0.000E+00,  0.000E+00,  6.174E+02,
 1.800E-01,  0.000E+00,  0.000E+00,  5.599E+02,
 1.800E-01,  0.000E+00,  1.000E-02,  5.550E+02,
 1.800E-01,  0.000E+00,  8.100E-01,  3.600E+02,
 1.800E-01,  0.000E+00,  8.200E-01,  3.551E+02,
      )),
 _F( VALE = (
-1.106E+00,  1.100E+01,  8.563E+00, -2.760E-02,
 1.220E-04, -2.955E-07,  3.402E-10, -1.517E-13,
 0.000E+00,  0.000E+00,  0.000E+00,  8.360E+02,
 0.000E+00,  0.000E+00,  0.000E+00,  7.380E+02,
 1.000E-02,  0.000E+00,  0.000E+00,  7.200E+02,
 1.100E-01,  0.000E+00,  0.000E+00,  6.300E+02,
 1.200E-01,  0.000E+00,  0.000E+00,  6.120E+02,
 1.200E-01,  0.000E+00,  0.000E+00,  5.595E+02,
 1.200E-01,  0.000E+00,  1.000E-02,  5.550E+02,
 1.200E-01,  0.000E+00,  8.700E-01,  3.600E+02,
 1.200E-01,  0.000E+00,  8.800E-01,  3.555E+02,
      )),
 _F( VALE = (
-1.392E+00,  1.100E+01,  8.563E+00, -2.760E-02,
 1.220E-04, -2.955E-07,  3.402E-10, -1.517E-13,
 0.000E+00,  0.000E+00,  0.000E+00,  8.360E+02,
 0.000E+00,  0.000E+00,  0.000E+00,  7.200E+02,
 1.000E-02,  0.000E+00,  0.000E+00,  7.000E+02,
 6.000E-02,  0.000E+00,  0.000E+00,  6.500E+02,
 7.000E-02,  0.000E+00,  0.000E+00,  6.300E+02,
 7.000E-02,  0.000E+00,  0.000E+00,  5.592E+02,
 7.000E-02,  0.000E+00,  1.000E-02,  5.550E+02,
 7.000E-02,  0.000E+00,  9.200E-01,  3.640E+02,
 7.000E-02,  0.000E+00,  9.300E-01,  3.598E+02,
      )),
 _F( VALE = (
-1.753E+00,  1.100E+01,  8.563E+00, -2.760E-02,
 1.220E-04, -2.955E-07,  3.402E-10, -1.517E-13,
 0.000E+00,  0.000E+00,  0.000E+00,  8.360E+02,
 0.000E+00,  0.000E+00,  0.000E+00,  6.850E+02,
 1.000E-02,  0.000E+00,  0.000E+00,  6.750E+02,
 2.000E-02,  0.000E+00,  0.000E+00,  6.700E+02,
 3.000E-02,  0.000E+00,  0.000E+00,  6.600E+02,
 3.000E-02,  0.000E+00,  0.000E+00,  5.589E+02,
 3.000E-02,  0.000E+00,  1.000E-02,  5.550E+02,
 3.000E-02,  0.000E+00,  9.600E-01,  3.680E+02,
 3.000E-02,  0.000E+00,  9.700E-01,  3.641E+02,
      )),
 _F( VALE = (
-2.206E+00,  1.100E+01,  8.563E+00, -2.760E-02,
 1.220E-04, -2.955E-07,  3.402E-10, -1.517E-13,
 0.000E+00,  0.000E+00,  0.000E+00,  8.360E+02,
 0.000E+00,  0.000E+00,  0.000E+00,  5.587E+02,
 0.000E+00,  0.000E+00,  1.000E-02,  5.550E+02,
 0.000E+00,  0.000E+00,  9.900E-01,  3.720E+02,
 0.000E+00,  0.000E+00,  1.000E+00,  3.683E+02,
      )),
 _F( VALE = (
-2.777E+00,  1.100E+01,  8.563E+00, -2.760E-02,
 1.220E-04, -2.955E-07,  3.402E-10, -1.517E-13,
 0.000E+00,  0.000E+00,  0.000E+00,  8.360E+02,
 0.000E+00,  0.000E+00,  0.000E+00,  5.536E+02,
 0.000E+00,  0.000E+00,  1.000E-02,  5.500E+02,
 0.000E+00,  0.000E+00,  9.900E-01,  3.760E+02,
 0.000E+00,  0.000E+00,  1.000E+00,  3.724E+02,
      )),
 _F( VALE = (
-3.497E+00,  1.100E+01,  8.563E+00, -2.760E-02,
 1.220E-04, -2.955E-07,  3.402E-10, -1.517E-13,
 0.000E+00,  0.000E+00,  0.000E+00,  8.360E+02,
 0.000E+00,  0.000E+00,  0.000E+00,  5.458E+02,
 0.000E+00,  0.000E+00,  1.000E-02,  5.425E+02,
 0.000E+00,  0.000E+00,  9.900E-01,  3.800E+02,
 0.000E+00,  0.000E+00,  1.000E+00,  3.767E+02,
      )),
 _F( VALE = (
-4.402E+00,  1.100E+01,  8.563E+00, -2.760E-02,
 1.220E-04, -2.955E-07,  3.402E-10, -1.517E-13,
 0.000E+00,  0.000E+00,  0.000E+00,  8.360E+02,
 0.000E+00,  0.000E+00,  0.000E+00,  5.383E+02,
 0.000E+00,  0.000E+00,  1.000E-02,  5.350E+02,
 0.000E+00,  0.000E+00,  9.200E-01,  3.840E+02,
 0.000E+00,  0.000E+00,  9.300E-01,  3.807E+02,
      )),
 _F( VALE = (
-5.542E+00,  1.100E+01,  8.563E+00, -2.760E-02,
 1.220E-04, -2.955E-07,  3.402E-10, -1.517E-13,
 0.000E+00,  0.000E+00,  0.000E+00,  8.360E+02,
 0.000E+00,  0.000E+00,  0.000E+00,  5.309E+02,
 0.000E+00,  0.000E+00,  1.000E-02,  5.275E+02,
 0.000E+00,  0.000E+00,  8.300E-01,  3.880E+02,
 0.000E+00,  0.000E+00,  8.400E-01,  3.846E+02,
      )),
 _F( VALE = (
-6.977E+00,  1.100E+01,  8.563E+00, -2.760E-02,
 1.220E-04, -2.955E-07,  3.402E-10, -1.517E-13,
 0.000E+00,  0.000E+00,  0.000E+00,  8.360E+02,
 0.000E+00,  0.000E+00,  0.000E+00,  5.235E+02,
 0.000E+00,  0.000E+00,  1.000E-02,  5.200E+02,
 0.000E+00,  0.000E+00,  7.400E-01,  3.920E+02,
 0.000E+00,  0.000E+00,  7.500E-01,  3.885E+02,
      )),
 _F( VALE = (
-8.784E+00,  1.100E+01,  8.563E+00, -2.760E-02,
 1.220E-04, -2.955E-07,  3.402E-10, -1.517E-13,
 0.000E+00,  0.000E+00,  0.000E+00,  8.360E+02,
 0.000E+00,  0.000E+00,  0.000E+00,  5.088E+02,
 0.000E+00,  0.000E+00,  1.000E-02,  5.050E+02,
 0.000E+00,  0.000E+00,  5.900E-01,  3.960E+02,
 0.000E+00,  0.000E+00,  6.000E-01,  3.922E+02,
      )),
 _F( VALE = (
-1.106E+01,  1.100E+01,  8.563E+00, -2.760E-02,
 1.220E-04, -2.955E-07,  3.402E-10, -1.517E-13,
 0.000E+00,  0.000E+00,  0.000E+00,  8.360E+02,
 0.000E+00,  0.000E+00,  0.000E+00,  4.942E+02,
 0.000E+00,  0.000E+00,  1.000E-02,  4.900E+02,
 0.000E+00,  0.000E+00,  4.400E-01,  4.000E+02,
 0.000E+00,  0.000E+00,  4.500E-01,  3.958E+02,
      )),
 _F( VALE = (
-1.392E+01,  1.100E+01,  8.563E+00, -2.760E-02,
 1.220E-04, -2.955E-07,  3.402E-10, -1.517E-13,
 0.000E+00,  0.000E+00,  0.000E+00,  8.360E+02,
 0.000E+00,  0.000E+00,  0.000E+00,  4.804E+02,
 0.000E+00,  0.000E+00,  1.000E-02,  4.750E+02,
 0.000E+00,  0.000E+00,  2.900E-01,  4.000E+02,
 0.000E+00,  0.000E+00,  3.000E-01,  3.946E+02,
      )),
 _F( VALE = (
-1.753E+01,  1.100E+01,  8.563E+00, -2.760E-02,
 1.220E-04, -2.955E-07,  3.402E-10, -1.517E-13,
 0.000E+00,  0.000E+00,  0.000E+00,  8.360E+02,
 0.000E+00,  0.000E+00,  0.000E+00,  4.692E+02,
 0.000E+00,  0.000E+00,  1.000E-02,  4.600E+02,
 0.000E+00,  0.000E+00,  1.400E-01,  4.000E+02,
 0.000E+00,  0.000E+00,  1.500E-01,  3.908E+02,
      )),
 _F( VALE = (
-2.206E+01,  1.100E+01,  8.563E+00, -2.760E-02,
 1.220E-04, -2.955E-07,  3.402E-10, -1.517E-13,
 0.000E+00,  0.000E+00,  0.000E+00,  8.360E+02,
 0.000E+00,  0.000E+00,  0.000E+00,  4.540E+02,
 0.000E+00,  0.000E+00,  1.000E-02,  4.450E+02,
 0.000E+00,  0.000E+00,  1.100E-01,  4.000E+02,
 0.000E+00,  0.000E+00,  1.200E-01,  3.910E+02,
      )),
 _F( VALE = (
-2.778E+01,  1.100E+01,  8.563E+00, -2.760E-02,
 1.220E-04, -2.955E-07,  3.402E-10, -1.517E-13,
 0.000E+00,  0.000E+00,  0.000E+00,  8.360E+02,
 0.000E+00,  0.000E+00,  0.000E+00,  4.400E+02,
 0.000E+00,  0.000E+00,  1.000E-02,  4.300E+02,
 0.000E+00,  0.000E+00,  7.000E-02,  4.000E+02,
 0.000E+00,  0.000E+00,  8.000E-02,  3.900E+02,
      )),
 _F( VALE = (
-3.497E+01,  1.100E+01,  8.563E+00, -2.760E-02,
 1.220E-04, -2.955E-07,  3.402E-10, -1.517E-13,
 0.000E+00,  0.000E+00,  0.000E+00,  8.360E+02,
 0.000E+00,  0.000E+00,  0.000E+00,  4.270E+02,
 0.000E+00,  0.000E+00,  1.000E-02,  4.150E+02,
 0.000E+00,  0.000E+00,  3.500E-02,  4.000E+02,
 0.000E+00,  0.000E+00,  4.500E-02,  3.880E+02,
      ))),
   TEMP_MS=_F( 
    SEUIL = 4.500E-01,
    AKM = -3.125E+01,
    BKM = 1.406E+01,
    TPLM = -3.497E+00)
   )

ACIER=DEFI_MATERIAU(         THER=_F(  RHO_CP = 5260000.0, LAMBDA = 33.5),
                           META_ACIER=_F(  TRC = TRCMNDA,    AR3 = 830.0,
                                       ALPHA = -0.0306,    MS0 = 400.0,
                                       AC1 = 724.0,      AC3 = 846.0,
                                      TAUX_1 = 0.034,     TAUX_3 = 0.034),
                           DURT_META=_F( F1_DURT = 200.,
                                       F2_DURT = 200.,
                                       F3_DURT = 300.,
                                       F4_DURT = 400.,
                                       C_DURT = 100.)
                        )

MAIL=LIRE_MAILLAGE( )

CHMAT=AFFE_MATERIAU(    MAILLAGE=MAIL,
                               AFFE=_F(  TOUT = 'OUI', MATER = ACIER)
                       )

MOTH=AFFE_MODELE(    MAILLAGE=MAIL,
                             AFFE=_F(  TOUT = 'OUI',
                                    MODELISATION = '3D',
                                    PHENOMENE = 'THERMIQUE')
                     )

TIMPO=DEFI_FONCTION(     NOM_RESU='TEMP',
                            NOM_PARA='INST',
                                VALE=(   0.0,    700.0,
                                       200.0,    900.0,),
                            PROL_DROITE='LINEAIRE',
                           PROL_GAUCHE='LINEAIRE'
                       )

CHTH1=AFFE_CHAR_THER_F(    MODELE=MOTH,
                              TEMP_IMPO=_F(  TOUT = 'OUI',
                                          TEMP = TIMPO)
                           )

CHTH2=AFFE_CHAR_THER(     MODELE=MOTH,
                            ECHANGE=_F(  GROUP_MA = 'GRMA3',
                                      COEF_H = 1675.0,
                                      TEMP_EXT = 15.0)
                        )

LR8=DEFI_LIST_REEL(   DEBUT=0.,INTERVALLE=(
                          _F(  JUSQU_A = 200.0,  NOMBRE = 40),
                                     _F(  JUSQU_A = 240.0,  NOMBRE = 40),
                                     _F(  JUSQU_A = 410.0,  NOMBRE = 85))
                       )

PHASINIT=CREA_CHAMP(  OPERATION='AFFE', TYPE_CHAM='CART_VAR2_R',
                           MAILLAGE=MAIL,
                           AFFE=_F(  TOUT = 'OUI',
             NOM_CMP = ( 'V1',  'V2',  'V3',  'V4',  'V5',  ),
             VALE = (  0.7,   0.0,   0.3,   0.0,   0.0,  ))
                        )

TEMPE=THER_LINEAIRE(        MODELE=MOTH,
                           CHAM_MATER=CHMAT,
                              SOLVEUR=_F( METHODE = 'LDLT', RENUM = 'RCMK'),
                           PARM_THETA=0.57,
                                EXCIT=_F(  CHARGE = CHTH1),
                            INCREMENT=_F(  LIST_INST = LR8,
                                        NUME_FIN = 40),
                            TEMP_INIT=_F(  VALE = 700.)
                       )

TEMPE=CALC_META( reuse=TEMPE,       MODELE=MOTH,
                         RESULTAT=TEMPE,
                       CHAM_MATER=CHMAT,
                        ETAT_INIT=_F( META_INIT_ELNO = PHASINIT),
                        COMP_INCR=_F(  RELATION = 'ACIER',
                                    TOUT = 'OUI'),
                   )

TEMPE=THER_LINEAIRE( reuse=TEMPE,       MODELE=MOTH,
                           CHAM_MATER=CHMAT,
                              SOLVEUR=_F( METHODE = 'LDLT', RENUM = 'RCMK'),
                           PARM_THETA=0.57,
                                EXCIT=_F(  CHARGE = CHTH2),
                            INCREMENT=_F(  LIST_INST = LR8,
                                        NUME_INIT = 40),
                            TEMP_INIT=_F(  EVOL_THER = TEMPE,
                                        NUME_INIT = 40)
                        )

TEMPE=CALC_META( reuse=TEMPE,   MODELE=MOTH,
                         RESULTAT=TEMPE,
                       CHAM_MATER=CHMAT,
                        ETAT_INIT=_F(  EVOL_THER = TEMPE,
                                    NUME_INIT = 40),
                        COMP_INCR=_F(  RELATION = 'ACIER',
                                    TOUT = 'OUI'),
                   )
                   

TEMPE=CALC_ELEM( reuse=TEMPE,       
                         RESULTAT=TEMPE,
                           OPTION=('DURT_ELNO_META',),
                             INST=( 30.0,  140.0,  300.0,  410.0, )
                   )

TEST_RESU(RESU=( 

# POINT B A 300S PROPORTION DE BAINITE
         _F(  RESULTAT = TEMPE,  NOM_CHAM = 'META_ELNO_TEMP',
           NUME_ORDRE = 110,  CRITERE = 'ABSOLU',   PRECISION = 5.E-3,
           REFERENCE = 'AUTRE_ASTER',
           MAILLE = 'M19',   NOEUD = 'N19',  NOM_CMP = 'V3',   VALE = 0.6263),

# POINT C A 300S PROPORTION DE BAINITE
          _F(  RESULTAT = TEMPE,  NOM_CHAM = 'META_ELNO_TEMP',
            NUME_ORDRE = 110,
            REFERENCE = 'AUTRE_ASTER',
            CRITERE = 'ABSOLU',   PRECISION = 2.E-2,
            MAILLE = 'M19',   NOEUD = 'N593',  NOM_CMP = 'V3',   VALE = 0.5334),

# POINT A A 410S PROPORTION DE BAINITE
          _F(  RESULTAT = TEMPE,  NOM_CHAM = 'META_ELNO_TEMP',
            NUME_ORDRE = 165,  CRITERE = 'ABSOLU',   PRECISION = 3.E-2,
            REFERENCE = 'AUTRE_ASTER',
            MAILLE = 'M13',   NOEUD = 'N13',  NOM_CMP = 'V3',   VALE = 0.7990),

# POINT A A 410S PROPORTION DE MARTENSITE
          _F(  RESULTAT = TEMPE,  NOM_CHAM = 'META_ELNO_TEMP',
            NUME_ORDRE = 165, CRITERE = 'ABSOLU',   PRECISION = 3.E-2,
            REFERENCE = 'AUTRE_ASTER',
            MAILLE = 'M13',   NOEUD = 'N13',  NOM_CMP = 'V4',   VALE = 0.1996),

# POINT B A 410S PROPORTION DE MARTENSITE
          _F(  RESULTAT = TEMPE,  NOM_CHAM = 'META_ELNO_TEMP',
            NUME_ORDRE = 165,  CRITERE = 'ABSOLU',   PRECISION = 5.E-3,
            REFERENCE = 'AUTRE_ASTER',
            MAILLE = 'M19',   NOEUD = 'N19',  NOM_CMP = 'V4',   VALE = 0.3715),

# POINT C A 410S PROPORTION DE MARTENSITE ET DURETE
          _F(  RESULTAT = TEMPE,  NOM_CHAM = 'META_ELNO_TEMP',
            NUME_ORDRE = 165, CRITERE = 'ABSOLU',   PRECISION = 2.E-2,
            REFERENCE = 'AUTRE_ASTER',
            MAILLE = 'M19',   NOEUD = 'N593',  NOM_CMP = 'V4',   VALE = 0.4638),

          _F(  RESULTAT = TEMPE,  NOM_CHAM = 'DURT_ELNO_META',  INST = 30.0,
            REFERENCE = 'AUTRE_ASTER',  CRITERE = 'ABSOLU',
            PRECISION = 5.E-3,
            MAILLE = 'M1',   NOEUD = 'N1',  NOM_CMP = 'HV',   VALE = 223.643),

          _F(  RESULTAT = TEMPE,  NOM_CHAM = 'DURT_ELNO_META',  INST = 140.0,
            REFERENCE = 'AUTRE_ASTER',
            CRITERE = 'ABSOLU',   PRECISION = 5.E-3,
            MAILLE = 'M1',   NOEUD = 'N1',  NOM_CMP = 'HV',   VALE = 106.430),

          _F(  RESULTAT = TEMPE,  NOM_CHAM = 'DURT_ELNO_META',
            NUME_ORDRE = 110, CRITERE = 'ABSOLU',   PRECISION = 5.E-3,
            REFERENCE = 'AUTRE_ASTER',
            MAILLE = 'M1',   NOEUD = 'N1',  NOM_CMP = 'HV',   VALE = 100.),

          _F(  RESULTAT = TEMPE,  NOM_CHAM = 'DURT_ELNO_META',
            NUME_ORDRE = 165,
            CRITERE = 'ABSOLU',   PRECISION = 6.5E-1,
            REFERENCE = 'NON_REGRESSION',
            MAILLE = 'M1',   NOEUD = 'N1',  NOM_CMP = 'HV',   VALE = 309.01))
          )

FIN( )
#
