# TITRE VALIDATION DU SOLVEUR MUMPS EN PARALLELE AVEC MATRICE CENTRALISEE
# ======================================================================
# COPYRIGHT (C) 1991 - 2013  EDF R&D                  WWW.CODE-ASTER.ORG
# THIS PROGRAM IS FREE SOFTWARE; YOU CAN REDISTRIBUTE IT AND/OR MODIFY
# IT UNDER THE TERMS OF THE GNU GENERAL PUBLIC LICENSE AS PUBLISHED BY
# THE FREE SOFTWARE FOUNDATION; EITHER VERSION 2 OF THE LICENSE, OR
# (AT YOUR OPTION) ANY LATER VERSION.
#
# THIS PROGRAM IS DISTRIBUTED IN THE HOPE THAT IT WILL BE USEFUL, BUT
# WITHOUT ANY WARRANTY; WITHOUT EVEN THE IMPLIED WARRANTY OF
# MERCHANTABILITY OR FITNESS FOR A PARTICULAR PURPOSE. SEE THE GNU
# GENERAL PUBLIC LICENSE FOR MORE DETAILS.
#
# YOU SHOULD HAVE RECEIVED A COPY OF THE GNU GENERAL PUBLIC LICENSE
# ALONG WITH THIS PROGRAM; IF NOT, WRITE TO EDF R&D CODE_ASTER,
#    1 AVENUE DU GENERAL DE GAULLE, 92141 CLAMART CEDEX, FRANCE.
# ======================================================================

#########################################################################
#
#   MODELISATION A : CUBE HEXA8 / 210131 DDLs / 8090562 NNZ
#   ON TESTE LES DIFFERENTES VARIANTES DE MUMPS (CENTRALISEE/DISTRIBUEE
#   PAR MAILLE ET PAR SOUS-DOMAINES), EN INFLUANT SUR L'EQUILIBRAGE
#   DE CHARGE VIA LES MOT-CLES CHARGE_PROC0_MA/SD ET SUR LE CARACTERE
#   IN_CORE/OUT_OF_CORE.
#   ON TESTE AUSSI, SUR LA PREMIERE CONFIGURATION, LES RENUMEROTEURS
#   METIS ET SCOTCH.
#   PARALLELE: VALEUR CONSEILLEE 8 PROCS
#   ON DECLINE AUSSI LA VERSION CENTRALISEE DES TESTS EN LOW-RANK EN
#   JOUANT SUR LES RENUMEROTEURS ET LES NIVEAUX DE COMPRESSION. BIEN SUR
#   LE CAS ETANT TROP PETIT, ON NE GAGNE RIEN EN TEMPS.
#########################################################################
#
# Choix du solveur
solveur = 'MUMPS';
#
# Pourcentage de memoire supplementaire que peut s'allouer MUMPS
# Rappel :
# --------------------------------------------------------------#
#                                                               #
#         JEVEUX          'DISPO'==>UTILISABLE PAR MUMPS        #
#  I-------------------I----------------------------------I     #
#    mem_aster*MEM/100        (1-mem_aster)*MEM/100             #
#                                                               #
#    ou MEM est la memoire totale indiquee dans ASTK            #
#                                                               #
# --------------------------------------------------------------#
#
# Choix de la methode de renumeration
meth_renum = 'METIS';
meth_renu2 = 'SCOTCH';
pcent_pivot=50
#
# Mode verbeux 1/2
niv_info = 2
#
DEBUT(CODE=_F(NIV_PUB_WEB='INTERNET'),DEBUG=_F(SDVERI='OUI'),
            MESURE_TEMPS=_F(NIVE_DETAIL=2, MOYENNE='OUI',))

# pour obtenir un maillage quadratique :
#----------------------------------------
# MA1=LIRE_MAILLAGE( )
# MA=CREA_MAILLAGE(MAILLAGE=MA1,LINE_QUAD=_F(TOUT='OUI'))

# pour obtenir un maillage lineaire :
#----------------------------------------
MA=LIRE_MAILLAGE(FORMAT='MED');
MAT=DEFI_MATERIAU(ELAS=_F(E=1.E+05,
                          NU=0.3));

CHAM_MAT=AFFE_MATERIAU(MAILLAGE=MA,
                       AFFE=_F(TOUT='OUI',
                               MATER=MAT));

MO=AFFE_MODELE(MAILLAGE=MA,
               AFFE=_F(TOUT='OUI',
                       PHENOMENE='MECANIQUE',
                       MODELISATION='3D'));

CHARF=AFFE_CHAR_MECA(MODELE=MO,
                     FORCE_FACE=_F(GROUP_MA='COTE_H',
                                   FZ=1.E+4));

CHARD=AFFE_CHAR_MECA(MODELE=MO,
                     DDL_IMPO=(_F(GROUP_NO='A',
                                  DX=0.,
                                  DY=0.),
                               _F(GROUP_NO='B',
                                  DY=0.),
                               _F(GROUP_MA='COTE_B',
                                  DZ=0.)));

TPS=DEFI_LIST_REEL(DEBUT=0.0,
                   INTERVALLE=_F(JUSQU_A=1,
                                 NOMBRE=1));

# 1.1 : AVEC CHARGE DUALISEE ET MUMPS CENTRALISE + METIS + FULL/LOW-RANK
# AVEC DIFFERENT NIVEAU DE COMPRESSION POSITIFS
#-----------------------------------------------------------------------

MODI_MODELE(reuse=MO, MODELE=MO, PARTITION=_F(PARALLELISME='CENTRALISE'))

MECAC=MECA_STATIQUE(INFO=niv_info,
                     MODELE=MO,
                     CHAM_MATER=CHAM_MAT,
                     EXCIT=(_F(CHARGE=CHARF),
                            _F(CHARGE=CHARD)),
                     OPTION='SANS',
                     SOLVEUR=_F(METHODE=solveur,
                                RENUM=meth_renum,
                                RESI_RELA=-1.0,
                                GESTION_MEMOIRE='OUT_OF_CORE',
                                PCENT_PIVOT=pcent_pivot,
                                LOW_RANK_TAILLE =-1.0,
                                LOW_RANK_SEUIL=0.0,
                                NPREC=-1,
                                ));

TEST_RESU(RESU=_F(NUME_ORDRE=1,
                  GROUP_NO='D',
                  REFERENCE='ANALYTIQUE',
                  RESULTAT=MECAC,
                  NOM_CHAM='DEPL',
                  NOM_CMP='DZ',
                  VALE_CALC=0.1,
                  VALE_REFE=0.1,),
          )

TEST_RESU(RESU=_F(NUME_ORDRE=1,
                  GROUP_NO='D',
                  REFERENCE='ANALYTIQUE',
                  RESULTAT=MECAC,
                  NOM_CHAM='DEPL',
                  NOM_CMP='DX',
                  VALE_CALC=0.0,
                  VALE_REFE=0.0,
                  CRITERE='ABSOLU',
                  PRECISION=1.E-08,),
          )

MECACL0=MECA_STATIQUE(INFO=niv_info,
                     MODELE=MO,
                     CHAM_MATER=CHAM_MAT,
                     EXCIT=(_F(CHARGE=CHARF),
                            _F(CHARGE=CHARD)),
                     OPTION='SANS',
                     SOLVEUR=_F(METHODE=solveur,
                                RENUM=meth_renum,
                                GESTION_MEMOIRE='OUT_OF_CORE',
                                POSTTRAITEMENTS='AUTO',RESI_RELA=1.E+6,
                                LOW_RANK_TAILLE =0.05,
                                LOW_RANK_SEUIL=0.0,
                                PCENT_PIVOT=pcent_pivot,
                                NPREC=-1,
                                ));

TEST_RESU(RESU=_F(NUME_ORDRE=1,
                  GROUP_NO='D',
                  REFERENCE='ANALYTIQUE',
                  RESULTAT=MECACL0,
                  NOM_CHAM='DEPL',
                  NOM_CMP='DZ',
                  VALE_CALC=0.1,
                  VALE_REFE=0.1,),
          )

TEST_RESU(RESU=_F(NUME_ORDRE=1,
                  GROUP_NO='D',
                  REFERENCE='ANALYTIQUE',
                  RESULTAT=MECACL0,
                  NOM_CHAM='DEPL',
                  NOM_CMP='DX',
                  VALE_CALC=0.0,
                  VALE_REFE=0.0,
                  CRITERE='ABSOLU',
                  PRECISION=1.E-08,),
          )

MECACL1=MECA_STATIQUE(INFO=niv_info,
                     MODELE=MO,
                     CHAM_MATER=CHAM_MAT,
                     EXCIT=(_F(CHARGE=CHARF),
                            _F(CHARGE=CHARD)),
                     OPTION='SANS',
                     SOLVEUR=_F(METHODE=solveur,
                                RENUM=meth_renum,
                                GESTION_MEMOIRE='OUT_OF_CORE',
                                POSTTRAITEMENTS='FORCE',RESI_RELA=1.E+6,
                                LOW_RANK_TAILLE =0.05,
                                LOW_RANK_SEUIL=1.E-12,
                                PCENT_PIVOT=pcent_pivot,
                                NPREC=-1,
                                ));

TEST_RESU(RESU=_F(NUME_ORDRE=1,
                  GROUP_NO='D',
                  REFERENCE='ANALYTIQUE',
                  RESULTAT=MECACL1,
                  NOM_CHAM='DEPL',
                  NOM_CMP='DZ',
                  VALE_CALC=0.1,
                  VALE_REFE=0.1,),
          )

TEST_RESU(RESU=_F(NUME_ORDRE=1,
                  GROUP_NO='D',
                  REFERENCE='ANALYTIQUE',
                  RESULTAT=MECACL1,
                  NOM_CHAM='DEPL',
                  NOM_CMP='DX',
                  VALE_CALC=0.0,
                  VALE_REFE=0.0,
                  CRITERE='ABSOLU',
                  PRECISION=1.E-08,),
          )
MECACL9=MECA_STATIQUE(INFO=niv_info,
                     MODELE=MO,
                     CHAM_MATER=CHAM_MAT,
                     EXCIT=(_F(CHARGE=CHARF),
                            _F(CHARGE=CHARD)),
                     OPTION='SANS',
                     SOLVEUR=_F(METHODE=solveur,
                                RENUM=meth_renum,
                                GESTION_MEMOIRE='OUT_OF_CORE',
                                POSTTRAITEMENTS='MINI',RESI_RELA=1.E+6,
                                LOW_RANK_TAILLE =0.05,
                                LOW_RANK_SEUIL=1.E-9,
                                PCENT_PIVOT=pcent_pivot,
                                NPREC=-1,
                                ));

TEST_RESU(RESU=_F(NUME_ORDRE=1,
                  GROUP_NO='D',
                  REFERENCE='ANALYTIQUE',
                  RESULTAT=MECACL9,
                  NOM_CHAM='DEPL',
                  NOM_CMP='DZ',
                  VALE_CALC=0.1,
                  VALE_REFE=0.1,),
          )

TEST_RESU(RESU=_F(NUME_ORDRE=1,
                  GROUP_NO='D',
                  REFERENCE='ANALYTIQUE',
                  RESULTAT=MECACL9,
                  NOM_CHAM='DEPL',
                  NOM_CMP='DX',
                  VALE_CALC=0.0,
                  VALE_REFE=0.0,
                  CRITERE='ABSOLU',
                  PRECISION=1.E-08,),
          )

# 1.2 : AVEC CHARGE DUALISEE ET MUMPS CENTRALISE + SCOTCH + FULL/LOW-RANK
# AVEC DIFFERENT NIVEAU DE COMPRESSION POSITIF ET NEGATIF
#--------------------------------------------------------

MECAC2=MECA_STATIQUE(INFO=niv_info,
                     MODELE=MO,
                     CHAM_MATER=CHAM_MAT,
                     EXCIT=(_F(CHARGE=CHARF),
                            _F(CHARGE=CHARD)),
                     OPTION='SANS',
                     SOLVEUR=_F(METHODE=solveur,
                                RENUM=meth_renu2,
                                RESI_RELA=-1.0,
                                GESTION_MEMOIRE='OUT_OF_CORE',
                                LOW_RANK_TAILLE =-1.0,
                                LOW_RANK_SEUIL=0.0,
                                PCENT_PIVOT=pcent_pivot,
                                NPREC=-1,
                                ));

TEST_RESU(RESU=_F(NUME_ORDRE=1,
                  GROUP_NO='D',
                  REFERENCE='ANALYTIQUE',
                  RESULTAT=MECAC2,
                  NOM_CHAM='DEPL',
                  NOM_CMP='DZ',
                  VALE_CALC=0.1,
                  VALE_REFE=0.1,),
          )

TEST_RESU(RESU=_F(NUME_ORDRE=1,
                  GROUP_NO='D',
                  REFERENCE='ANALYTIQUE',
                  RESULTAT=MECAC2,
                  NOM_CHAM='DEPL',
                  NOM_CMP='DX',
                  VALE_CALC=0.,
                  VALE_REFE=0.,
                  CRITERE='ABSOLU',
                  PRECISION=1.E-08,),
          )
MECAC2L0=MECA_STATIQUE(INFO=niv_info,
                     MODELE=MO,
                     CHAM_MATER=CHAM_MAT,
                     EXCIT=(_F(CHARGE=CHARF),
                            _F(CHARGE=CHARD)),
                     OPTION='SANS',
                     SOLVEUR=_F(METHODE=solveur,
                                RENUM=meth_renu2,
                                RESI_RELA=-1.0,
                                GESTION_MEMOIRE='OUT_OF_CORE',
                                POSTTRAITEMENTS='MINI',
                                LOW_RANK_TAILLE =0.05,
                                LOW_RANK_SEUIL=0.0,
                                PCENT_PIVOT=pcent_pivot,
                                NPREC=-1,
                                ));

TEST_RESU(RESU=_F(NUME_ORDRE=1,
                  GROUP_NO='D',
                  REFERENCE='ANALYTIQUE',
                  RESULTAT=MECAC2L0,
                  NOM_CHAM='DEPL',
                  NOM_CMP='DZ',
                  VALE_CALC=0.1,
                  VALE_REFE=0.1,),
          )

TEST_RESU(RESU=_F(NUME_ORDRE=1,
                  GROUP_NO='D',
                  REFERENCE='ANALYTIQUE',
                  RESULTAT=MECAC2L0,
                  NOM_CHAM='DEPL',
                  NOM_CMP='DX',
                  VALE_CALC=0.,
                  VALE_REFE=0.,
                  CRITERE='ABSOLU',
                  PRECISION=1.E-08,),
          )

MECAC2L1=MECA_STATIQUE(INFO=niv_info,
                     MODELE=MO,
                     CHAM_MATER=CHAM_MAT,
                     EXCIT=(_F(CHARGE=CHARF),
                            _F(CHARGE=CHARD)),
                     OPTION='SANS',
                     SOLVEUR=_F(METHODE=solveur,
                                RENUM=meth_renu2,
                                RESI_RELA=-1.0,
                                GESTION_MEMOIRE='OUT_OF_CORE',
                                POSTTRAITEMENTS='MINI',
                                LOW_RANK_TAILLE =0.1,
                                LOW_RANK_SEUIL=1.E-12,
                                PCENT_PIVOT=pcent_pivot,
                                NPREC=-1,
                                ));

TEST_RESU(RESU=_F(NUME_ORDRE=1,
                  GROUP_NO='D',
                  REFERENCE='ANALYTIQUE',
                  RESULTAT=MECAC2L1,
                  NOM_CHAM='DEPL',
                  NOM_CMP='DZ',
                  VALE_CALC=0.1,
                  VALE_REFE=0.1,),
          )

TEST_RESU(RESU=_F(NUME_ORDRE=1,
                  GROUP_NO='D',
                  REFERENCE='ANALYTIQUE',
                  RESULTAT=MECAC2L1,
                  NOM_CHAM='DEPL',
                  NOM_CMP='DX',
                  VALE_CALC=0.,
                  VALE_REFE=0.,
                  CRITERE='ABSOLU',
                  PRECISION=1.E-08,),
          )

MECAC2L2=MECA_STATIQUE(INFO=niv_info,
                     MODELE=MO,
                     CHAM_MATER=CHAM_MAT,
                     EXCIT=(_F(CHARGE=CHARF),
                            _F(CHARGE=CHARD)),
                     OPTION='SANS',
                     SOLVEUR=_F(METHODE=solveur,
                                RENUM=meth_renu2,
                                GESTION_MEMOIRE='OUT_OF_CORE',
                                POSTTRAITEMENTS='MINI',
                                LOW_RANK_TAILLE =0.1,
                                LOW_RANK_SEUIL=-1.E-12,
                                PCENT_PIVOT=pcent_pivot,
                                NPREC=-1,
                                ));

TEST_RESU(RESU=_F(NUME_ORDRE=1,
                  GROUP_NO='D',
                  REFERENCE='ANALYTIQUE',
                  RESULTAT=MECAC2L2,
                  NOM_CHAM='DEPL',
                  NOM_CMP='DZ',
                  VALE_CALC=0.1,
                  VALE_REFE=0.1,),
          )

TEST_RESU(RESU=_F(NUME_ORDRE=1,
                  GROUP_NO='D',
                  REFERENCE='ANALYTIQUE',
                  RESULTAT=MECAC2L2,
                  NOM_CHAM='DEPL',
                  NOM_CMP='DX',
                  VALE_CALC=0.,
                  VALE_REFE=0.,
                  CRITERE='ABSOLU',
                  PRECISION=1.E-08,),
          )

# 2.1 : AVEC CHARGE DUALISEE ET MUMPS DISTRIBUE PAR MAILLES
#       EQUILIBRAGE DE CHARGE AUTOMATIQUE
#----------------------------------------------------------
MODI_MODELE(reuse=MO, MODELE=MO, PARTITION=_F(PARALLELISME='MAIL_DISPERSE',CHARGE_PROC0_MA=0))

MECAD1=MECA_STATIQUE(INFO=niv_info,
                     MODELE=MO,
                     CHAM_MATER=CHAM_MAT,
                     EXCIT=(_F(CHARGE=CHARF),
                            _F(CHARGE=CHARD)),
                     OPTION='SANS',
                     SOLVEUR=_F(METHODE=solveur,
                                RENUM=meth_renum,
                                RESI_RELA=-1.0,
                                GESTION_MEMOIRE='IN_CORE',
                                PCENT_PIVOT=pcent_pivot,
                                NPREC=-1,
                                ));

TEST_RESU(RESU=_F(NUME_ORDRE=1,
                  GROUP_NO='D',
                  REFERENCE='ANALYTIQUE',
                  RESULTAT=MECAD1,
                  NOM_CHAM='DEPL',
                  NOM_CMP='DZ',
                  VALE_CALC=0.1,
                  VALE_REFE=0.1,),
          )

TEST_RESU(RESU=_F(NUME_ORDRE=1,
                  GROUP_NO='D',
                  REFERENCE='ANALYTIQUE',
                  RESULTAT=MECAD1,
                  NOM_CHAM='DEPL',
                  NOM_CMP='DX',
                  VALE_CALC=0.,
                  VALE_REFE=0.,
                  CRITERE='ABSOLU',
                  PRECISION=1.E-08,),
          )

# 2.2 : AVEC CHARGE DUALISEE ET MUMPS DISTRIBUE PAR MAILLES
#       EQUILIBRAGE DE CHARGE FORCE POUR SOULAGER LE PROC 0
#----------------------------------------------------------
MODI_MODELE(reuse=MO, MODELE=MO, PARTITION=_F(PARALLELISME='MAIL_DISPERSE',CHARGE_PROC0_MA=70))

MECAD2=MECA_STATIQUE(INFO=niv_info,
                     MODELE=MO,
                     CHAM_MATER=CHAM_MAT,
                     EXCIT=(_F(CHARGE=CHARF),
                            _F(CHARGE=CHARD)),
                     OPTION='SANS',
                     SOLVEUR=_F(METHODE=solveur,
                                RENUM=meth_renum,
                                RESI_RELA=-1.0,
                                GESTION_MEMOIRE='OUT_OF_CORE',
                                PCENT_PIVOT=pcent_pivot,
                                NPREC=-1,
                                ));

TEST_RESU(RESU=_F(NUME_ORDRE=1,
                  GROUP_NO='D',
                  REFERENCE='ANALYTIQUE',
                  RESULTAT=MECAD2,
                  NOM_CHAM='DEPL',
                  NOM_CMP='DZ',
                  VALE_CALC=0.1,
                  VALE_REFE=0.1,),
          )

TEST_RESU(RESU=_F(NUME_ORDRE=1,
                  GROUP_NO='D',
                  REFERENCE='ANALYTIQUE',
                  RESULTAT=MECAD2,
                  NOM_CHAM='DEPL',
                  NOM_CMP='DX',
                  VALE_CALC=0.,
                  VALE_REFE=0.,
                  CRITERE='ABSOLU',
                  PRECISION=1.E-08,),
          )

# 3.1 : AVEC CHARGE DUALISEE ET MUMPS DISTRIBUE PAR SOUS-DOMAINES
#       EQUILIBRAGE DE CHARGE AUTOMATIQUE
#----------------------------------------------------------
SDPART = DEFI_PARTITION(
                MODELE=MO,
                NB_PART=24,
                METHODE='KMETIS',
                NOM_GROUP_MA='A_');

MODI_MODELE(reuse=MO, MODELE=MO, PARTITION=_F(PARALLELISME='SOUS_DOMAINE',PARTITION=SDPART, CHARGE_PROC0_SD=0))

MECAD3=MECA_STATIQUE(INFO=niv_info,
                     MODELE=MO,
                     CHAM_MATER=CHAM_MAT,
                     EXCIT=(_F(CHARGE=CHARF),
                            _F(CHARGE=CHARD)),
                     OPTION='SANS',
                     SOLVEUR=_F(METHODE=solveur,
                                RENUM=meth_renum,
                                RESI_RELA=-1.0,
                                PCENT_PIVOT=pcent_pivot,
                                GESTION_MEMOIRE='IN_CORE',
                                NPREC=-1,
                                ));

TEST_RESU(RESU=_F(NUME_ORDRE=1,
                  GROUP_NO='D',
                  REFERENCE='ANALYTIQUE',
                  RESULTAT=MECAD3,
                  NOM_CHAM='DEPL',
                  NOM_CMP='DZ',
                  VALE_CALC=0.1,
                  VALE_REFE=0.1,),
          )

TEST_RESU(RESU=_F(NUME_ORDRE=1,
                  GROUP_NO='D',
                  REFERENCE='ANALYTIQUE',
                  RESULTAT=MECAD3,
                  NOM_CHAM='DEPL',
                  NOM_CMP='DX',
                  VALE_CALC=0.,
                  VALE_REFE=0.,
                  CRITERE='ABSOLU',
                  PRECISION=1.E-08,),
          )

# 3.2 : AVEC CHARGE DUALISEE ET MUMPS DISTRIBUE PAR SOUS-DOMAINES
#       EQUILIBRAGE DE CHARGE FORCE POUR SOULAGER LE PROC 0
#----------------------------------------------------------
MODI_MODELE(reuse=MO, MODELE=MO, PARTITION=_F(PARALLELISME='SOUS_DOMAINE',PARTITION=SDPART, CHARGE_PROC0_SD=2))

MECAD4=MECA_STATIQUE(INFO=niv_info,
                     MODELE=MO,
                     CHAM_MATER=CHAM_MAT,
                     EXCIT=(_F(CHARGE=CHARF),
                            _F(CHARGE=CHARD)),
                     OPTION='SANS',
                     SOLVEUR=_F(METHODE=solveur,
                                RENUM=meth_renum,
                                RESI_RELA=-1.0,
                                GESTION_MEMOIRE='OUT_OF_CORE',
                                PCENT_PIVOT=pcent_pivot,
                                NPREC=-1,
                                ));

TEST_RESU(RESU=_F(NUME_ORDRE=1,
                  GROUP_NO='D',
                  REFERENCE='ANALYTIQUE',
                  RESULTAT=MECAD4,
                  NOM_CHAM='DEPL',
                  NOM_CMP='DZ',
                  VALE_CALC=0.1,
                  VALE_REFE=0.1,),
          )

TEST_RESU(RESU=_F(NUME_ORDRE=1,
                  GROUP_NO='D',
                  REFERENCE='ANALYTIQUE',
                  RESULTAT=MECAD4,
                  NOM_CHAM='DEPL',
                  NOM_CMP='DX',
                  VALE_CALC=0.,
                  VALE_REFE=0.,
                  CRITERE='ABSOLU',
                  PRECISION=1.E-08,),
          )

# 3.3 : AVEC CHARGE DUALISEE ET MUMPS DISTRIBUE PAR SOUS-DOMAINES
#       AVEC MATRICE_DISTRIBUEE
#----------------------------------------------------------
MODI_MODELE(reuse=MO, MODELE=MO, PARTITION=_F(PARALLELISME='SOUS_DOMAINE',PARTITION=SDPART, CHARGE_PROC0_SD=0))
MECAD5=MECA_STATIQUE(INFO=niv_info,
                     MODELE=MO,
                     CHAM_MATER=CHAM_MAT,
                     EXCIT=(_F(CHARGE=CHARF),
                            _F(CHARGE=CHARD)),
                     OPTION='SANS',
                     SOLVEUR=_F(METHODE=solveur,
                                RENUM=meth_renum,
                                RESI_RELA=-1.0,
                                GESTION_MEMOIRE='OUT_OF_CORE',
                                PCENT_PIVOT=pcent_pivot,
                                POSTTRAITEMENTS='FORCE',
                                NPREC=-1,
                                ));

TEST_RESU(RESU=_F(NUME_ORDRE=1,
                  GROUP_NO='D',
                  REFERENCE='ANALYTIQUE',
                  RESULTAT=MECAD5,
                  NOM_CHAM='DEPL',
                  NOM_CMP='DZ',
                  VALE_CALC=0.1,
                  VALE_REFE=0.1,),
          )

TEST_RESU(RESU=_F(NUME_ORDRE=1,
                  GROUP_NO='D',
                  REFERENCE='ANALYTIQUE',
                  RESULTAT=MECAD5,
                  NOM_CHAM='DEPL',
                  NOM_CMP='DX',
                  VALE_CALC=0.,
                  VALE_REFE=0.,
                  CRITERE='ABSOLU',
                  PRECISION=1.E-08,),
          )



FIN();
