# MODIF  DATE 10/05/2006   AUTEUR VABHHTS J.PELLET 
# TITRE VALIDATION DE MUMPS POUR LES MATRICES COMPLEXES
#            CONFIGURATION MANAGEMENT OF EDF VERSION
# ======================================================================
# COPYRIGHT (C) 1991 - 2005  EDF R&D                  WWW.CODE-ASTER.ORG
# THIS PROGRAM IS FREE SOFTWARE; YOU CAN REDISTRIBUTE IT AND/OR MODIFY
# IT UNDER THE TERMS OF THE GNU GENERAL PUBLIC LICENSE AS PUBLISHED BY
# THE FREE SOFTWARE FOUNDATION; EITHER VERSION 2 OF THE LICENSE, OR
# (AT YOUR OPTION) ANY LATER VERSION.
#
# THIS PROGRAM IS DISTRIBUTED IN THE HOPE THAT IT WILL BE USEFUL, BUT
# WITHOUT ANY WARRANTY; WITHOUT EVEN THE IMPLIED WARRANTY OF
# MERCHANTABILITY OR FITNESS FOR A PARTICULAR PURPOSE. SEE THE GNU
# GENERAL PUBLIC LICENSE FOR MORE DETAILS.
#
# YOU SHOULD HAVE RECEIVED A COPY OF THE GNU GENERAL PUBLIC LICENSE
# ALONG WITH THIS PROGRAM; IF NOT, WRITE TO EDF R&D CODE_ASTER,
#    1 AVENUE DU GENERAL DE GAULLE, 92141 CLAMART CEDEX, FRANCE.
# ======================================================================

DEBUT(CODE=_F(NOM='MUMPS03A',NIV_PUB_WEB='INTERNET')  )


MAIL=LIRE_MAILLAGE( )

AIR=DEFI_MATERIAU( FLUIDE=_F( RHO = 1.3, CELE_C = 343.+0.j))
CHAMPMAT=AFFE_MATERIAU(  MAILLAGE=MAIL, AFFE=_F( TOUT = 'OUI',  MATER = AIR) )

GUIDE=AFFE_MODELE(  MAILLAGE=MAIL,     VERIF='MAILLE',
                 AFFE=_F( TOUT = 'OUI', MODELISATION = '3D', PHENOMENE = 'ACOUSTIQUE') )

CHARACOU=AFFE_CHAR_ACOU(MODELE=GUIDE, VITE_FACE=_F( GROUP_MA = 'ENTREE', VNOR = 0.014+2.j))

IMPEACOU=AFFE_CHAR_ACOU(MODELE=GUIDE,
                 IMPE_FACE=_F( GROUP_MA = 'SORTIE', IMPE = 445.9+3.j),
                 PRES_IMPO=_F( NOEUD = 'NO600', PRES = 3.+1.j), )
CHDUAL=AFFE_CHAR_ACOU( MODELE=GUIDE,  PRES_IMPO=_F( NOEUD = 'NO500', PRES = 1.+3.j), )
CHCINE=AFFE_CHAR_CINE( MODELE=GUIDE,  ACOU_IMPO=_F( NOEUD = 'NO500', PRES = 1.+3.j), )


# 1ER CALCUL (REFERENCE) AVEC MULT_FRONT SANS CHAR_CINE :
#--------------------------------------------------------
MEL1=CALC_MATR_ELEM(CHARGE=(IMPEACOU,CHDUAL), INST=0.0, OPTION='RIGI_ACOU',  MODELE=GUIDE, CHAM_MATER=CHAMPMAT, );
NUM1=NUME_DDL(METHODE='MULT_FRONT',MATR_RIGI=MEL1, );
MATAS1=ASSE_MATRICE(NUME_DDL=NUM1, MATR_ELEM=MEL1, );

VECTELE1=CALC_VECT_ELEM(OPTION='CHAR_ACOU',  CHAM_MATER=CHAMPMAT, CHARGE=(CHARACOU,IMPEACOU,CHDUAL) )
VECTAS1=ASSE_VECTEUR(  VECT_ELEM=VECTELE1,   NUME_DDL=NUM1 )

FACT_LDLT( reuse=MATAS1,  MATR_ASSE=MATAS1 )
VECTAS1=RESO_LDLT( reuse=VECTAS1,  MATR_FACT=MATAS1, CHAM_NO=VECTAS1 )

TEST_RESU(CHAM_NO=_F( CHAM_GD = VECTAS1, NOEUD = 'NO1', NOM_CMP = 'PRES',
          VALE_C =  1.8869534967819E+00 +4.4379693694299E+00j ,   REFERENCE='NON_REGRESSION') )


# 2EME CALCUL AVEC MULT_FRONT AVEC CHAR_CINE :
#--------------------------------------------------------
MEL2=CALC_MATR_ELEM(CHARGE=(IMPEACOU), INST=0.0, OPTION='RIGI_ACOU',  MODELE=GUIDE, CHAM_MATER=CHAMPMAT, );
NUM2=NUME_DDL(METHODE='MULT_FRONT',MATR_RIGI=MEL2, );
MATAS2=ASSE_MATRICE(NUME_DDL=NUM2, MATR_ELEM=MEL2, CHAR_CINE=CHCINE  );
VCIN2=CALC_CHAR_CINE(   NUME_DDL=NUM2,  CHAR_CINE=CHCINE)

VECTELE2=CALC_VECT_ELEM(OPTION='CHAR_ACOU',  CHAM_MATER=CHAMPMAT, CHARGE=(CHARACOU,IMPEACOU) )
VECTAS2=ASSE_VECTEUR(  VECT_ELEM=VECTELE2,   NUME_DDL=NUM2 )

FACT_LDLT( reuse=MATAS2,  MATR_ASSE=MATAS2 )
VECTAS2=RESO_LDLT( reuse=VECTAS2,  MATR_FACT=MATAS2, CHAM_NO=VECTAS2, CHAM_CINE=VCIN2 )

TEST_RESU(CHAM_NO=_F( CHAM_GD = VECTAS2, NOEUD = 'NO1', NOM_CMP = 'PRES',
          VALE_C =  1.8869534967819E+00 +4.4379693694299E+00j ,   REFERENCE='AUTRE_ASTER') )


# 3EME CALCUL AVEC MUMPS AVEC CHAR_CINE :
#--------------------------------------------------------
MEL3=CALC_MATR_ELEM(CHARGE=(IMPEACOU), INST=0.0, OPTION='RIGI_ACOU',  MODELE=GUIDE, CHAM_MATER=CHAMPMAT, );
NUM3=NUME_DDL(METHODE='MUMPS',MATR_RIGI=MEL3, );
MATAS3=ASSE_MATRICE(NUME_DDL=NUM3, MATR_ELEM=MEL3, CHAR_CINE=CHCINE  );
VCIN3=CALC_CHAR_CINE(   NUME_DDL=NUM3,  CHAR_CINE=CHCINE)

VECTELE3=CALC_VECT_ELEM(OPTION='CHAR_ACOU',  CHAM_MATER=CHAMPMAT, CHARGE=(CHARACOU,IMPEACOU) )
VECTAS3=ASSE_VECTEUR(  VECT_ELEM=VECTELE3,   NUME_DDL=NUM3 )

FACT_LDLT( reuse=MATAS3,  MATR_ASSE=MATAS3 )
VECTAS3=RESO_LDLT( reuse=VECTAS3,  MATR_FACT=MATAS3, CHAM_NO=VECTAS3, CHAM_CINE=VCIN3 )

TEST_RESU(CHAM_NO=_F( CHAM_GD = VECTAS3, NOEUD = 'NO1', NOM_CMP = 'PRES',
          VALE_C =  1.8869534967819E+00 +4.4379693694299E+00j ,   REFERENCE='AUTRE_ASTER') )


FIN()
