# MODIF  DATE 08/07/2008   AUTEUR PELLET J.PELLET 
# TITRE validation du solveur MUMPS
#            CONFIGURATION MANAGEMENT OF EDF VERSION
# ======================================================================
# COPYRIGHT (C) 1991 - 2005  EDF R&D                  WWW.CODE-ASTER.ORG
# THIS PROGRAM IS FREE SOFTWARE; YOU CAN REDISTRIBUTE IT AND/OR MODIFY
# IT UNDER THE TERMS OF THE GNU GENERAL PUBLIC LICENSE AS PUBLISHED BY
# THE FREE SOFTWARE FOUNDATION; EITHER VERSION 2 OF THE LICENSE, OR
# (AT YOUR OPTION) ANY LATER VERSION.
#
# THIS PROGRAM IS DISTRIBUTED IN THE HOPE THAT IT WILL BE USEFUL, BUT
# WITHOUT ANY WARRANTY; WITHOUT EVEN THE IMPLIED WARRANTY OF
# MERCHANTABILITY OR FITNESS FOR A PARTICULAR PURPOSE. SEE THE GNU
# GENERAL PUBLIC LICENSE FOR MORE DETAILS.
#
# YOU SHOULD HAVE RECEIVED A COPY OF THE GNU GENERAL PUBLIC LICENSE
# ALONG WITH THIS PROGRAM; IF NOT, WRITE TO EDF R&D CODE_ASTER,
#    1 AVENUE DU GENERAL DE GAULLE, 92141 CLAMART CEDEX, FRANCE.
# ======================================================================
# RESPONSABLE VABHHTS J.PELLET

#########################################################################
# VALIDATION DU SOLVEUR MUMPS EN MODULANT:
#     - POUR LA PRISE EN COMPTE DES DIRICHLETS (AFFE_CHAR_CINE/MECA)
#     - POUR LES OPTIONS DE TYPE DE PB DE MUMPS (SYMDEF/SYMGEN/NONSYM)
#     - POUR LE PARALLELISME (CENTRALISE ET DISTRIBUE_MD/MC/SD).
#
# WARNING: EN MODE PARALLELE, PAS PLUS DE 4 PROCS CAR LES 3 DERNIERS
#          CALCULS SONT BASES SUR UNE REPARTITION EN 4 SOUS-DOMAINES.
#          POUR LANCER SUR PLUS DE PROC, AUGMENTER NB_PART EN CONSEQUENCE.
# PARALLELE: VALEUR CONSEILLEE 2 PROCS
#########################################################################

DEBUT(  CODE=_F(NOM='MUMPS01A',NIV_PUB_WEB='INTERNET'),DEBUG=_F(SDVERI='OUI'))
PRE_GIBI()
MA=LIRE_MAILLAGE( )
DEFI_GROUP(reuse=MA, MAILLAGE=MA, CREA_GROUP_NO=_F(TOUT_GROUP_MA='OUI',))

MO=AFFE_MODELE(   MAILLAGE=MA,
           AFFE=_F( TOUT = 'OUI',  PHENOMENE = 'MECANIQUE', MODELISATION = '3D')
                  )
#
MAT=DEFI_MATERIAU(   ELAS=_F( E = 1.E+05,  NU = 0.3, RHO=9800.)  )

#
CHAM_MAT=AFFE_MATERIAU(   MAILLAGE=MA,  AFFE=_F( TOUT = 'OUI', MATER = MAT) )

#
CHAR=AFFE_CHAR_MECA( MODELE=MO,
       DDL_IMPO=  _F( GROUP_MA = 'BASE1',  DZ = 0., DY = 0.),
       PESANTEUR=(9.81, 0., 0., -1.,) )
CHARP=AFFE_CHAR_MECA( MODELE=MO, PESANTEUR=(9.81, 0., 0., -1.,) )
CHARCI=AFFE_CHAR_CINE( MODELE=MO, MECA_IMPO=  _F( GROUP_NO = 'BASE1',  DX = 10.),  )
CHARCI3=AFFE_CHAR_CINE( MODELE=MO, MECA_IMPO=  _F( GROUP_NO = 'BASE1',  DX = 10., DY=0., DZ=0.),  )

L1=DEFI_LIST_REEL(VALE=(1., 2.))

# 1 : calcul de reference (METIS)
#----------------------------------------
RESU0=MECA_STATIQUE(       MODELE=MO, CHAM_MATER=CHAM_MAT, LIST_INST=L1,INFO=1,
                           EXCIT=( _F(CHARGE = CHAR), _F(CHARGE = CHARCI)  ),
                   SOLVEUR=_F(METHODE='MULT_FRONT',), )
TEST_RESU( RESU=_F(  RESULTAT = RESU0,  NUME_ORDRE = 1, NOM_CHAM = 'DEPL', REFERENCE='NON_REGRESSION',
                  GROUP_NO='C',NOM_CMP = 'DZ', VALE =-4.1607571899560E+01 ,PRECISION=1.e-8 ))




# 2.1 : MUMPS (centralise) charge_dualisee + charge_cine + SYMGEN:
# ----------------------------------------------------------------
RESU1=MECA_STATIQUE(       MODELE=MO, CHAM_MATER=CHAM_MAT, LIST_INST=L1,INFO=1,
                           EXCIT=( _F(CHARGE = CHAR), _F(CHARGE = CHARCI)  ),
                   SOLVEUR=_F(METHODE='MUMPS',PARALLELISME='CENTRALISE',
                              TYPE_RESOL='SYMGEN',ELIM_LAGR2='NON',PCENT_PIVOT=80,), )
TEST_RESU( RESU=_F(  RESULTAT = RESU1,  NUME_ORDRE = 1, NOM_CHAM = 'DEPL',REFERENCE='AUTRE_ASTER',
                  GROUP_NO='C',NOM_CMP = 'DZ', VALE =-4.1607571899560E+01 ,PRECISION=1.e-8 ))

# 2.2 : MUMPS (centralise) charge_cine + SYMDEF:
# ----------------------------------------------
RESU3=MECA_STATIQUE(       MODELE=MO, CHAM_MATER=CHAM_MAT, LIST_INST=L1,INFO=1,
                           EXCIT=( _F(CHARGE = CHARCI3),_F(CHARGE = CHARP)  ),
                   SOLVEUR=_F(METHODE='MUMPS',PARALLELISME='CENTRALISE',
                              TYPE_RESOL='SYMDEF'), )
TEST_RESU( RESU=_F(  RESULTAT = RESU3,  NUME_ORDRE = 1, NOM_CHAM = 'DEPL',REFERENCE='AUTRE_ASTER',
                  GROUP_NO='C',NOM_CMP = 'DZ', VALE =-4.1607571899560E+01 ,PRECISION=1.e-8 ))

#  2.3 : MUMPS (centralise)charge_dualisee + charge_cine + NONSYM:
# -----------------------------------------------------------------
RESU4=MECA_STATIQUE(       MODELE=MO, CHAM_MATER=CHAM_MAT, LIST_INST=L1,INFO=1,
                           EXCIT=( _F(CHARGE = CHAR), _F(CHARGE = CHARCI)  ),
                   SOLVEUR=_F(METHODE='MUMPS',PARALLELISME='CENTRALISE',
                     TYPE_RESOL='NONSYM',RESI_RELA=-1.,ELIM_LAGR2='NON',PCENT_PIVOT=80,), )
TEST_RESU( RESU=_F(  RESULTAT = RESU4,  NUME_ORDRE = 1, NOM_CHAM = 'DEPL',REFERENCE='AUTRE_ASTER',
                  GROUP_NO='C',NOM_CMP = 'DZ', VALE =-4.1607571899560E+01 ,PRECISION=1.e-8 ))


# 3.1 : MUMPS (distribue par mailles) charge_dualisee + charge_cine + SYMGEN:
# ----------------------------------------------------------------
RESU5=MECA_STATIQUE(       MODELE=MO, CHAM_MATER=CHAM_MAT, LIST_INST=L1,INFO=1,
                           EXCIT=( _F(CHARGE = CHAR), _F(CHARGE = CHARCI)  ),
                   SOLVEUR=_F(METHODE='MUMPS',PARALLELISME='DISTRIBUE_MD',
                              TYPE_RESOL='SYMGEN',ELIM_LAGR2='NON',PCENT_PIVOT=80,), )
TEST_RESU( RESU=_F(  RESULTAT = RESU5,  NUME_ORDRE = 1, NOM_CHAM = 'DEPL',REFERENCE='AUTRE_ASTER',
                  GROUP_NO='C',NOM_CMP = 'DZ', VALE =-4.1607571899560E+01 ,PRECISION=1.e-8 ))

# 3.2 : MUMPS (distribue par mailles) charge_cine + SYMDEF:
# ----------------------------------------------
RESU6=MECA_STATIQUE(       MODELE=MO, CHAM_MATER=CHAM_MAT, LIST_INST=L1,INFO=1,
                           EXCIT=( _F(CHARGE = CHARCI3),_F(CHARGE = CHARP)  ),
                   SOLVEUR=_F(METHODE='MUMPS',PARALLELISME='DISTRIBUE_MC',
                              TYPE_RESOL='SYMDEF'), )
TEST_RESU( RESU=_F(  RESULTAT = RESU6,  NUME_ORDRE = 1, NOM_CHAM = 'DEPL',REFERENCE='AUTRE_ASTER',
                  GROUP_NO='C',NOM_CMP = 'DZ', VALE =-4.1607571899560E+01 ,PRECISION=1.e-8 ))

#  3.3 : MUMPS (distribue par mailles) charge_dualisee + charge_cine + NONSYM:
# -----------------------------------------------------------------
RESU7=MECA_STATIQUE(       MODELE=MO, CHAM_MATER=CHAM_MAT, LIST_INST=L1,INFO=1,
                           EXCIT=( _F(CHARGE = CHAR), _F(CHARGE = CHARCI)  ),
                   SOLVEUR=_F(METHODE='MUMPS',PARALLELISME='DISTRIBUE_MD',
                              TYPE_RESOL='NONSYM',RESI_RELA=-1.,ELIM_LAGR2='NON',PCENT_PIVOT=80,), )
TEST_RESU( RESU=_F(  RESULTAT = RESU7,  NUME_ORDRE = 1, NOM_CHAM = 'DEPL',REFERENCE='AUTRE_ASTER',
                  GROUP_NO='C',NOM_CMP = 'DZ', VALE =-4.1607571899560E+01 ,PRECISION=1.e-8 ))

SDFETI = DEFI_PART_FETI(
                MODELE=MO,
                NB_PART=4,
                EXCIT=(_F(CHARGE=CHAR),),
                METHODE='KMETIS',
                NOM_GROUP_MA='SD',);
# 4.1 : MUMPS (distribue par sous-domaines) charge_dualisee + charge_cine + SYMGEN:
# ----------------------------------------------------------------
RESU8=MECA_STATIQUE(       MODELE=MO, CHAM_MATER=CHAM_MAT, LIST_INST=L1,INFO=1,
                           EXCIT=( _F(CHARGE = CHAR), _F(CHARGE = CHARCI)  ),
                   SOLVEUR=_F(METHODE='MUMPS',PARALLELISME='DISTRIBUE_SD',PARTITION=SDFETI,
                              TYPE_RESOL='SYMGEN',ELIM_LAGR2='NON',PCENT_PIVOT=80,), )
TEST_RESU( RESU=_F(  RESULTAT = RESU8,  NUME_ORDRE = 1, NOM_CHAM = 'DEPL',REFERENCE='AUTRE_ASTER',
                  GROUP_NO='C',NOM_CMP = 'DZ', VALE =-4.1607571899560E+01 ,PRECISION=1.e-8 ))

# 4.2 : MUMPS (distribue par sous-domaines) charge_cine + SYMDEF:
# ----------------------------------------------
RESU9=MECA_STATIQUE(       MODELE=MO, CHAM_MATER=CHAM_MAT, LIST_INST=L1,INFO=1,
                           EXCIT=( _F(CHARGE = CHARCI3),_F(CHARGE = CHARP)  ),
                   SOLVEUR=_F(METHODE='MUMPS',PARALLELISME='DISTRIBUE_SD',PARTITION=SDFETI,
                              TYPE_RESOL='SYMDEF'), )
TEST_RESU( RESU=_F(  RESULTAT = RESU9,  NUME_ORDRE = 1, NOM_CHAM = 'DEPL',REFERENCE='AUTRE_ASTER',
                  GROUP_NO='C',NOM_CMP = 'DZ', VALE =-4.1607571899560E+01 ,PRECISION=1.e-8 ))

#  4.3 : MUMPS (distribue par sous-domaines) charge_dualisee + charge_cine + NONSYM:
# -----------------------------------------------------------------
RESU10=MECA_STATIQUE(       MODELE=MO, CHAM_MATER=CHAM_MAT, LIST_INST=L1,INFO=1,
                           EXCIT=( _F(CHARGE = CHAR), _F(CHARGE = CHARCI)  ),
                   SOLVEUR=_F(METHODE='MUMPS',PARALLELISME='DISTRIBUE_SD',PARTITION=SDFETI,
                             TYPE_RESOL='NONSYM',RESI_RELA=-1.,ELIM_LAGR2='NON',PCENT_PIVOT=80,), )
TEST_RESU( RESU=_F(  RESULTAT = RESU10,  NUME_ORDRE = 1, NOM_CHAM = 'DEPL',REFERENCE='AUTRE_ASTER',
                  GROUP_NO='C',NOM_CMP = 'DZ', VALE =-4.1607571899560E+01 ,PRECISION=1.e-8 ))

FIN();

