# MODIF  DATE 10/09/2007   AUTEUR LEFEBVRE J-P.LEFEBVRE 
# TITRE VALIDATION DU SOLVEUR MUMPS EN PARALLELE AVEC MATRICE CENTRALISEE
#            CONFIGURATION MANAGEMENT OF EDF VERSION
# ======================================================================
# COPYRIGHT (C) 1991 - 2007  EDF R&D                  WWW.CODE-ASTER.ORG
# THIS PROGRAM IS FREE SOFTWARE; YOU CAN REDISTRIBUTE IT AND/OR MODIFY  
# IT UNDER THE TERMS OF THE GNU GENERAL PUBLIC LICENSE AS PUBLISHED BY  
# THE FREE SOFTWARE FOUNDATION; EITHER VERSION 2 OF THE LICENSE, OR     
# (AT YOUR OPTION) ANY LATER VERSION.                                                    
#                                                                       
# THIS PROGRAM IS DISTRIBUTED IN THE HOPE THAT IT WILL BE USEFUL, BUT   
# WITHOUT ANY WARRANTY; WITHOUT EVEN THE IMPLIED WARRANTY OF            
# MERCHANTABILITY OR FITNESS FOR A PARTICULAR PURPOSE. SEE THE GNU      
# GENERAL PUBLIC LICENSE FOR MORE DETAILS.                              
#                                                                       
# YOU SHOULD HAVE RECEIVED A COPY OF THE GNU GENERAL PUBLIC LICENSE     
# ALONG WITH THIS PROGRAM; IF NOT, WRITE TO EDF R&D CODE_ASTER,         
#    1 AVENUE DU GENERAL DE GAULLE, 92141 CLAMART CEDEX, FRANCE.        
# ======================================================================

#########################################################################
#                                                                       #
#   MODELISATION A : CUBE HEXA8 / 210131 DDLs / 8090562 NNZ             #
#                                                                       #
#########################################################################
#
# Choix du solveur
solveur = 'MUMPS';
#
# Pourcentage de memoire supplementaire que peut s'allouer MUMPS
# Rappel : 
# --------------------------------------------------------------#
#                                                               #
#         JEVEUX          'DISPO'==>UTILISABLE PAR MUMPS        #
#  I-------------------I----------------------------------I     #
#    mem_aster*MEM/100        (1-mem_aster)*MEM/100             #
#                                                               #
#    ou MEM est la memoire totale indiquee dans ASTK            #
#                                                               #
# --------------------------------------------------------------#
#  Dans cette memoire 'DISPO', MUMPS decide qu'il aura besoin   #
#  de XX, le parametre mem_pivot autorise MUMPS a en prendre    #
#  (1+mem_pivot/100)*XX                                         #
# --------------------------------------------------------------#
mem_pivot = 10;
#
# Choix de la methode de renumeration
meth_renum = 'METIS';
#
# Mode verbeux 1/2
niv_info = 2
#
DEBUT(CODE=_F( NOM = 'MUMPS05A',NIV_PUB_WEB='INTERNET'),DEBUG=_F(SDVERI='OUI'))

PRE_GIBI();

# pour obtenir un maillage quadratique :
#----------------------------------------
# MA1=LIRE_MAILLAGE( )
# MA=CREA_MAILLAGE(MAILLAGE=MA1,LINE_QUAD=_F(TOUT='OUI'))

# pour obtenir un maillage lineaire :
#----------------------------------------
MA=LIRE_MAILLAGE();

MAT=DEFI_MATERIAU(ELAS=_F(E=1.E+05,
                          NU=0.3,),);

CHAM_MAT=AFFE_MATERIAU(MAILLAGE=MA,
                       AFFE=_F(TOUT='OUI',
                               MATER=MAT,),);

MO=AFFE_MODELE(MAILLAGE=MA,
               AFFE=_F(GROUP_MA=('BLOC','COTE_B','COTE_H',),
                       PHENOMENE='MECANIQUE',
                       MODELISATION='3D',),);

CHARF=AFFE_CHAR_MECA(MODELE=MO,
                     FORCE_FACE=_F(GROUP_MA='COTE_H',
                                   FZ=1.E+4,),);

CHARD=AFFE_CHAR_MECA(MODELE=MO,
                     DDL_IMPO=(_F(GROUP_NO='A',
                                  DX=0.,
                                  DY=0.,),
                               _F(GROUP_NO='B',
                                  DY=0.,),
                               _F(GROUP_MA='COTE_B',
                                  DZ=0.,),),);

CHARC=AFFE_CHAR_CINE(MODELE=MO,
                     MECA_IMPO=(_F(GROUP_NO='A',
                                   DX=0.,
                                   DY=0.,),
                                _F(GROUP_NO='B',
                                   DY=0.,),
                                _F(GROUP_MA='COTE_B',
                                   DZ=0.,),),);

CHARO=AFFE_CHAR_MECA(MODELE=MO,
                     DDL_IMPO=(_F(GROUP_NO='A',
                                  DX=0.,
                                  DY=0.,),
                               _F(GROUP_NO='B',
                                  DY=0.,),),
                     FACE_IMPO=_F(GROUP_MA='COTE_B',
                                  DNOR=0.,),);

TPS=DEFI_LIST_REEL(DEBUT=0.0,
                   INTERVALLE=_F(JUSQU_A=1,
                                 NOMBRE=1,),);

# 1 : AVEC CHARGE DUALISEE : CHARD
#----------------------------------------

MECA_D=MECA_STATIQUE(INFO=niv_info,
                     MODELE=MO,
                     CHAM_MATER=CHAM_MAT,
                     EXCIT=(_F(CHARGE=CHARF,),
                            _F(CHARGE=CHARD,),),
                     OPTION='SANS',
                     SOLVEUR=_F(METHODE=solveur,
                                RENUM=meth_renum,
                                RESI_RELA=-1.0,
                                PCENT_PIVOT=mem_pivot,),);

TEST_RESU(RESU=_F(RESULTAT=MECA_D,
                  NUME_ORDRE=1,
                  NOM_CHAM='DEPL',
                  NOM_CMP='DZ',
                  GROUP_NO='D',
                  VALE=0.1,
                  REFERENCE='ANALYTIQUE',),);

TEST_RESU(RESU=_F(RESULTAT=MECA_D,
                  NUME_ORDRE=1,
                  NOM_CHAM='DEPL',
                  NOM_CMP='DX',
                  GROUP_NO='D',
                  VALE=0.0,
                  CRITERE='ABSOLU',
                  PRECISION=1e-08,
                  REFERENCE='ANALYTIQUE',),);

FIN();
