# MODIF  DATE 26/09/2005   AUTEUR VABHHTS J.PELLET 
# TITRE VALIDATION DU SOLVEUR MUMPS POUR UN MODELE DPLAN_INCO
#            CONFIGURATION MANAGEMENT OF EDF VERSION
# ======================================================================
# COPYRIGHT (C) 1991 - 2005  EDF R&D                  WWW.CODE-ASTER.ORG
# THIS PROGRAM IS FREE SOFTWARE; YOU CAN REDISTRIBUTE IT AND/OR MODIFY
# IT UNDER THE TERMS OF THE GNU GENERAL PUBLIC LICENSE AS PUBLISHED BY
# THE FREE SOFTWARE FOUNDATION; EITHER VERSION 2 OF THE LICENSE, OR
# (AT YOUR OPTION) ANY LATER VERSION.
#
# THIS PROGRAM IS DISTRIBUTED IN THE HOPE THAT IT WILL BE USEFUL, BUT
# WITHOUT ANY WARRANTY; WITHOUT EVEN THE IMPLIED WARRANTY OF
# MERCHANTABILITY OR FITNESS FOR A PARTICULAR PURPOSE. SEE THE GNU
# GENERAL PUBLIC LICENSE FOR MORE DETAILS.
#
# YOU SHOULD HAVE RECEIVED A COPY OF THE GNU GENERAL PUBLIC LICENSE
# ALONG WITH THIS PROGRAM; IF NOT, WRITE TO EDF R&D CODE_ASTER,
#    1 AVENUE DU GENERAL DE GAULLE, 92141 CLAMART CEDEX, FRANCE.
# ======================================================================
#       (CE TEST MET EN DEFAUT LE SOLVEUR MULT_FRONT)

DEBUT(CODE=_F(NOM='MUMPS02A',NIV_PUB_WEB='INTERNET') );

PRE_GIBI();
MA=LIRE_MAILLAGE();
MO=AFFE_MODELE(MAILLAGE=MA, AFFE=_F(TOUT='OUI', PHENOMENE='MECANIQUE', MODELISATION='D_PLAN_INCO',),);

MATERIAU=DEFI_MATERIAU(ELAS=_F(E=100., NU=0.4999,),);
CH_MATER=AFFE_MATERIAU(MAILLAGE=MA, AFFE=_F(TOUT='OUI',  MATER=MATERIAU,),);

SYMETRI2=AFFE_CHAR_MECA(MODELE=MO, DDL_IMPO= _F(TOUT='OUI', DX=1.0 , DY=2.0,), );

INSTANTS=DEFI_LIST_REEL(DEBUT=0.0, INTERVALLE=_F(JUSQU_A=1.0, NOMBRE=1,),);
RAMPE=DEFI_FONCTION(NOM_PARA='INST', VALE=(0.0,  0.0, 1.0,  1.0,),);

RESU=STAT_NON_LINE(MODELE=MO,     SOLVEUR=_F(METHODE='MUMPS',TYPE_RESOL='SYMGEN',PCENT_PIVOT=250,RESI_RELA=3.e-5),
                   CHAM_MATER=CH_MATER, INFO=2,
                   EXCIT=(  _F(CHARGE=SYMETRI2,),),
                   COMP_INCR=_F(RELATION='ELAS',),
                   INCREMENT=_F(LIST_INST=INSTANTS, ),
                   NEWTON=_F(REAC_ITER=1,),
                   ARCHIVAGE=_F(LIST_INST=INSTANTS,),);

TEST_RESU(RESU=(_F(RESULTAT   = RESU, INST       = 1.0,  NOM_CHAM   = 'DEPL',
                   GROUP_NO   = 'C',  NOM_CMP    = 'DX',  VALE       = 1.,
                   PRECISION  = 1.E-6, REFERENCE  = 'ANALYTIQUE',),
                _F(RESULTAT   = RESU, INST       = 1.0, NOM_CHAM   = 'DEPL',
                   GROUP_NO   = 'C',  NOM_CMP    = 'DY', VALE       = 2.0,
                   PRECISION  = 1.E-6, REFERENCE  = 'ANALYTIQUE',)
                   ));

FIN();
