# MODIF  DATE 30/07/2012   AUTEUR LEFEBVRE J-P.LEFEBVRE 
# TITRE MODES PROPRES D'UNE PLAQUE CARRE ENCASTREE SUR 2 BORDS
# perf003a.para = tps_job 200 mem_job 512Mo ncpus 1 liste_test S
#            CONFIGURATION MANAGEMENT OF EDF VERSION
# ======================================================================
# COPYRIGHT (C) 1991 - 2012  EDF R&D                  WWW.CODE-ASTER.ORG
# THIS PROGRAM IS FREE SOFTWARE; YOU CAN REDISTRIBUTE IT AND/OR MODIFY
# IT UNDER THE TERMS OF THE GNU GENERAL PUBLIC LICENSE AS PUBLISHED BY
# THE FREE SOFTWARE FOUNDATION; EITHER VERSION 2 OF THE LICENSE, OR
# (AT YOUR OPTION) ANY LATER VERSION.
#
# THIS PROGRAM IS DISTRIBUTED IN THE HOPE THAT IT WILL BE USEFUL, BUT
# WITHOUT ANY WARRANTY; WITHOUT EVEN THE IMPLIED WARRANTY OF
# MERCHANTABILITY OR FITNESS FOR A PARTICULAR PURPOSE. SEE THE GNU
# GENERAL PUBLIC LICENSE FOR MORE DETAILS.
#
# YOU SHOULD HAVE RECEIVED A COPY OF THE GNU GENERAL PUBLIC LICENSE
# ALONG WITH THIS PROGRAM; IF NOT, WRITE TO EDF R&D CODE_ASTER,
#    1 AVENUE DU GENERAL DE GAULLE, 92141 CLAMART CEDEX, FRANCE.
# ======================================================================
#       INTERET : CALCULER 10 MODES EN POSITION 11, 12, ..., 20
#---------------------------------------------------------------------------

DEBUT(CODE=_F(NOM='PERF003A',NIV_PUB_WEB='INTERNET'),DEBUG=_F(SDVERI='OUI'))

MA=LIRE_MAILLAGE(FORMAT='MED')

MODEL=AFFE_MODELE(MAILLAGE=MA,
         AFFE=_F(TOUT='OUI', PHENOMENE='MECANIQUE', MODELISATION='DKT') )

CAREL=AFFE_CARA_ELEM( MODELE=MODEL, COQUE=_F(GROUP_MA='ABCD', EPAIS=0.02) )

MAT1=DEFI_MATERIAU(ELAS=_F(E= 5.E11, NU=0.3, RHO=9800. ))
CHMAT=AFFE_MATERIAU(MAILLAGE=MA, AFFE=_F(TOUT='OUI',MATER=MAT1))

BLOQ=AFFE_CHAR_MECA(MODELE=MODEL,
        DDL_IMPO=(
          _F(GROUP_MA=('AB'), DX=0., DY=0., DZ=0., DRX=0., DRY=0., DRZ=0.),
          _F(GROUP_MA=('DA'), DX=0., DY=0., DZ=0., DRX=0., DRY=0., DRZ=0.),
        ))

MODES=CALC_MODAL(MODELE=MODEL, CHAM_MATER=CHMAT, CARA_ELEM=CAREL, CHARGE=BLOQ,
                 CALC_FREQ=_F(OPTION='BANDE', FREQ=( 840.0, 1600.0)))   # pour les frequences 11, ..., 20


TEST_RESU(RESU=
       _F( RESULTAT = MODES, PARA = 'FREQ', CRITERE = 'RELATIF',
           PRECISION = 3.E-3, NUME_ORDRE = 3, VALE = 993.5, REFERENCE = 'NON_REGRESSION'),)



FIN()
