# MODIF  DATE 22/09/2008   AUTEUR LEFEBVRE J-P.LEFEBVRE 
# TITRE CONTACT DE HERTZ ENTRE 2 DEMI-SPHERES
#            CONFIGURATION MANAGEMENT OF EDF VERSION
# ======================================================================
# COPYRIGHT (C) 1991 - 2008  EDF R&D                  WWW.CODE-ASTER.ORG
# THIS PROGRAM IS FREE SOFTWARE; YOU CAN REDISTRIBUTE IT AND/OR MODIFY  
# IT UNDER THE TERMS OF THE GNU GENERAL PUBLIC LICENSE AS PUBLISHED BY  
# THE FREE SOFTWARE FOUNDATION; EITHER VERSION 2 OF THE LICENSE, OR     
# (AT YOUR OPTION) ANY LATER VERSION.                                                    
#                                                                       
# THIS PROGRAM IS DISTRIBUTED IN THE HOPE THAT IT WILL BE USEFUL, BUT   
# WITHOUT ANY WARRANTY; WITHOUT EVEN THE IMPLIED WARRANTY OF            
# MERCHANTABILITY OR FITNESS FOR A PARTICULAR PURPOSE. SEE THE GNU      
# GENERAL PUBLIC LICENSE FOR MORE DETAILS.                              
#                                                                       
# YOU SHOULD HAVE RECEIVED A COPY OF THE GNU GENERAL PUBLIC LICENSE     
# ALONG WITH THIS PROGRAM; IF NOT, WRITE TO EDF R&D CODE_ASTER,         
#    1 AVENUE DU GENERAL DE GAULLE, 92141 CLAMART CEDEX, FRANCE.        
# ======================================================================
#       INTERET : MESURER LES PERFORMANCES D'UN CALCUL DE CONTACT 3D
#       (ISSU DE SSNV104I)
#---------------------------------------------------------------------------

DEBUT(CODE=_F(NOM='PERF005C',NIV_PUB_WEB='INTERNET'))

EXEC_LOGICIEL(MAILLAGE=_F(FORMAT='GIBI', UNITE_GEOM=14, UNITE=20, MAILLAGE=CO('MA'),),INFO=1,)

MA=DEFI_GROUP(reuse =MA,  MAILLAGE=MA,
                    CREA_GROUP_NO=(_F(OPTION='PLAN',
                                      NOM='LIM1',
                                      POINT=(0.0,0.0,0.0),
                                      VECT_NORMALE=(1.0,0.0,0.0),
                                      PRECISION=1.E-2,),
                                   _F(OPTION='PLAN',
                                      NOM='LIM2',
                                      POINT=(0.0,0.0,0.0),
                                      VECT_NORMALE=(0.0,0.0,1.0),
                                      PRECISION=1.E-2,),
                                   _F(OPTION='PLAN',
                                      NOM='FACEINF',
                                      POINT=(0.0,0.0,0.0),
                                      VECT_NORMALE=(0.0,1.0,0.0),
                                      PRECISION=1.E-2,),
                                   _F(OPTION='PLAN',
                                      NOM='FACESUP',
                                      POINT=(0.0,100.0,0.0),
                                      VECT_NORMALE=(0.0,-1.0,0.0),
                                      PRECISION=1.E-2,),
                                   ))

#_____________________________________________________________________
#
#                    DEFINITION DU MODELE
#_____________________________________________________________________

MO=AFFE_MODELE(MAILLAGE=MA,
               AFFE=_F(TOUT='OUI',
                       PHENOMENE='MECANIQUE',
                       MODELISATION='3D',),);

MA=MODI_MAILLAGE(reuse =MA, MAILLAGE=MA, ORIE_PEAU_3D=_F(GROUP_MA='SESC',), );
MA=MODI_MAILLAGE(reuse =MA, MAILLAGE=MA, ORIE_PEAU_3D=_F(GROUP_MA='SMAI',), );
#_____________________________________________________________________
#
#                    DEFINITION DES MATERIAUX
#_____________________________________________________________________

MAT=DEFI_MATERIAU(ELAS=_F(E=2.E4, NU=0.3),);

CHMAT=AFFE_MATERIAU(MAILLAGE=MA, AFFE=_F(TOUT='OUI', MATER=MAT,),);

#_____________________________________________________________________
#
#                    AFFECTATION DES CONDITIONS AUX LIMITES
#                       ET DES DEPLACEMENTS IMPOSES
#_____________________________________________________________________

CHA1=AFFE_CHAR_MECA(MODELE=MO,
                    DDL_IMPO=(_F(GROUP_NO='FACESUP',  DY=-2.0,),
                              _F(GROUP_NO='FACEINF',  DY=2.0,),
                              _F(GROUP_NO='LIM1',     DX=0.0,),
                              _F(GROUP_NO='LIM2',     DZ=0.0,),),);

CHA2=AFFE_CHAR_MECA(MODELE=MO,
                    CONTACT=_F(GROUP_MA_MAIT='SMAI', GROUP_MA_ESCL='SESC', ),);

L_INST=DEFI_LIST_REEL(DEBUT=0.0, INTERVALLE=_F(JUSQU_A=1.0, NOMBRE=1,),);

RAMPE=DEFI_FONCTION(NOM_PARA='INST',
                    VALE=(0.0,0.0,   1.0,1.0),
                    PROL_DROITE='LINEAIRE',
                    PROL_GAUCHE='LINEAIRE',);

#_____________________________________________________________________
#
#                          RESOLUTION
#_____________________________________________________________________
#

RESU=STAT_NON_LINE(SOLVEUR=_F(SYME='OUI',),
                   MODELE=MO,
                   CHAM_MATER=CHMAT,
                   EXCIT=(_F(CHARGE=CHA1,
                             FONC_MULT=RAMPE,),
                          _F(CHARGE=CHA2,
                             FONC_MULT=RAMPE,),),
                   COMP_ELAS=_F(RELATION='ELAS',),
                   INCREMENT=_F(LIST_INST=L_INST,),
                   NEWTON=_F(MATRICE='ELASTIQUE',
                             REAC_INCR=0,),
                            );

RESU=CALC_ELEM(reuse =RESU, OPTION=('SIEF_ELNO_ELGA'), RESULTAT=RESU,);
RESU=CALC_NO(reuse =RESU, OPTION=('SIEF_NOEU_ELGA'), RESULTAT=RESU,);


SIELNO=CREA_CHAMP(TYPE_CHAM='NOEU_SIEF_R', OPERATION='EXTR', RESULTAT=RESU,
                  NOM_CHAM='SIEF_NOEU_ELGA', INST=1.,);


TEST_RESU(CHAM_NO=_F(CHAM_GD=SIELNO, GROUP_NO='G1', NOM_CMP='SIYY', VALE=-2798.300,
                     CRITERE='RELATIF', PRECISION=0.05, REFERENCE='ANALYTIQUE',),);

if 0 : # pour compter les noeuds en contact (ceux qui ont CONT != 0.) :
    XXX=CREA_CHAMP(  OPERATION='EXTR', TYPE_CHAM='NOEU_INFC_R', INFO=2,
                     NOM_CHAM='VALE_CONT', RESULTAT=RESU, NUME_ORDRE=1)
    # pour compter les noeuds en contact, on peut faire :
    #    cat xxxx.mess pipe  grep 'N[0-9]* * pipe *0"backslash".[1-9]' pipe wc -l

FIN();
