# -*- coding: utf-8 -*-
# ======================================================================
# COPYRIGHT (C) 1991 - 2016  EDF R&D                  WWW.CODE-ASTER.ORG
# THIS PROGRAM IS FREE SOFTWARE; YOU CAN REDISTRIBUTE IT AND/OR MODIFY
# IT UNDER THE TERMS OF THE GNU GENERAL PUBLIC LICENSE AS PUBLISHED BY
# THE FREE SOFTWARE FOUNDATION; EITHER VERSION 2 OF THE LICENSE, OR
# (AT YOUR OPTION) ANY LATER VERSION.
#
# THIS PROGRAM IS DISTRIBUTED IN THE HOPE THAT IT WILL BE USEFUL, BUT
# WITHOUT ANY WARRANTY; WITHOUT EVEN THE IMPLIED WARRANTY OF
# MERCHANTABILITY OR FITNESS FOR A PARTICULAR PURPOSE. SEE THE GNU
# GENERAL PUBLIC LICENSE FOR MORE DETAILS.
#
# YOU SHOULD HAVE RECEIVED A COPY OF THE GNU GENERAL PUBLIC LICENSE
# ALONG WITH THIS PROGRAM; IF NOT, WRITE TO EDF R&D CODE_ASTER,
#    1 AVENUE DU GENERAL DE GAULLE, 92141 CLAMART CEDEX, FRANCE.
# ======================================================================
# person_in_charge: felix.latourte at edf.fr

DEBUT(CODE=_F(NIV_PUB_WEB='INTERNET',VISU_EFICAS='NON'),DEBUG=_F(SDVERI='NON'))
# SDVERI='NON' car la verification est trop couteuse en CPU

#perfectDataDescription_
    #"""Template file for the generation of homogenisation calculation using F.E. code Code_Aster (c).
    #Freely inspired by a command file given by J-M. Proix
    #The chosen interaction law is DD_CC.
    #Cooked by F. Latourte [EDF R&D] for the PERFORM60 project
    #Date: 04/2013
    #Revised: 04/2013
    #<mailto:felix.latourte@edf.fr>"""
#_/perfect

#perfectDataVersion_01.03.00_/perfect
#perfectDataAsterVersion_11.3_/perfect

#perfectPythonTestData_
    #from PDM.MaterialBehaviour import *
    #from PDM.FECalculations import *
#_/perfect

import numpy as NP

TEMP=183.
#TEMP=25+273
if TEMP==153 :
  K_self = 40.
elif TEMP==183 :
  K_self = 70.
elif TEMP>183 :
  K_self = 70.

format_courbe='TABLEAU'

#coef=1.e3 # Pa, m
coef=1.   # MPa, mm

E=(236-0.0459*TEMP)*1000.*coef*coef  # Pa
Nu=0.35
MU=E/2./(1.+Nu)

tau_f  = 35.                # Pa
tau_0  = 363.0*coef*coef   # Pa
y_at   = 2.e-6/coef        # m
N      = 50.
gamma0 = 1.E-6             # s**-1
GH     = 1.e11             # s**-1
b      = 2.48e-7/coef      # m
DeltaG0= 0.84              # eV
epsi_1 = 5.e-4             # s**-1
D      = 10.e-6/coef       # m
beta   = 0.2
d_lat  = 0.01/coef
k      = 8.62E-5  # "Constante de Boltzmann, en eV/K"

#definition de K_f fixé en fonction de K_self
K_self_sur_K_f=3.
denom= min( K_self_sur_K_f, 1.+ (K_self_sur_K_f -1.)*TEMP/300.)

K_f= K_self/denom

l_c = 500.*b*(TEMP/300.)**2


a_coli=0.7
a_ncol=0.1
#a_self=0.1024
a_self=0.1

XI=0.
a_irr=0.1
rho_irra=10**8

rho_ini= 13.E6*coef*coef    # en m**-2
rho_mob=1.E6
ACIERDD=DEFI_MATERIAU(ELAS=_F(E=E,
                            NU=Nu,
                            ALPHA=0.),
                      MONO_DD_CC_IRRA=_F(
                                    B       =b,
                                    GH       =GH,
                                    DELTAG0 =DeltaG0,
                                    TAU_0   =tau_0,
                                    TAU_F   =tau_f,
                                    GAMMA0  =gamma0,
                                    N       =N,
                                    RHO_MOB =rho_mob,
                                    D       =D,
                                    D_LAT   =d_lat,
                                    Y_AT    =y_at,
                                    K_F     =K_f,
                                    K_SELF  =K_self,
                                    K_BOLTZ =k,
                                    H1      =a_self,
                                    H2      =a_coli,
                                    H3      =a_ncol,
                                    H4      =a_ncol,
                                    H5      =a_ncol,
                                    H6      =a_ncol,
                                      A_IRRA=a_irr,
                                     XI_IRRA=XI,
                                       DEPDT=epsi_1,
                                     ),
                    );

# DD_CC
COMPORT=DEFI_COMPOR(MONOCRISTAL=_F(MATER=ACIERDD,
                                    ECOULEMENT='MONO_DD_CC_IRRA',
                                    ELAS='ELAS',
                                    FAMI_SYST_GLIS='CUBIQUE1',
                                    ),);

#Orientations cristallographiques
COMPORP=DEFI_COMPOR(POLYCRISTAL=(_F(MONOCRISTAL=COMPORT,
                                    FRAC_VOL=0.033333,
                                    ANGL_REP=(84.0,349.0,233.0,),),
                                 _F(MONOCRISTAL=COMPORT,
                                    FRAC_VOL=0.033333,
                                    ANGL_REP=(348.0,24.0,172.0,),),
                                 _F(MONOCRISTAL=COMPORT,
                                    FRAC_VOL=0.033333,
                                    ANGL_REP=(327.0,126.0,335.0,),),
                                 _F(MONOCRISTAL=COMPORT,
                                    FRAC_VOL=0.033333,
                                    ANGL_REP=(235.0,7.0,184.0,),),
                                 _F(MONOCRISTAL=COMPORT,
                                    FRAC_VOL=0.033333,
                                    ANGL_REP=(72.0,338.0,73.0,),),
                                 _F(MONOCRISTAL=COMPORT,
                                    FRAC_VOL=0.033333,
                                    ANGL_REP=(136.0,285.0,103.0,),),
                                 _F(MONOCRISTAL=COMPORT,
                                    FRAC_VOL=0.033333,
                                    ANGL_REP=(96.0,128.0,46.0,),),
                                 _F(MONOCRISTAL=COMPORT,
                                    FRAC_VOL=0.033333,
                                    ANGL_REP=(253.0,265.0,288.0,),),
                                 _F(MONOCRISTAL=COMPORT,
                                    FRAC_VOL=0.033333,
                                    ANGL_REP=(329.0,184.0,274.0,),),
                                 _F(MONOCRISTAL=COMPORT,
                                    FRAC_VOL=0.033333,
                                    ANGL_REP=(164.0,169.0,107.0,),),
                                 _F(MONOCRISTAL=COMPORT,
                                    FRAC_VOL=0.033333,
                                    ANGL_REP=(220.0,26.0,179.0,),),
                                 _F(MONOCRISTAL=COMPORT,
                                    FRAC_VOL=0.033333,
                                    ANGL_REP=(79.0,14.0,203.0,),),
                                 _F(MONOCRISTAL=COMPORT,
                                    FRAC_VOL=0.033333,
                                    ANGL_REP=(251.0,342.0,329.0,),),
                                 _F(MONOCRISTAL=COMPORT,
                                    FRAC_VOL=0.033333,
                                    ANGL_REP=(226.0,217.0,337.0,),),
                                 _F(MONOCRISTAL=COMPORT,
                                    FRAC_VOL=0.033333,
                                    ANGL_REP=(51.0,290.0,315.0,),),
                                 _F(MONOCRISTAL=COMPORT,
                                    FRAC_VOL=0.033333,
                                    ANGL_REP=(124.0,67.0,241.0,),),
                                 _F(MONOCRISTAL=COMPORT,
                                    FRAC_VOL=0.033333,
                                    ANGL_REP=(228.0,163.0,9.0,),),
                                 _F(MONOCRISTAL=COMPORT,
                                    FRAC_VOL=0.033333,
                                    ANGL_REP=(274.0,56.0,275.0,),),
                                 _F(MONOCRISTAL=COMPORT,
                                    FRAC_VOL=0.033333,
                                    ANGL_REP=(203.0,25.0,99.0,),),
                                 _F(MONOCRISTAL=COMPORT,
                                    FRAC_VOL=0.033333,
                                    ANGL_REP=(118.0,190.0,269.0,),),
                                 _F(MONOCRISTAL=COMPORT,
                                    FRAC_VOL=0.033333,
                                    ANGL_REP=(225.0,50.0,295.0,),),
                                 _F(MONOCRISTAL=COMPORT,
                                    FRAC_VOL=0.033333,
                                    ANGL_REP=(45.0,129.0,310.0,),),
                                 _F(MONOCRISTAL=COMPORT,
                                    FRAC_VOL=0.033333,
                                    ANGL_REP=(248.0,21.0,292.0,),),
                                 _F(MONOCRISTAL=COMPORT,
                                    FRAC_VOL=0.033333,
                                    ANGL_REP=(218.0,247.0,150.0,),),
                                 _F(MONOCRISTAL=COMPORT,
                                    FRAC_VOL=0.033333,
                                    ANGL_REP=(196.0,299.0,81.0,),),
                                 _F(MONOCRISTAL=COMPORT,
                                    FRAC_VOL=0.033333,
                                    ANGL_REP=(152.0,64.0,148.0,),),
                                 _F(MONOCRISTAL=COMPORT,
                                    FRAC_VOL=0.033333,
                                    ANGL_REP=(33.0,292.0,311.0,),),
                                 _F(MONOCRISTAL=COMPORT,
                                    FRAC_VOL=0.033333,
                                    ANGL_REP=(43.0,207.0,8.0,),),
                                 _F(MONOCRISTAL=COMPORT,
                                    FRAC_VOL=0.033333,
                                    ANGL_REP=(318.0,51.0,34.0,),),
                                 _F(MONOCRISTAL=COMPORT,
                                    FRAC_VOL=0.033333,
                                    ANGL_REP=(58.0,169.0,224.0,),),),
                    LOCALISATION='BZ',
                    MU_LOCA=MU,);

##chargement

EPSZZ=DEFI_FONCTION(NOM_PARA='INST',VALE=(0.0,0.0,
                          100.0,0.1,
                          ),PROL_DROITE='LINEAIRE',PROL_GAUCHE='LINEAIRE',);

TFIN = 100.0;

TELAS = 1.72;

T2 = 5.0;

NPAS1 = 100;

NPAS2 = 500;

NARCH1 = 10;

NARCH2 = 50;


LINST=DEFI_LIST_REEL(DEBUT=0.,
                     INTERVALLE=(_F(JUSQU_A=TELAS,
                                    NOMBRE=1,),
                                 _F(JUSQU_A=T2,
                                    NOMBRE=NPAS1,),
                                 _F(JUSQU_A=TFIN,
                                    NOMBRE=NPAS2,),),);

LINSTA=DEFI_LIST_REEL(DEBUT=0.,
                      INTERVALLE=(_F(JUSQU_A=TELAS,
                                     NOMBRE=1,),
                                  _F(JUSQU_A=T2,
                                     NOMBRE=NARCH1,),
                                  _F(JUSQU_A=TFIN,
                                     NOMBRE=NARCH2,),),);

LISTPS =DEFI_LIST_INST(DEFI_LIST=_F(LIST_INST = LINST),)

nbgr=30
nb_syst=12
nvarit=7+nbgr*(6+3*nb_syst+nb_syst+6)+1

nvarpargr=3*nb_syst


# densites de dislocation initiales : variables internes de 0 a 44
avari =NP. zeros(nvarit)
for igr in range(nbgr):
   for isy in range(12):
       avari[7+6*nbgr+igr*nvarpargr+isy*3]=rho_ini

# initialisation rho_irr
for igr in range(nbgr):
   for isy in range(12):
       avari[7+6*nbgr+nbgr*nvarpargr+12*igr+isy]=rho_irra


TIMP=DEFI_CONSTANTE(VALE=TEMP)


SIGEPS=SIMU_POINT_MAT(INFO=2,
                   COMPORTEMENT=_F(
                                RELATION='POLYCRISTAL',
                                COMPOR=COMPORP,
                                ALGO_INTE='RUNGE_KUTTA',
                                ),
                   NEWTON=_F(
                             MATRICE='ELASTIQUE',
                             PREDICTION='EXTRAPOLE',
                             ),
                   CONVERGENCE=_F(ITER_GLOB_MAXI=50,
                                     ),
                   MATER      = ACIERDD,

                   NB_VARI_TABLE=6,
                   VARI_INIT=_F(VALE=avari,
                                  ),

                   INCREMENT=_F(LIST_INST=LISTPS),
                   EPSI_IMPOSE=_F(EPZZ=EPSZZ),

                   AFFE_VARC=_F(  NOM_VARC='TEMP',
                                     VALE_FONC=TIMP,
                                     VALE_REF=TEMP),
                        );



IMPR_TABLE(TABLE=SIGEPS,
           FORMAT='TABLEAU',
           UNITE=38,
           NOM_PARA=('INST','EPZZ','SIZZ',),
           TITRE='Courbe SigZZ_moy=f(EpsZZ_moy)',);

TEST_TABLE(
           VALE_CALC=0.1,
           NOM_PARA='EPZZ',
           TABLE=SIGEPS,
           FILTRE=_F(NOM_PARA='INST',
                     VALE=100.0,),
           )

TEST_TABLE(
           VALE_CALC=764.162054861,
           NOM_PARA='SIZZ',
           TABLE=SIGEPS,
           FILTRE=_F(NOM_PARA='INST',
                     VALE=100.0,),
           )


FIN();
