# MODIF  DATE 30/07/2012   AUTEUR LEFEBVRE J-P.LEFEBVRE 
# TITRE CONTACT DE HERTZ ENTRE 2 DEMI-SPHERES
# perf005d.para = tps_job 150 mem_job 512Mo ncpus 1 liste_test R
#            CONFIGURATION MANAGEMENT OF EDF VERSION
# ======================================================================
# COPYRIGHT (C) 1991 - 2012  EDF R&D                  WWW.CODE-ASTER.ORG
# THIS PROGRAM IS FREE SOFTWARE; YOU CAN REDISTRIBUTE IT AND/OR MODIFY
# IT UNDER THE TERMS OF THE GNU GENERAL PUBLIC LICENSE AS PUBLISHED BY
# THE FREE SOFTWARE FOUNDATION; EITHER VERSION 2 OF THE LICENSE, OR
# (AT YOUR OPTION) ANY LATER VERSION.
#
# THIS PROGRAM IS DISTRIBUTED IN THE HOPE THAT IT WILL BE USEFUL, BUT
# WITHOUT ANY WARRANTY; WITHOUT EVEN THE IMPLIED WARRANTY OF
# MERCHANTABILITY OR FITNESS FOR A PARTICULAR PURPOSE. SEE THE GNU
# GENERAL PUBLIC LICENSE FOR MORE DETAILS.
#
# YOU SHOULD HAVE RECEIVED A COPY OF THE GNU GENERAL PUBLIC LICENSE
# ALONG WITH THIS PROGRAM; IF NOT, WRITE TO EDF R&D CODE_ASTER,
#    1 AVENUE DU GENERAL DE GAULLE, 92141 CLAMART CEDEX, FRANCE.
# ======================================================================

#       INTERET : MESURER LES PERFORMANCES D'UN CALCUL DE CONTACT 3D
#       (ISSU DE SSNV104I)
#       METHODE CONTINUE
#---------------------------------------------------------------------------

DEBUT(CODE=_F(NOM='PERF005D',NIV_PUB_WEB='INTERNET'),DEBUG=_F(SDVERI='OUI'))

MA=LIRE_MAILLAGE(FORMAT='MED')

#_____________________________________________________________________
#
#                    DEFINITION DU MODELE
#_____________________________________________________________________

MO=AFFE_MODELE(MAILLAGE=MA,
               AFFE=_F(TOUT='OUI',
                       PHENOMENE='MECANIQUE',
                       MODELISATION='3D',),);

MA=MODI_MAILLAGE(reuse =MA, MAILLAGE=MA, ORIE_PEAU_3D=_F(GROUP_MA=('SESC','SMAI',),), );

#_____________________________________________________________________
#
#                    DEFINITION DES MATERIAUX
#_____________________________________________________________________

MAT=DEFI_MATERIAU(ELAS=_F(E=2.E4, NU=0.3),);

CHMAT=AFFE_MATERIAU(MAILLAGE=MA, AFFE=_F(TOUT='OUI', MATER=MAT,),);

#_____________________________________________________________________
#
#                    AFFECTATION DES CONDITIONS AUX LIMITES
#                       ET DES DEPLACEMENTS IMPOSES
#_____________________________________________________________________

CHA1=AFFE_CHAR_MECA(MODELE=MO,
                    DDL_IMPO=(_F(GROUP_NO='FACESUP',  DY=-2.0,),
                              _F(GROUP_NO='FACEINF',  DY=2.0,),
                              _F(GROUP_NO='LIM1',     DX=0.0,),
                              _F(GROUP_NO='LIM2',     DZ=0.0,),),);

CHA2 = DEFI_CONTACT(MODELE         = MO,
                    FORMULATION    = 'CONTINUE',
                    ALGO_RESO_CONT = 'POINT_FIXE',
                    ALGO_RESO_GEOM = 'POINT_FIXE',
                    ZONE = _F(GROUP_MA_MAIT='SMAI',
                              GROUP_MA_ESCL='SESC',
                              CONTACT_INIT='INTERPENETRE',
                            ),
                    );

L_INST=DEFI_LIST_REEL(DEBUT=0.0, INTERVALLE=_F(JUSQU_A=1.0, NOMBRE=1,),);

RAMPE=DEFI_FONCTION(NOM_PARA='INST',
                    VALE=(0.0,0.0,   1.0,1.0),
                    PROL_DROITE='LINEAIRE',
                    PROL_GAUCHE='LINEAIRE',);

#_____________________________________________________________________
#
#                          RESOLUTION
#_____________________________________________________________________
#

RESU=STAT_NON_LINE(SOLVEUR=_F(METHODE='GCPC',
                              RENUM='SANS',
                              NIVE_REMPLISSAGE=1,
                              ),
                   MODELE=MO,
                   CHAM_MATER=CHMAT,
                   CONTACT = CHA2,
                   EXCIT=(_F(CHARGE=CHA1,
                             FONC_MULT=RAMPE,)),
                   COMP_ELAS=_F(RELATION='ELAS',),
                   INCREMENT=_F(LIST_INST=L_INST,),
                   NEWTON=_F(MATRICE='ELASTIQUE',
                             REAC_INCR=0,),
                            );

RESU=CALC_CHAMP(reuse=RESU,CONTRAINTE=('SIGM_ELNO'),RESULTAT=RESU)

RESU=CALC_CHAMP(reuse =RESU,CONTRAINTE='SIGM_NOEU',RESULTAT=RESU)


SIELNO=CREA_CHAMP(TYPE_CHAM='NOEU_SIEF_R', OPERATION='EXTR', RESULTAT=RESU,
                  NOM_CHAM='SIGM_NOEU', INST=1.,);


TEST_RESU(CHAM_NO=_F(CHAM_GD=SIELNO, GROUP_NO='G1', NOM_CMP='SIYY', VALE=-2798.300,
                     CRITERE='RELATIF', PRECISION=0.16, REFERENCE='ANALYTIQUE',),);

FIN();
