# MODIF  DATE 29/10/2012   AUTEUR DELMAS J.DELMAS 
# TITRE CALCUL DE PERFORMANCE : DIABOLO PLEIN
# perf010e.para = tps_job 2000 mem_job 6844Mo ncpus 1 liste_test PI
#            CONFIGURATION MANAGEMENT OF EDF VERSION
# ======================================================================
# COPYRIGHT (C) 1991 - 2012  EDF R&D                  WWW.CODE-ASTER.ORG
# THIS PROGRAM IS FREE SOFTWARE; YOU CAN REDISTRIBUTE IT AND/OR MODIFY  
# IT UNDER THE TERMS OF THE GNU GENERAL PUBLIC LICENSE AS PUBLISHED BY  
# THE FREE SOFTWARE FOUNDATION; EITHER VERSION 2 OF THE LICENSE, OR     
# (AT YOUR OPTION) ANY LATER VERSION.                                                    
#                                                                       
# THIS PROGRAM IS DISTRIBUTED IN THE HOPE THAT IT WILL BE USEFUL, BUT   
# WITHOUT ANY WARRANTY; WITHOUT EVEN THE IMPLIED WARRANTY OF            
# MERCHANTABILITY OR FITNESS FOR A PARTICULAR PURPOSE. SEE THE GNU      
# GENERAL PUBLIC LICENSE FOR MORE DETAILS.                              
#                                                                       
# YOU SHOULD HAVE RECEIVED A COPY OF THE GNU GENERAL PUBLIC LICENSE     
# ALONG WITH THIS PROGRAM; IF NOT, WRITE TO EDF R&D CODE_ASTER,         
#    1 AVENUE DU GENERAL DE GAULLE, 92141 CLAMART CEDEX, FRANCE.        
# ======================================================================

# Partitionnement en 2 sous-domaines (DEFI_PART_FETI), 2 processeurs max
# Matrice distribuee par processeur (MATR_DISTRIBUEE)
# Mumps Out-Of-Core (GESTION_MEMOIRE='OUT_OF_CORE')

DEBUT(CODE=_F(NOM='PERF010E',
              NIV_PUB_WEB='INTERNET',
              VISU_EFICAS='OUI'),
      IMPR_MACRO='OUI');

MA=LIRE_MAILLAGE(FORMAT='MED');

MO=AFFE_MODELE(MAILLAGE=MA,
               AFFE=_F(TOUT='OUI',
                       PHENOMENE='MECANIQUE',
                       MODELISATION='3D'));

MAT=DEFI_MATERIAU(ELAS=_F(E=5.e11,
                          NU=0.3,
                          RHO=9800.,
                          ALPHA=1.e-6));
PI = 3.14;

FCHAR = FORMULE(VALE='cos(Z/PI)',
                NOM_PARA='Z');

CHGEOM=CREA_CHAMP(TYPE_CHAM='NOEU_GEOM_R',
                  OPERATION='EXTR',
                  MAILLAGE=MA,
                  NOM_CHAM='GEOMETRIE');

CHFONC=CREA_CHAMP(TYPE_CHAM='NOEU_NEUT_F',
                  OPERATION='AFFE',
                  MODELE=MO,
                  PROL_ZERO='OUI',
                  AFFE=_F(TOUT='OUI',
                          NOM_CMP='X1',
                          VALE_F=FCHAR));

CHTEMPF=CREA_CHAMP(TYPE_CHAM='NOEU_NEUT_R',
                   OPERATION='EVAL',
                   CHAM_F=CHFONC,
                   CHAM_PARA=CHGEOM);

CHTEMP=CREA_CHAMP(TYPE_CHAM='NOEU_TEMP_R',
                  OPERATION='ASSE',
                  MODELE=MO,
                  PROL_ZERO='OUI',
                  ASSE=_F(TOUT='OUI',
                          CHAM_GD=CHTEMPF,
                          NOM_CMP='X1',
                          NOM_CMP_RESU='TEMP'));

CHMAT=AFFE_MATERIAU(MAILLAGE=MA,
                    AFFE=_F(TOUT='OUI',
                            MATER=MAT),
                    AFFE_VARC=_F(TOUT='OUI',
                                 NOM_VARC='TEMP',
                                 CHAMP_GD=CHTEMP,
                                 VALE_REF=0.));

CHAR=AFFE_CHAR_MECA(MODELE=MO,
                    DDL_IMPO=(_F(GROUP_NO='POINT_A',
                                 DX=0.0,
                                 DY=0.0,
                                 DZ=0.0),
                              _F(GROUP_NO='POINT_B',
                                 DX=0.0,
                                 DY=0.0),
                              _F(GROUP_NO='POINT_C',
                                 DY=0.0)));

PART=DEFI_PART_FETI(NB_PART=2,
                    MODELE=MO,
                    EXCIT=_F(
                             ),
                    CORRECTION_CONNEX='NON',
                    METHODE='KMETIS',
                    NOM_GROUP_MA='SD');

MO=MODI_MODELE(reuse =MO,
               MODELE=MO,
                 PARTITION=_F(PARALLELISME='SOUS_DOMAINE',
                              PARTITION=PART));

RESU=MECA_STATIQUE(MODELE=MO,
                   CHAM_MATER=CHMAT,
                   EXCIT=_F(CHARGE=CHAR),
                   OPTION='SANS',
                   SOLVEUR=_F(METHODE='MUMPS',
                              GESTION_MEMOIRE='OUT_OF_CORE',
                              RESI_RELA=-1.0,
   
                              MATR_DISTRIBUEE='OUI',
                              ),
                   INFO=1);

TEST_RESU(RESU=(_F(NUME_ORDRE=1,
                   REFERENCE='NON_DEFINI',
                   TYPE_TEST='MAX',
                   RESULTAT=RESU,
                   NOM_CHAM='DEPL',
                   NOM_CMP='DX',
                   VALE_CALC= 5.19030923E-05,
                   VALE_REFE=5.1999999999999997E-05,
                   CRITERE='RELATIF',
                   PRECISION=3.0000000000000001E-3,),
                _F(NUME_ORDRE=1,
                   REFERENCE='NON_DEFINI',
                   TYPE_TEST='MAX',
                   RESULTAT=RESU,
                   NOM_CHAM='DEPL',
                   NOM_CMP='DY',
                   VALE_CALC= 2.59515461E-05,
                   VALE_REFE=2.5999999999999998E-05,
                   CRITERE='RELATIF',
                   PRECISION=3.0000000000000001E-3,),
                ),
          )

FIN();
