# TITRE  Validation du solveur PETSc en elasticite lineaire 3D
# ======================================================================
# COPYRIGHT (C) 1991 - 2012  EDF R&D                  WWW.CODE-ASTER.ORG
# THIS PROGRAM IS FREE SOFTWARE; YOU CAN REDISTRIBUTE IT AND/OR MODIFY
# IT UNDER THE TERMS OF THE GNU GENERAL PUBLIC LICENSE AS PUBLISHED BY
# THE FREE SOFTWARE FOUNDATION; EITHER VERSION 2 OF THE LICENSE, OR
# (AT YOUR OPTION) ANY LATER VERSION.
#
# THIS PROGRAM IS DISTRIBUTED IN THE HOPE THAT IT WILL BE USEFUL, BUT
# WITHOUT ANY WARRANTY; WITHOUT EVEN THE IMPLIED WARRANTY OF
# MERCHANTABILITY OR FITNESS FOR A PARTICULAR PURPOSE. SEE THE GNU
# GENERAL PUBLIC LICENSE FOR MORE DETAILS.
#
# YOU SHOULD HAVE RECEIVED A COPY OF THE GNU GENERAL PUBLIC LICENSE
# ALONG WITH THIS PROGRAM; IF NOT, WRITE TO EDF R&D CODE_ASTER,
#    1 AVENUE DU GENERAL DE GAULLE, 92141 CLAMART CEDEX, FRANCE.
# ======================================================================

DEBUT(CODE=_F(
              NIV_PUB_WEB='INTERNET',),
       DEBUG=_F(SDVERI='OUI'),);

MA=LIRE_MAILLAGE(FORMAT='MED',);

MO=AFFE_MODELE(MAILLAGE=MA,
               AFFE=_F(TOUT='OUI',
                       PHENOMENE='MECANIQUE',
                       MODELISATION='3D',),
               PARTITION=_F(PARALLELISME='MAIL_CONTIGU',),
               );

MAT=DEFI_MATERIAU(ELAS=_F(E=202702.7,
                          NU=0.3,
                          RHO=1.e-1,),);

CHMAT=AFFE_MATERIAU(MAILLAGE=MA,
                    AFFE=_F(TOUT='OUI',
                            MATER=MAT,),);

CHA1=AFFE_CHAR_MECA(MODELE=MO,
                    DDL_IMPO=_F(GROUP_NO='GRNO7',
                                 DX=0.0,
                                 DY=0.01,),);

CHA2=AFFE_CHAR_CINE(MODELE=MO,
                    MECA_IMPO=(_F(GROUP_NO='GRNO1',
                                 DZ=0.0,),
                              _F(GROUP_NO='GRNO8',
                                 DY=0.0,),),);

LIST=DEFI_LIST_REEL(DEBUT=0.0,
                    INTERVALLE=_F(JUSQU_A=1.0,
                                  NOMBRE=2,),);

EVOL=DYNA_NON_LINE(MODELE=MO,
                   INFO=1,
                   CHAM_MATER=CHMAT,
                   EXCIT=(_F(CHARGE=CHA1,),
                          _F(CHARGE=CHA2,),),
                   SCHEMA_TEMPS=_F(SCHEMA='NEWMARK',
                                   FORMULATION='DEPLACEMENT',),
                   COMPORTEMENT=_F(RELATION='ELAS',
                                TOUT='OUI',),
                   NEWTON=_F(REAC_ITER=1),
                   INCREMENT=_F(LIST_INST=LIST,),
                   SOLVEUR=_F(METHODE='PETSC',
                              ALGORITHME='GMRES',
                              PRE_COND='LDLT_SP',
                              PCENT_PIVOT=20,),);

TEST_RESU(RESU=(_F(RESULTAT=EVOL,
                   NUME_ORDRE=2,
                   NOM_CHAM='DEPL',
                   NOM_CMP='DY',
                   NOEUD='NO2958',
                   VALE_CALC=0.010000000000000,
                   VALE_REFE=0.01,
                   PRECISION=0.00015,
                   REFERENCE='NON_DEFINI',),
                _F(RESULTAT=EVOL,
                   NUME_ORDRE=2,
                   NOM_CHAM='DEPL',
                   NOM_CMP='DZ',
                   NOEUD='NO2958',
                   VALE_CALC=5.7439533417312E-05,
                   VALE_REFE=5.7439532999582E-05,
                   PRECISION=0.00015,
                   REFERENCE='NON_DEFINI',),
                _F(RESULTAT=EVOL,
                   NUME_ORDRE=2,
                   NOM_CHAM='DEPL',
                   NOM_CMP='DX',
                   NOEUD='NO2974',
                   VALE_CALC=4.535772578129E-03,
                   VALE_REFE=4.5357725792808E-03,
                   PRECISION=0.00015,
                   REFERENCE='NON_DEFINI',),
                _F(RESULTAT=EVOL,
                   NUME_ORDRE=2,
                   NOM_CHAM='DEPL',
                   NOM_CMP='DY',
                   NOEUD='NO2974',
                   VALE_CALC=9.6626900349184E-03,
                   VALE_REFE=9.6626900370336E-03,
                   PRECISION=0.00015,
                   REFERENCE='NON_DEFINI',),
                _F(RESULTAT=EVOL,
                   NUME_ORDRE=2,
                   NOM_CHAM='DEPL',
                   NOM_CMP='DZ',
                   NOEUD='NO2974',
                   VALE_CALC=-3.2205586866943E-05,
                   VALE_REFE=-3.2205586901003E-05,
                   PRECISION=0.00015,
                   REFERENCE='NON_DEFINI',),),);

FIN();
