# ======================================================================
# COPYRIGHT (C) 1991 - 2016  EDF R&D                  WWW.CODE-ASTER.ORG
# THIS PROGRAM IS FREE SOFTWARE; YOU CAN REDISTRIBUTE IT AND/OR MODIFY
# IT UNDER THE TERMS OF THE GNU GENERAL PUBLIC LICENSE AS PUBLISHED BY
# THE FREE SOFTWARE FOUNDATION; EITHER VERSION 2 OF THE LICENSE, OR
# (AT YOUR OPTION) ANY LATER VERSION.
#
# THIS PROGRAM IS DISTRIBUTED IN THE HOPE THAT IT WILL BE USEFUL, BUT
# WITHOUT ANY WARRANTY; WITHOUT EVEN THE IMPLIED WARRANTY OF
# MERCHANTABILITY OR FITNESS FOR A PARTICULAR PURPOSE. SEE THE GNU
# GENERAL PUBLIC LICENSE FOR MORE DETAILS.
#
# YOU SHOULD HAVE RECEIVED A COPY OF THE GNU GENERAL PUBLIC LICENSE
# ALONG WITH THIS PROGRAM; IF NOT, WRITE TO EDF R&D CODE_ASTER,
#    1 AVENUE DU GENERAL DE GAULLE, 92141 CLAMART CEDEX, FRANCE.
# ======================================================================

#########################################################################
# CE TEST DERIVE DE MUMPS02 VERIFIE L'IMPLEMENTATION DU 
# PRECONDITIONNEUR DE SECOND NIVEAU LMP (LIMITED MEMORY PRECONDITIONER)
# EN INFO=2, ON OBSERVE L'ACTIVATION DE CE PRECONDITIONNEUR.
# ON A CHOISI DES PARAMETRES ARTIFICIELS (RESI_RELA ET REAC_PRECOND)
# POUR LE SOLVEUR AFIN D'ASSURER L'ACTIVATION DU PRECONDITIONNEUR 
# CE N'EST PAS UN EXEMPLE A SUIVRE
#########################################################################

DEBUT(CODE=_F(NIV_PUB_WEB='INTERNET'),DEBUG=_F(SDVERI='OUI'))

MA=LIRE_MAILLAGE(FORMAT='MED');
MO=AFFE_MODELE(MAILLAGE=MA, 
               AFFE=_F(TOUT='OUI', PHENOMENE='MECANIQUE', MODELISATION='D_PLAN_INCO_UPG'),
               DISTRIBUTION=_F(METHODE='SOUS_DOMAINE',NB_SOUS_DOMAINE=4),
);

MATERIAU=DEFI_MATERIAU(ELAS=_F(E=100., NU=0.4999));
CH_MATER=AFFE_MATERIAU(MAILLAGE=MA, AFFE=_F(TOUT='OUI',  MATER=MATERIAU));

SYMETRI2=AFFE_CHAR_MECA(MODELE=MO, DDL_IMPO= _F(TOUT='OUI', DX=1.0 , DY=2.0));

INSTANTS=DEFI_LIST_REEL(DEBUT=0.0, INTERVALLE=_F(JUSQU_A=1.0, NOMBRE=1));
RAMPE=DEFI_FONCTION(NOM_PARA='INST', VALE=(0.0,  0.0, 1.0,  1.0));

#  1 : GMRES + LDLT_SP + LMP
# --------------------------
RESU1=STAT_NON_LINE(MODELE=MO,
                   SOLVEUR=_F(METHODE='PETSC', 
                              ALGORITHME='GMRES_LMP', 
                              PCENT_PIVOT=170, 
                              REAC_PRECOND=6, 
                              RESI_RELA=1.E-14, ),
                   CHAM_MATER=CH_MATER, INFO=1,
                   EXCIT=(  _F(CHARGE=SYMETRI2)),
                   COMPORTEMENT=_F(RELATION='ELAS'),
                   INCREMENT=_F(LIST_INST=INSTANTS),
                   NEWTON=_F(REAC_ITER=1),
                   ARCHIVAGE=_F(LIST_INST=INSTANTS),);

TEST_RESU(RESU=(_F(GROUP_NO='C',
                   INST=1.0,
                   REFERENCE='ANALYTIQUE',
                   RESULTAT=RESU1,
                   NOM_CHAM='DEPL',
                   NOM_CMP='DX',
                   VALE_CALC=1.000000000,
                   VALE_REFE=1.0,
                   PRECISION=1.E-08,),
                _F(GROUP_NO='C',
                   INST=1.0,
                   REFERENCE='ANALYTIQUE',
                   RESULTAT=RESU1,
                   NOM_CHAM='DEPL',
                   NOM_CMP='DY',
                   VALE_CALC=2.000000000,
                   VALE_REFE=2.0,
                   PRECISION=1.E-08,),
                ),
          )

#  2 : GMRES + LDLT_SP 
# --------------------
RESU2=STAT_NON_LINE(MODELE=MO,
                   SOLVEUR=_F(METHODE='PETSC',
                              ALGORITHME='GMRES',
                              PCENT_PIVOT=170, 
                              REAC_PRECOND=6, 
                              RESI_RELA=1.E-14,
                              ),
                   CHAM_MATER=CH_MATER, INFO=1,
                   EXCIT=(  _F(CHARGE=SYMETRI2)),
                   COMPORTEMENT=_F(RELATION='ELAS'),
                   INCREMENT=_F(LIST_INST=INSTANTS),
                   NEWTON=_F(REAC_ITER=1),
                   ARCHIVAGE=_F(LIST_INST=INSTANTS));

TEST_RESU(RESU=(_F(GROUP_NO='C',
                   INST=1.0,
                   REFERENCE='ANALYTIQUE',
                   RESULTAT=RESU2,
                   NOM_CHAM='DEPL',
                   NOM_CMP='DX',
                   VALE_CALC=1.000000000,
                   VALE_REFE=1.0,
                   PRECISION=1.0000000000000001E-08,),
                _F(GROUP_NO='C',
                   INST=1.0,
                   REFERENCE='ANALYTIQUE',
                   RESULTAT=RESU2,
                   NOM_CHAM='DEPL',
                   NOM_CMP='DY',
                   VALE_CALC=2.000000000,
                   VALE_REFE=2.0,
                   PRECISION=1.0000000000000001E-08,),
                ),
          )

FIN();
