# MODIF  DATE 18/12/2012   AUTEUR SELLENET N.SELLENET 
# TITRE VALIDATION DE LA DISTRIBUTION DE LA MATRICE AVEC PETSC
# petsc02a.para = tps_job 60 mem_job 512Mo ncpus 1 liste_test S
#            CONFIGURATION MANAGEMENT OF EDF VERSION
# ======================================================================
# COPYRIGHT (C) 1991 - 2012  EDF R&D                  WWW.CODE-ASTER.ORG
# THIS PROGRAM IS FREE SOFTWARE; YOU CAN REDISTRIBUTE IT AND/OR MODIFY  
# IT UNDER THE TERMS OF THE GNU GENERAL PUBLIC LICENSE AS PUBLISHED BY  
# THE FREE SOFTWARE FOUNDATION; EITHER VERSION 2 OF THE LICENSE, OR     
# (AT YOUR OPTION) ANY LATER VERSION.                                                    
#                                                                       
# THIS PROGRAM IS DISTRIBUTED IN THE HOPE THAT IT WILL BE USEFUL, BUT   
# WITHOUT ANY WARRANTY; WITHOUT EVEN THE IMPLIED WARRANTY OF            
# MERCHANTABILITY OR FITNESS FOR A PARTICULAR PURPOSE. SEE THE GNU      
# GENERAL PUBLIC LICENSE FOR MORE DETAILS.                              
#                                                                       
# YOU SHOULD HAVE RECEIVED A COPY OF THE GNU GENERAL PUBLIC LICENSE     
# ALONG WITH THIS PROGRAM; IF NOT, WRITE TO EDF R&D CODE_ASTER,         
#    1 AVENUE DU GENERAL DE GAULLE, 92141 CLAMART CEDEX, FRANCE.        
# ======================================================================
# TEST MPI SUR 4 PROCESSEURS

DEBUT(CODE=_F(NOM='PETSC02A',NIV_PUB_WEB='INTERNET'),);

MA=LIRE_MAILLAGE(FORMAT='MED',);

MO=AFFE_MODELE(MAILLAGE=MA,
               AFFE=_F(TOUT='OUI',
                       PHENOMENE='MECANIQUE',
                       MODELISATION='3D',),);

MAT1=DEFI_MATERIAU(ELAS=_F(E=2.1E11,NU=0.3,),);

AFMAT=AFFE_MATERIAU(MAILLAGE=MA,
                    AFFE=_F(TOUT='OUI',
                            MATER=MAT1,));

AFCIN=AFFE_CHAR_CINE(MODELE=MO,
                     MECA_IMPO=(_F(GROUP_NO='Cote_inferieur',
                                   DX=0,DY=0,DZ=0,),
                                _F(GROUP_NO='Cote_superieur',
                                   DZ=1,),),);

PART=DEFI_PART_FETI(NB_PART=4,
                    MODELE=MO,
                    EXCIT=_F(CHARGE=AFCIN,),);

MO=MODI_MODELE(reuse=MO,
               MODELE=MO,
               PARTITION=_F(PARALLELISME='SOUS_DOMAINE',
                            PARTITION=PART,),);

MESTAT=MECA_STATIQUE(MODELE=MO,
                     CHAM_MATER=AFMAT,
                     EXCIT=_F(CHARGE=AFCIN,),
                     SOLVEUR=_F(METHODE='PETSC',
                                PRE_COND='BOOMER',
                                MATR_DISTRIBUEE='OUI',),);

IMPR_RESU(RESU=_F(RESULTAT=MESTAT,
                  NOM_CHAM='DEPL',),);

TEST_RESU(RESU=_F(RESULTAT=MESTAT,
                  NUME_ORDRE=1,
                  NOM_CHAM='DEPL',
                  NOM_CMP='DX',
                  NOEUD='N9',
                  VALE_CALC=1.67785220757181E-01,),);

FIN();
