# TITRE VALIDATION DE LA DISTRIBUTION DE LA MATRICE AVEC PETSC
# ======================================================================
# COPYRIGHT (C) 1991 - 2013  EDF R&D                  WWW.CODE-ASTER.ORG
# THIS PROGRAM IS FREE SOFTWARE; YOU CAN REDISTRIBUTE IT AND/OR MODIFY
# IT UNDER THE TERMS OF THE GNU GENERAL PUBLIC LICENSE AS PUBLISHED BY
# THE FREE SOFTWARE FOUNDATION; EITHER VERSION 2 OF THE LICENSE, OR
# (AT YOUR OPTION) ANY LATER VERSION.
#
# THIS PROGRAM IS DISTRIBUTED IN THE HOPE THAT IT WILL BE USEFUL, BUT
# WITHOUT ANY WARRANTY; WITHOUT EVEN THE IMPLIED WARRANTY OF
# MERCHANTABILITY OR FITNESS FOR A PARTICULAR PURPOSE. SEE THE GNU
# GENERAL PUBLIC LICENSE FOR MORE DETAILS.
#
# YOU SHOULD HAVE RECEIVED A COPY OF THE GNU GENERAL PUBLIC LICENSE
# ALONG WITH THIS PROGRAM; IF NOT, WRITE TO EDF R&D CODE_ASTER,
#    1 AVENUE DU GENERAL DE GAULLE, 92141 CLAMART CEDEX, FRANCE.
# ======================================================================
# TEST MPI SUR 4 PROCESSEURS
# CHARGEMENT DE NEUMANN (PRESSION REPARTIE)

DEBUT(CODE=_F(NIV_PUB_WEB='INTERNET',),);

MA=LIRE_MAILLAGE(FORMAT='MED',);

MO=AFFE_MODELE(MAILLAGE=MA,
               AFFE=_F(TOUT='OUI',
                       PHENOMENE='MECANIQUE',
                       MODELISATION='3D',),);

#Acier

MAT1=DEFI_MATERIAU(ELAS=_F(E=2.1e+11,
                           NU=0.3,),);

AFMAT=AFFE_MATERIAU(MAILLAGE=MA,
                    AFFE=_F(TOUT='OUI',
                            MATER=MAT1,),);

ENCASTR=AFFE_CHAR_MECA(MODELE=MO,
                       DDL_IMPO=_F(GROUP_NO='Cote_inferieur',
                                   DX=0,
                                   DY=0,
                                   DZ=0,),);

PRESSION=AFFE_CHAR_MECA(MODELE=MO,
                        PRES_REP=_F(GROUP_MA='load_top',
                                    PRES=100000000.0,),);

# DISTRIBUTION PAR GREL

MESTAT=MECA_STATIQUE(MODELE=MO,
                     CHAM_MATER=AFMAT,
                     EXCIT=(_F(CHARGE=ENCASTR,),
                            _F(CHARGE=PRESSION,),),
                     SOLVEUR=_F(METHODE='PETSC',
                                MATR_DISTRIBUEE='OUI',
                                ALGORITHME='GCR',
                                PRE_COND='LDLT_SP',
                                RESI_RELA=1e-12,
                                PCENT_PIVOT=100,),
                     INFO=2,);

IMPR_RESU(RESU=_F(RESULTAT=MESTAT,
                  NOM_CHAM='DEPL',),);

INT_DZ=POST_ELEM(INTEGRALE=_F(GROUP_MA='Face_i',
                              NOM_CHAM='DEPL',
                              NOM_CMP='DZ',
                              TYPE_MAILLE='2D',),
                 CHAM_MATER=AFMAT,
                 RESULTAT=MESTAT,);

INT_DX=POST_ELEM(INTEGRALE=_F(GROUP_MA='Arete_superieure_y',
                              NOM_CHAM='DEPL',
                              NOM_CMP='DX',
                              TYPE_MAILLE='1D',),
                 CHAM_MATER=AFMAT,
                 RESULTAT=MESTAT,);

INT_DY=POST_ELEM(INTEGRALE=_F(GROUP_MA='Arete_superieure_x',
                              NOM_CHAM='DEPL',
                              NOM_CMP='DY',
                              TYPE_MAILLE='1D',),
                 CHAM_MATER=AFMAT,
                 RESULTAT=MESTAT,);

IMPR_TABLE(TABLE=INT_DZ,);

IMPR_TABLE(TABLE=INT_DX,);

IMPR_TABLE(TABLE=INT_DY,);

TEST_TABLE(TABLE=INT_DZ,
           NOM_PARA='MOYE_DZ',
           VALE_CALC=-0.000208987708339,);

TEST_TABLE(TABLE=INT_DX,
           NOM_PARA='MOYE_DX',
           VALE_CALC=-7.364604818E-05,);

TEST_TABLE(TABLE=INT_DY,
           NOM_PARA='MOYE_DY',
           VALE_CALC=-7.364604818E-05,);

# CHARGEMENT : PRESSION SUIVEUSE, LA MATRICE N'EST PAS SYMETRIQUE 
T = 1.0;

tau = 1.0;


ListReel=DEFI_LIST_REEL(DEBUT=0,
                        INTERVALLE=_F(JUSQU_A=T,
                                      PAS=tau,),);

EVOL=STAT_NON_LINE(MODELE=MO,
                   CHAM_MATER=AFMAT,
                   EXCIT=(_F(CHARGE=ENCASTR,),
                          _F(CHARGE=PRESSION,
                             TYPE_CHARGE='SUIV',),),
                   COMPORTEMENT=_F(RELATION='ELAS',
                                   DEFORMATION='GROT_GDEP',),
                   INCREMENT=_F(LIST_INST=ListReel,),
                   NEWTON=_F(PREDICTION='TANGENTE',
                             MATRICE='TANGENTE',
                             REAC_ITER=1,
                             REAC_ITER_ELAS=1,),
                   CONVERGENCE=_F(RESI_GLOB_MAXI=0.0001,
                                  RESI_GLOB_RELA=1e-06,
                                  ITER_GLOB_MAXI=20,
                                  ),
                   SOLVEUR=_F(METHODE='PETSC',
                              MATR_DISTRIBUEE='OUI',
                              ALGORITHME='GCR',
                              PRE_COND='LDLT_SP',
                              RESI_RELA=1e-06,
                              NMAX_ITER=0,
                              RENUM='SANS',
                              REAC_PRECOND=30,
                              PCENT_PIVOT=100,),);

EV_DZ=POST_ELEM(INTEGRALE=_F(GROUP_MA='Face_i',
                             NOM_CHAM='DEPL',
                             NOM_CMP='DZ',
                             TYPE_MAILLE='2D',),
                CHAM_MATER=AFMAT,
                RESULTAT=EVOL,
                NUME_ORDRE=1,);

EV_DX=POST_ELEM(INTEGRALE=_F(GROUP_MA='Arete_superieure_y',
                             NOM_CHAM='DEPL',
                             NOM_CMP='DX',
                             TYPE_MAILLE='1D',),
                CHAM_MATER=AFMAT,
                RESULTAT=EVOL,
                NUME_ORDRE=1,);

EV_DY=POST_ELEM(INTEGRALE=_F(GROUP_MA='Arete_superieure_x',
                             NOM_CHAM='DEPL',
                             NOM_CMP='DY',
                             TYPE_MAILLE='1D',),
                CHAM_MATER=AFMAT,
                RESULTAT=EVOL,
                NUME_ORDRE=1,);

# Test de non-regression sur la valeur moyenne des déplacements

TEST_TABLE(TABLE=EV_DZ,
           NOM_PARA='MOYE_DZ',
           VALE_CALC=-0.000209188587359,);

TEST_TABLE(TABLE=EV_DX,
           NOM_PARA='MOYE_DX',
           VALE_CALC=-7.36954516145E-05,);

TEST_TABLE(TABLE=EV_DY,
           NOM_PARA='MOYE_DY',
           VALE_CALC=-7.36954516145E-05,);

FIN();
#CHECKSUM:e25e9d8cc951297d921f96935e634338  -:FIN CHECKSUM
