# MODIF  DATE 18/01/2011   AUTEUR DESOZA T.DESOZA 
# TITRE  Validation du solveur PETSc en elasticite lineaire 3D
# petsc01c.para = tps_job 60 mem_job 1000Mo nproc_mpi 2 liste_test I
#            CONFIGURATION MANAGEMENT OF EDF VERSION
# ======================================================================
# COPYRIGHT (C) 1991 - 2011  EDF R&D                  WWW.CODE-ASTER.ORG
# THIS PROGRAM IS FREE SOFTWARE; YOU CAN REDISTRIBUTE IT AND/OR MODIFY  
# IT UNDER THE TERMS OF THE GNU GENERAL PUBLIC LICENSE AS PUBLISHED BY  
# THE FREE SOFTWARE FOUNDATION; EITHER VERSION 2 OF THE LICENSE, OR     
# (AT YOUR OPTION) ANY LATER VERSION.                                                    
#                                                                       
# THIS PROGRAM IS DISTRIBUTED IN THE HOPE THAT IT WILL BE USEFUL, BUT   
# WITHOUT ANY WARRANTY; WITHOUT EVEN THE IMPLIED WARRANTY OF            
# MERCHANTABILITY OR FITNESS FOR A PARTICULAR PURPOSE. SEE THE GNU      
# GENERAL PUBLIC LICENSE FOR MORE DETAILS.                              
#                                                                       
# YOU SHOULD HAVE RECEIVED A COPY OF THE GNU GENERAL PUBLIC LICENSE     
# ALONG WITH THIS PROGRAM; IF NOT, WRITE TO EDF R&D CODE_ASTER,         
#    1 AVENUE DU GENERAL DE GAULLE, 92141 CLAMART CEDEX, FRANCE.        
# ======================================================================

DEBUT(CODE=_F(NOM='PETSC01C',
              NIV_PUB_WEB='INTERNET',),);

MA=LIRE_MAILLAGE();

MO=AFFE_MODELE(MAILLAGE=MA,
               AFFE=_F(TOUT='OUI',
                       PHENOMENE='MECANIQUE',
                       MODELISATION='3D',),
               PARTITION=_F(PARALLELISME='MAIL_DISPERSE',),
               );

MAT=DEFI_MATERIAU(ELAS=_F(E=202702.7,
                          NU=0.3,),
                  THER=_F(LAMBDA=2.7,
                          RHO_CP=0.3,),);

CHMAT=AFFE_MATERIAU(MAILLAGE=MA,
                    AFFE=_F(TOUT='OUI',
                            MATER=MAT,),);

CHA1=AFFE_CHAR_MECA(MODELE=MO,
                    DDL_IMPO=(_F(GROUP_NO='GRNO1',
                                 DZ=0.0,),
                              _F(GROUP_NO='GRNO8',
                                 DY=0.0,),),);

CHA2=AFFE_CHAR_CINE(MODELE=MO,
                    MECA_IMPO=_F(GROUP_NO='GRNO7',
                                 DX=0.0,
                                 DY=0.01,),);

MEL=CALC_MATR_ELEM(OPTION='RIGI_MECA',
                   MODELE=MO,
                   CHAM_MATER=CHMAT,
                   CHARGE=CHA1,);

NU=NUME_DDL(MATR_RIGI=MEL,
            METHODE='PETSC',);

VECAS=CREA_CHAMP(TYPE_CHAM='NOEU_DEPL_R',
                 NUME_DDL=NU,
                 OPERATION='AFFE',
                 MAILLAGE=MA,
                 AFFE=_F(TOUT='OUI',
                         NOM_CMP=('DX','DY','DZ',),
                         VALE=(0.,0.,0.,),),);

MATAS=ASSE_MATRICE(MATR_ELEM=MEL,
                   NUME_DDL=NU,
                   CHAR_CINE=CHA2,);

VCINE=CALC_CHAR_CINE(NUME_DDL=NU,
                     CHAR_CINE=CHA2,);

MATAS=FACTORISER(reuse =MATAS,
                 MATR_ASSE=MATAS,);

VECAS=RESOUDRE(reuse =VECAS,
               MATR=MATAS,
               CHAM_NO=VECAS,
               CHAM_CINE=VCINE,
               ALGORITHME='CR',);

TEST_RESU(CHAM_NO=(_F(CHAM_GD=VECAS,
                      NOEUD='NO2958',
                      NOM_CMP='DY',
                      VALE=0.01,
                      PRECISION=0.00015,
                      REFERENCE='AUTRE_ASTER',),
                   _F(CHAM_GD=VECAS,
                      NOEUD='NO2958',
                      NOM_CMP='DZ',
                      VALE=0.00010296,
                      PRECISION=0.00015,
                      REFERENCE='AUTRE_ASTER',),
                   _F(CHAM_GD=VECAS,
                      NOEUD='NO2974',
                      NOM_CMP='DX',
                      VALE=0.0043006,
                      PRECISION=0.00015,
                      REFERENCE='AUTRE_ASTER',),
                   _F(CHAM_GD=VECAS,
                      NOEUD='NO2974',
                      NOM_CMP='DY',
                      VALE=0.009289,
                      PRECISION=0.00015,
                      REFERENCE='AUTRE_ASTER',),
                   _F(CHAM_GD=VECAS,
                      NOEUD='NO2974',
                      NOM_CMP='DZ',
                      VALE=-2.9173e-05,
                      PRECISION=0.00015,
                      REFERENCE='AUTRE_ASTER',),),);

FIN();
