# MODIF  DATE 26/03/2012   AUTEUR DESOZA T.DESOZA 
# TITRE  Validation du solveur PETSc en elasticite lineaire 3D
# petsc01g.para = tps_job 60 mem_job 1000Mo liste_test I
#            CONFIGURATION MANAGEMENT OF EDF VERSION
# ======================================================================
# COPYRIGHT (C) 1991 - 2012  EDF R&D                  WWW.CODE-ASTER.ORG
# THIS PROGRAM IS FREE SOFTWARE; YOU CAN REDISTRIBUTE IT AND/OR MODIFY  
# IT UNDER THE TERMS OF THE GNU GENERAL PUBLIC LICENSE AS PUBLISHED BY  
# THE FREE SOFTWARE FOUNDATION; EITHER VERSION 2 OF THE LICENSE, OR     
# (AT YOUR OPTION) ANY LATER VERSION.                                                    
#                                                                       
# THIS PROGRAM IS DISTRIBUTED IN THE HOPE THAT IT WILL BE USEFUL, BUT   
# WITHOUT ANY WARRANTY; WITHOUT EVEN THE IMPLIED WARRANTY OF            
# MERCHANTABILITY OR FITNESS FOR A PARTICULAR PURPOSE. SEE THE GNU      
# GENERAL PUBLIC LICENSE FOR MORE DETAILS.                              
#                                                                       
# YOU SHOULD HAVE RECEIVED A COPY OF THE GNU GENERAL PUBLIC LICENSE     
# ALONG WITH THIS PROGRAM; IF NOT, WRITE TO EDF R&D CODE_ASTER,         
#    1 AVENUE DU GENERAL DE GAULLE, 92141 CLAMART CEDEX, FRANCE.        
# ======================================================================

DEBUT(CODE=_F(NOM='PETSC01G',
              NIV_PUB_WEB='INTERNET',),);

MA=LIRE_MAILLAGE(FORMAT='MED',);

MO=AFFE_MODELE(MAILLAGE=MA,
               AFFE=_F(TOUT='OUI',
                       PHENOMENE='MECANIQUE',
                       MODELISATION='3D',),
               PARTITION=_F(PARALLELISME='CENTRALISE',),
               );

PART=DEFI_PART_FETI(MODELE=MO,
                    EXCIT=_F(),
                    NB_PART=4,);

MO=MODI_MODELE(reuse=MO,
               MODELE=MO,
               PARTITION=_F(PARALLELISME='SOUS_DOMAINE',
                            PARTITION=PART,),
               );

MAT=DEFI_MATERIAU(ELAS=_F(E=202702.7,
                          NU=0.3,),);

CHMAT=AFFE_MATERIAU(MAILLAGE=MA,
                    AFFE=_F(TOUT='OUI',
                            MATER=MAT,),);

CHA1=AFFE_CHAR_CINE(MODELE=MO,
                    MECA_IMPO=(_F(GROUP_NO='GRNO1',
                                  DZ=0.0,),
                               _F(GROUP_NO='GRNO8',
                                  DY=0.0,),
                               _F(GROUP_NO='GRNO7',
                                  DX=0.0,
                                  DY=0.01,),),);

VECAS1=MECA_STATIQUE(MODELE=MO,
                     CHAM_MATER=CHMAT,
                     EXCIT=(_F(CHARGE=CHA1,),),
                     SOLVEUR=_F(METHODE='PETSC',
                                ALGORITHME='CR',
                                PRE_COND='JACOBI',
                                RESI_RELA=1.E-8,),);

VECAS2=MECA_STATIQUE(MODELE=MO,
                     CHAM_MATER=CHMAT,
                     EXCIT=(_F(CHARGE=CHA1,),),
                     SOLVEUR=_F(METHODE='PETSC',
                                ALGORITHME='CR',
                                PRE_COND='SOR',
                                RESI_RELA=1.E-8,),);

VECAS3=MECA_STATIQUE(MODELE=MO,
                     CHAM_MATER=CHMAT,
                     EXCIT=(_F(CHARGE=CHA1,),),
                     SOLVEUR=_F(METHODE='PETSC',
                                ALGORITHME='CR',
                                PRE_COND='SANS',
                                RESI_RELA=1.E-8,),);

TEST_RESU(RESU=(_F(RESULTAT=VECAS1,
                   NUME_ORDRE=1,
                   NOM_CHAM='DEPL',
                   NOM_CMP='DY',
                   NOEUD='NO2958',
                   VALE=0.01,
                   PRECISION=0.00015,
                   REFERENCE='AUTRE_ASTER',),
                _F(RESULTAT=VECAS1,
                   NUME_ORDRE=1,
                   NOM_CHAM='DEPL',
                   NOM_CMP='DZ',
                   NOEUD='NO2958',
                   VALE=0.00010296,
                   PRECISION=0.00015,
                   REFERENCE='AUTRE_ASTER',),
                _F(RESULTAT=VECAS1,
                   NUME_ORDRE=1,
                   NOM_CHAM='DEPL',
                   NOM_CMP='DX',
                   NOEUD='NO2974',
                   VALE=0.0043006,
                   PRECISION=0.00015,
                   REFERENCE='AUTRE_ASTER',),
                _F(RESULTAT=VECAS1,
                   NUME_ORDRE=1,
                   NOM_CHAM='DEPL',
                   NOM_CMP='DY',
                   NOEUD='NO2974',
                   VALE=0.009289,
                   PRECISION=0.00015,
                   REFERENCE='AUTRE_ASTER',),
                _F(RESULTAT=VECAS1,
                   NUME_ORDRE=1,
                   NOM_CHAM='DEPL',
                   NOM_CMP='DZ',
                   NOEUD='NO2974',
                   VALE=-2.9173e-05,
                   PRECISION=0.00015,
                   REFERENCE='AUTRE_ASTER',),),);

TEST_RESU(RESU=(_F(RESULTAT=VECAS2,
                   NUME_ORDRE=1,
                   NOM_CHAM='DEPL',
                   NOM_CMP='DY',
                   NOEUD='NO2958',
                   VALE=0.01,
                   PRECISION=0.00015,
                   REFERENCE='AUTRE_ASTER',),
                _F(RESULTAT=VECAS2,
                   NUME_ORDRE=1,
                   NOM_CHAM='DEPL',
                   NOM_CMP='DZ',
                   NOEUD='NO2958',
                   VALE=0.00010296,
                   PRECISION=0.00015,
                   REFERENCE='AUTRE_ASTER',),
                _F(RESULTAT=VECAS2,
                   NUME_ORDRE=1,
                   NOM_CHAM='DEPL',
                   NOM_CMP='DX',
                   NOEUD='NO2974',
                   VALE=0.0043006,
                   PRECISION=0.00015,
                   REFERENCE='AUTRE_ASTER',),
                _F(RESULTAT=VECAS2,
                   NUME_ORDRE=1,
                   NOM_CHAM='DEPL',
                   NOM_CMP='DY',
                   NOEUD='NO2974',
                   VALE=0.009289,
                   PRECISION=0.00015,
                   REFERENCE='AUTRE_ASTER',),
                _F(RESULTAT=VECAS2,
                   NUME_ORDRE=1,
                   NOM_CHAM='DEPL',
                   NOM_CMP='DZ',
                   NOEUD='NO2974',
                   VALE=-2.9173e-05,
                   PRECISION=0.00015,
                   REFERENCE='AUTRE_ASTER',),),);

TEST_RESU(RESU=(_F(RESULTAT=VECAS3,
                   NUME_ORDRE=1,
                   NOM_CHAM='DEPL',
                   NOM_CMP='DY',
                   NOEUD='NO2958',
                   VALE=0.01,
                   PRECISION=0.00015,
                   REFERENCE='AUTRE_ASTER',),
                _F(RESULTAT=VECAS3,
                   NUME_ORDRE=1,
                   NOM_CHAM='DEPL',
                   NOM_CMP='DZ',
                   NOEUD='NO2958',
                   VALE=0.00010296,
                   PRECISION=0.00015,
                   REFERENCE='AUTRE_ASTER',),
                _F(RESULTAT=VECAS3,
                   NUME_ORDRE=1,
                   NOM_CHAM='DEPL',
                   NOM_CMP='DX',
                   NOEUD='NO2974',
                   VALE=0.0043006,
                   PRECISION=0.00015,
                   REFERENCE='AUTRE_ASTER',),
                _F(RESULTAT=VECAS3,
                   NUME_ORDRE=1,
                   NOM_CHAM='DEPL',
                   NOM_CMP='DY',
                   NOEUD='NO2974',
                   VALE=0.009289,
                   PRECISION=0.00015,
                   REFERENCE='AUTRE_ASTER',),
                _F(RESULTAT=VECAS3,
                   NUME_ORDRE=1,
                   NOM_CHAM='DEPL',
                   NOM_CMP='DZ',
                   NOEUD='NO2974',
                   VALE=-2.9173e-05,
                   PRECISION=0.00015,
                   REFERENCE='AUTRE_ASTER',),),);

FIN();
