# ======================================================================
# COPYRIGHT (C) 1991 - 2016  EDF R&D                  WWW.CODE-ASTER.ORG
# THIS PROGRAM IS FREE SOFTWARE; YOU CAN REDISTRIBUTE IT AND/OR MODIFY
# IT UNDER THE TERMS OF THE GNU GENERAL PUBLIC LICENSE AS PUBLISHED BY
# THE FREE SOFTWARE FOUNDATION; EITHER VERSION 2 OF THE LICENSE, OR
# (AT YOUR OPTION) ANY LATER VERSION.
#
# THIS PROGRAM IS DISTRIBUTED IN THE HOPE THAT IT WILL BE USEFUL, BUT
# WITHOUT ANY WARRANTY; WITHOUT EVEN THE IMPLIED WARRANTY OF
# MERCHANTABILITY OR FITNESS FOR A PARTICULAR PURPOSE. SEE THE GNU
# GENERAL PUBLIC LICENSE FOR MORE DETAILS.
#
# YOU SHOULD HAVE RECEIVED A COPY OF THE GNU GENERAL PUBLIC LICENSE
# ALONG WITH THIS PROGRAM; IF NOT, WRITE TO EDF R&D CODE_ASTER,
#    1 AVENUE DU GENERAL DE GAULLE, 92141 CLAMART CEDEX, FRANCE.
# ======================================================================

DEBUT(CODE=_F(
              NIV_PUB_WEB='INTERNET',),PAR_LOT='NON');

MA=LIRE_MAILLAGE(FORMAT='MED',);

MO=AFFE_MODELE(MAILLAGE=MA,
               AFFE=_F(TOUT='OUI',
                       PHENOMENE='MECANIQUE',
                       MODELISATION='3D',),
               DISTRIBUTION=_F(METHODE='SOUS_DOMAINE', NB_SOUS_DOMAINE=4,),
               );

MAT=DEFI_MATERIAU(ELAS=_F(E=202702.7,
                          NU=0.3,),);

CHMAT=AFFE_MATERIAU(MAILLAGE=MA,
                    AFFE=_F(TOUT='OUI',
                            MATER=MAT,),);

CHA1=AFFE_CHAR_CINE(MODELE=MO,
                       MECA_IMPO=(_F(GROUP_NO='GRNO1',
                                     DZ=0.0,),
                                  _F(GROUP_NO='GRNO8',
                                     DY=0.0,),),);

CHA2=AFFE_CHAR_CINE(MODELE=MO,
                    MECA_IMPO=_F(GROUP_NO='GRNO7',
                                 DX=0.0,
                                 DY=0.01,),);

# RESULTAT DE REFERENCE : CALCUL AVEC UN SOLVEUR DIRECT (MUMPS)
RESREF=MECA_STATIQUE(MODELE=MO,
                    CHAM_MATER=CHMAT,
                    EXCIT=(_F(CHARGE=CHA1,),
                           _F(CHARGE=CHA2,),),
                    SOLVEUR=_F(METHODE='MUMPS',),);
TREF=POST_RELEVE_T(  ACTION=_F(  INTITULE = 'UREF', NOEUD =('NO2958','NO2974'), OPERATION = 'EXTRACTION',
                                      RESULTAT = RESREF, NUME_ORDRE=1, NOM_CHAM='DEPL', NOM_CMP = ('DX','DY','DZ'), ) )


VECAS=MECA_STATIQUE(MODELE=MO,
                    CHAM_MATER=CHMAT,
                    EXCIT=(_F(CHARGE=CHA1,),
                           _F(CHARGE=CHA2,),),
                    SOLVEUR=_F(METHODE='PETSC',
                               PRE_COND='LDLT_INC',
                               ALGORITHME='CR',
                               RESI_RELA=1.E-08),);

VECAS2=MECA_STATIQUE(MODELE=MO,
                    CHAM_MATER=CHMAT,
                    EXCIT=(_F(CHARGE=CHA1,),
                           _F(CHARGE=CHA2,),),
                    SOLVEUR=_F(METHODE='PETSC',
                               PRE_COND='LDLT_INC',
                               ALGORITHME='CG',
                               RESI_RELA=1.E-08),);

TEST_RESU(RESU=(_F(RESULTAT=VECAS,
                   NUME_ORDRE=1,
                   NOM_CHAM='DEPL',
                   NOM_CMP='DY',
                   NOEUD='NO2958',
                   VALE_CALC=0.00999999999516,
                   VALE_REFE=TREF['DY',1],
                   PRECISION=1.E-06,
                   REFERENCE='AUTRE_ASTER',),
                _F(RESULTAT=VECAS,
                   NUME_ORDRE=1,
                   NOM_CHAM='DEPL',
                   NOM_CMP='DZ',
                   NOEUD='NO2958',
                   VALE_CALC=0.000102958231064, 
                   VALE_REFE=TREF['DZ',1],
                   PRECISION=1.E-06,
                   REFERENCE='AUTRE_ASTER',),
                _F(RESULTAT=VECAS,
                   NUME_ORDRE=1,
                   NOM_CHAM='DEPL',
                   NOM_CMP='DX',
                   NOEUD='NO2974',
                   VALE_CALC=0.00430057957314,
                   VALE_REFE=TREF['DX',2],
                   PRECISION=1.E-06,
                   REFERENCE='AUTRE_ASTER',),
                _F(RESULTAT=VECAS,
                   NUME_ORDRE=1,
                   NOM_CHAM='DEPL',
                   NOM_CMP='DY',
                   NOEUD='NO2974',
                   VALE_CALC=0.00928897504989,
                   VALE_REFE=TREF['DY',2],
                   PRECISION=1.E-06,
                   REFERENCE='AUTRE_ASTER',),
                _F(RESULTAT=VECAS,
                   NUME_ORDRE=1,
                   NOM_CHAM='DEPL',
                   NOM_CMP='DZ',
                   NOEUD='NO2974',
                   VALE_CALC=-2.91729569714E-05,
                   VALE_REFE=TREF['DZ',2],
                   PRECISION=1.E-06,
                   REFERENCE='AUTRE_ASTER',),),);

TEST_RESU(RESU=(_F(RESULTAT=VECAS2,
                   NUME_ORDRE=1,
                   NOM_CHAM='DEPL',
                   NOM_CMP='DY',
                   NOEUD='NO2958',
                   VALE_CALC=0.0100000000053,
                   VALE_REFE=0.01,
                   PRECISION=1.E-06,
                   REFERENCE='AUTRE_ASTER',),
                _F(RESULTAT=VECAS2,
                   NUME_ORDRE=1,
                   NOM_CHAM='DEPL',
                   NOM_CMP='DZ',
                   NOEUD='NO2958',
                   VALE_CALC=0.000102958225651,
                   VALE_REFE=TREF['DZ',1],
                   PRECISION=1.E-06,
                   REFERENCE='AUTRE_ASTER',),
                _F(RESULTAT=VECAS2,
                   NUME_ORDRE=1,
                   NOM_CHAM='DEPL',
                   NOM_CMP='DX',
                   NOEUD='NO2974',
                   VALE_CALC=0.00430057955721,
                   VALE_REFE=TREF['DX',2],
                   PRECISION=1.E-06,
                   REFERENCE='AUTRE_ASTER',),
                _F(RESULTAT=VECAS2,
                   NUME_ORDRE=1,
                   NOM_CHAM='DEPL',
                   NOM_CMP='DY',
                   NOEUD='NO2974',
                   VALE_CALC=0.00928897505136,
                   VALE_REFE=TREF['DY',2],
                   PRECISION=1.E-06,
                   REFERENCE='AUTRE_ASTER',),
                _F(RESULTAT=VECAS2,
                   NUME_ORDRE=1,
                   NOM_CHAM='DEPL',
                   NOM_CMP='DZ',
                   NOEUD='NO2974',
                   VALE_CALC=-2.91729484857E-05,
                   VALE_REFE=TREF['DZ',2],
                   PRECISION=1.E-06,
                   REFERENCE='AUTRE_ASTER',),),);

FIN();
