# ======================================================================
# COPYRIGHT (C) 1991 - 2016  EDF R&D                  WWW.CODE-ASTER.ORG
# THIS PROGRAM IS FREE SOFTWARE; YOU CAN REDISTRIBUTE IT AND/OR MODIFY
# IT UNDER THE TERMS OF THE GNU GENERAL PUBLIC LICENSE AS PUBLISHED BY
# THE FREE SOFTWARE FOUNDATION; EITHER VERSION 2 OF THE LICENSE, OR
# (AT YOUR OPTION) ANY LATER VERSION.
#
# THIS PROGRAM IS DISTRIBUTED IN THE HOPE THAT IT WILL BE USEFUL, BUT
# WITHOUT ANY WARRANTY; WITHOUT EVEN THE IMPLIED WARRANTY OF
# MERCHANTABILITY OR FITNESS FOR A PARTICULAR PURPOSE. SEE THE GNU
# GENERAL PUBLIC LICENSE FOR MORE DETAILS.
#
# YOU SHOULD HAVE RECEIVED A COPY OF THE GNU GENERAL PUBLIC LICENSE
# ALONG WITH THIS PROGRAM; IF NOT, WRITE TO EDF R&D CODE_ASTER,
#    1 AVENUE DU GENERAL DE GAULLE, 92141 CLAMART CEDEX, FRANCE.
# ======================================================================

DEBUT(CODE=_F(NIV_PUB_WEB='INTERNET',), PAR_LOT='NON',
      # SUPERVIS_1 : a cause de PAR_LOT='NON' necessaire pour recuperer la valeur de reference.
      IGNORE_ALARM=('SUPERVIS_1'),);

MA=LIRE_MAILLAGE(FORMAT='MED',);

MO=AFFE_MODELE(MAILLAGE=MA,
               AFFE=_F(TOUT='OUI',
                       PHENOMENE='MECANIQUE',
                       MODELISATION='3D',),
               );

MAT=DEFI_MATERIAU(ELAS=_F(E=202702.7,
                          NU=0.3,),);

CHMAT=AFFE_MATERIAU(MAILLAGE=MA,
                    AFFE=_F(TOUT='OUI',
                            MATER=MAT,),);

CHA1=AFFE_CHAR_MECA(MODELE=MO,
                    DDL_IMPO=(_F(GROUP_NO='GRNO1',
                                 DZ=0.0,),
                              _F(GROUP_NO='GRNO8',
                                 DY=0.0,),),);


CHA2=AFFE_CHAR_CINE(MODELE=MO,
                    MECA_IMPO=_F(GROUP_NO='GRNO7',
                                 DX=0.0,
                                 DY=0.01,),);
# REFERENCE = calcul MUMPS
VECREF=MECA_STATIQUE(MODELE=MO,
                    CHAM_MATER=CHMAT,
                    EXCIT=(_F(CHARGE=CHA1,),
                           _F(CHARGE=CHA2,),),
                    SOLVEUR=_F(METHODE='MUMPS'),); 

TREF=POST_RELEVE_T(  ACTION=_F(  INTITULE = 'XX1', NOEUD = ('NO2958', 'NO2974'), OPERATION = 'EXTRACTION',
                                RESULTAT = VECREF, NUME_ORDRE=1, NOM_CHAM='DEPL', NOM_CMP = ('DX','DY','DZ') ))

#
VECAS=MECA_STATIQUE(MODELE=MO,
                    CHAM_MATER=CHMAT,
                    EXCIT=(_F(CHARGE=CHA1,),
                           _F(CHARGE=CHA2,),),
                    SOLVEUR=_F(METHODE='PETSC',
                               PRE_COND='BLOC_LAGR',
                               ALGORITHME='CG',
                               RESI_RELA=1.E-07),);
VECAS2=MECA_STATIQUE(MODELE=MO,
                    CHAM_MATER=CHMAT,
                    EXCIT=(_F(CHARGE=CHA1,),
                           _F(CHARGE=CHA2,),),
                    SOLVEUR=_F(METHODE='PETSC',
                               PRE_COND='BLOC_LAGR',
                               ALGORITHME='GMRES',
                               RESI_RELA=1.E-07),);
# 
TEST_RESU(RESU=(_F(RESULTAT=VECAS,
                   NUME_ORDRE=1,
                   NOM_CHAM='DEPL',
                   NOM_CMP='DY',
                   NOEUD='NO2958',
                   VALE_CALC=0.0100000000439, 
                   VALE_REFE=TREF['DY',1], 
                   PRECISION=1.E-06,
                   REFERENCE='AUTRE_ASTER',),
                _F(RESULTAT=VECAS,
                   NUME_ORDRE=1,
                   NOM_CHAM='DEPL',
                   NOM_CMP='DZ',
                   NOEUD='NO2958',
                   VALE_CALC=0.000102958209453, 
                   VALE_REFE=TREF['DZ',1], 
                   PRECISION=1.E-06,
                   REFERENCE='AUTRE_ASTER',),
                _F(RESULTAT=VECAS,
                   NUME_ORDRE=1,
                   NOM_CHAM='DEPL',
                   NOM_CMP='DY',
                   NOEUD='NO2958',
                   VALE_CALC=0.0100000000439, 
                   VALE_REFE=TREF['DY',1], 
                   PRECISION=1.E-06,
                   REFERENCE='AUTRE_ASTER',),
                _F(RESULTAT=VECAS,
                   NUME_ORDRE=1,
                   NOM_CHAM='DEPL',
                   NOM_CMP='DX',
                   NOEUD='NO2974',
                   VALE_CALC=0.00430057930822, 
                   VALE_REFE=TREF['DX',2], 
                   PRECISION=1.E-06,
                   REFERENCE='AUTRE_ASTER',),
                _F(RESULTAT=VECAS,
                   NUME_ORDRE=1,
                   NOM_CHAM='DEPL',
                   NOM_CMP='DY',
                   NOEUD='NO2974',
                   VALE_CALC=0.00928897504797, 
                   VALE_REFE=TREF['DY',2], 
                   PRECISION=1.E-06,
                   REFERENCE='AUTRE_ASTER',),
               _F(RESULTAT=VECAS,
                   NUME_ORDRE=1,
                   NOM_CHAM='DEPL',
                   NOM_CMP='DZ',
                   NOEUD='NO2974',
                   VALE_CALC=-2.91729396912E-05, 
                   VALE_REFE=TREF['DZ',2], 
                   PRECISION=1.E-06,
                   REFERENCE='AUTRE_ASTER',),
               ),);
#
TEST_RESU(RESU=(_F(RESULTAT=VECAS2,
                   NUME_ORDRE=1,
                   NOM_CHAM='DEPL',
                   NOM_CMP='DY',
                   NOEUD='NO2958',
                   VALE_CALC=0.0100000000108, 
                   VALE_REFE=TREF['DY',1], 
                   PRECISION=1.E-06,
                   REFERENCE='AUTRE_ASTER',),
                _F(RESULTAT=VECAS2,
                   NUME_ORDRE=1,
                   NOM_CHAM='DEPL',
                   NOM_CMP='DZ',
                   NOEUD='NO2958',
                   VALE_CALC=0.000102958205751, 
                   VALE_REFE=TREF['DZ',1], 
                   PRECISION=1.E-06,
                   REFERENCE='AUTRE_ASTER',),
                _F(RESULTAT=VECAS2,
                   NUME_ORDRE=1,
                   NOM_CHAM='DEPL',
                   NOM_CMP='DY',
                   NOEUD='NO2958',
                   VALE_CALC=0.0100000000108, 
                   VALE_REFE=TREF['DY',1], 
                   PRECISION=1.E-06,
                   REFERENCE='AUTRE_ASTER',),
                _F(RESULTAT=VECAS2,
                   NUME_ORDRE=1,
                   NOM_CHAM='DEPL',
                   NOM_CMP='DX',
                   NOEUD='NO2974',
                   VALE_CALC=0.00430057989223, 
                   VALE_REFE=TREF['DX',2], 
                   PRECISION=1.E-06,
                   REFERENCE='AUTRE_ASTER',),
                _F(RESULTAT=VECAS2,
                   NUME_ORDRE=1,
                   NOM_CHAM='DEPL',
                   NOM_CMP='DY',
                   NOEUD='NO2974',
                   VALE_CALC=0.00928897521706, 
                   VALE_REFE=TREF['DY',2], 
                   PRECISION=1.E-06,
                   REFERENCE='AUTRE_ASTER',),
               _F(RESULTAT=VECAS2,
                   NUME_ORDRE=1,
                   NOM_CHAM='DEPL',
                   NOM_CMP='DZ',
                   NOEUD='NO2974',
                   VALE_CALC=-2.91729293048E-05, 
                   VALE_REFE=TREF['DZ',2], 
                   PRECISION=1.E-06,
                   REFERENCE='AUTRE_ASTER',),
               ),);

FIN();
