# ======================================================================
# COPYRIGHT (C) 1991 - 2016  EDF R&D                  WWW.CODE-ASTER.ORG
# THIS PROGRAM IS FREE SOFTWARE; YOU CAN REDISTRIBUTE IT AND/OR MODIFY
# IT UNDER THE TERMS OF THE GNU GENERAL PUBLIC LICENSE AS PUBLISHED BY
# THE FREE SOFTWARE FOUNDATION; EITHER VERSION 2 OF THE LICENSE, OR
# (AT YOUR OPTION) ANY LATER VERSION.
#
# THIS PROGRAM IS DISTRIBUTED IN THE HOPE THAT IT WILL BE USEFUL, BUT
# WITHOUT ANY WARRANTY; WITHOUT EVEN THE IMPLIED WARRANTY OF
# MERCHANTABILITY OR FITNESS FOR A PARTICULAR PURPOSE. SEE THE GNU
# GENERAL PUBLIC LICENSE FOR MORE DETAILS.
#
# YOU SHOULD HAVE RECEIVED A COPY OF THE GNU GENERAL PUBLIC LICENSE
# ALONG WITH THIS PROGRAM; IF NOT, WRITE TO EDF R&D CODE_ASTER,
#    1 AVENUE DU GENERAL DE GAULLE, 92141 CLAMART CEDEX, FRANCE.
# ======================================================================

DEBUT(CODE=_F(NIV_PUB_WEB='INTERNET',),);

MA=LIRE_MAILLAGE(FORMAT='MED',);

MO=AFFE_MODELE(MAILLAGE=MA,
               AFFE=_F(TOUT='OUI',
                       PHENOMENE='MECANIQUE',
                       MODELISATION='3D',),
               PARTITION=_F(PARALLELISME='CENTRALISE',),
               );

PART=DEFI_PARTITION(MODELE=MO,
                    NB_PART=4,);

MO=MODI_MODELE(reuse=MO,
               MODELE=MO,
               PARTITION=_F(PARALLELISME='SOUS_DOMAINE',
                            PARTITION=PART,),
               );

MAT=DEFI_MATERIAU(ELAS=_F(E=202702.7,
                          NU=0.3,),);

CHMAT=AFFE_MATERIAU(MAILLAGE=MA,
                    AFFE=_F(TOUT='OUI',
                            MATER=MAT,),);

CHA1=AFFE_CHAR_CINE(MODELE=MO,
                    MECA_IMPO=(_F(GROUP_NO='GRNO1',
                                  DZ=0.0,),
                               _F(GROUP_NO='GRNO8',
                                  DY=0.0,),
                               _F(GROUP_NO='GRNO7',
                                  DX=0.0,
                                  DY=0.01,),),);

VECAS1=MECA_STATIQUE(MODELE=MO,
                     CHAM_MATER=CHMAT,
                     EXCIT=(_F(CHARGE=CHA1,),),
                     SOLVEUR=_F(METHODE='PETSC',
                                ALGORITHME='CR',
                                PRE_COND='JACOBI',
                                RESI_RELA=1.E-9,),);

VECAS2=MECA_STATIQUE(MODELE=MO,
                     CHAM_MATER=CHMAT,
                     EXCIT=(_F(CHARGE=CHA1,),),
                     SOLVEUR=_F(METHODE='PETSC',
                                ALGORITHME='CR',
                                PRE_COND='SOR',
                                RESI_RELA=1.E-9,),);

VECAS3=MECA_STATIQUE(MODELE=MO,
                     CHAM_MATER=CHMAT,
                     EXCIT=(_F(CHARGE=CHA1,),),
                     SOLVEUR=_F(METHODE='PETSC',
                                ALGORITHME='CR',
                                PRE_COND='SANS',
                                RESI_RELA=1.E-9,),);

VECAS4=MECA_STATIQUE(MODELE=MO,
                     CHAM_MATER=CHMAT,
                     EXCIT=(_F(CHARGE=CHA1,),),
                     SOLVEUR=_F(METHODE='PETSC',
                                ALGORITHME='GCR',
                                PRE_COND='ML',
                                RESI_RELA=1.E-9,),);

VECAS5=MECA_STATIQUE(MODELE=MO,
                     CHAM_MATER=CHMAT,
                     EXCIT=(_F(CHARGE=CHA1,),),
                     SOLVEUR=_F(METHODE='PETSC',
                                ALGORITHME='GCR',
                                PRE_COND='BOOMER',
                                RESI_RELA=1.E-9,),);

TEST_RESU(RESU=(_F(RESULTAT=VECAS1,
                   NUME_ORDRE=1,
                   NOM_CHAM='DEPL',
                   NOM_CMP='DY',
                   NOEUD='NO2958',
                   VALE_CALC=0.0100000000023,
                   VALE_REFE=0.01,
                   PRECISION=0.00015,
                   REFERENCE='AUTRE_ASTER',),
                _F(RESULTAT=VECAS1,
                   NUME_ORDRE=1,
                   NOM_CHAM='DEPL',
                   NOM_CMP='DZ',
                   NOEUD='NO2958',
                   VALE_CALC=0.000102958222319,
                   VALE_REFE=0.00010296,
                   PRECISION=0.00015,
                   REFERENCE='AUTRE_ASTER',),
                _F(RESULTAT=VECAS1,
                   NUME_ORDRE=1,
                   NOM_CHAM='DEPL',
                   NOM_CMP='DX',
                   NOEUD='NO2974',
                   VALE_CALC=0.00430057956791,
                   VALE_REFE=0.0043006,
                   PRECISION=0.00015,
                   REFERENCE='AUTRE_ASTER',),
                _F(RESULTAT=VECAS1,
                   NUME_ORDRE=1,
                   NOM_CHAM='DEPL',
                   NOM_CMP='DY',
                   NOEUD='NO2974',
                   VALE_CALC=0.00928897490647,
                   VALE_REFE=0.009289,
                   PRECISION=0.00015,
                   REFERENCE='AUTRE_ASTER',),
                _F(RESULTAT=VECAS1,
                   NUME_ORDRE=1,
                   NOM_CHAM='DEPL',
                   NOM_CMP='DZ',
                   NOEUD='NO2974',
                   VALE_CALC=-2.91730321286E-05,
                   VALE_REFE=-2.9173e-05,
                   PRECISION=0.00015,
                   REFERENCE='AUTRE_ASTER',),),);

TEST_RESU(RESU=(_F(RESULTAT=VECAS2,
                   NUME_ORDRE=1,
                   NOM_CHAM='DEPL',
                   NOM_CMP='DY',
                   NOEUD='NO2958',
                   VALE_CALC=0.0100000000007,
                   VALE_REFE=0.01,
                   PRECISION=0.00015,
                   REFERENCE='AUTRE_ASTER',),
                _F(RESULTAT=VECAS2,
                   NUME_ORDRE=1,
                   NOM_CHAM='DEPL',
                   NOM_CMP='DZ',
                   NOEUD='NO2958',
                   VALE_CALC=0.000102958226985,
                   VALE_REFE=0.00010296,
                   PRECISION=0.00015,
                   REFERENCE='AUTRE_ASTER',),
                _F(RESULTAT=VECAS2,
                   NUME_ORDRE=1,
                   NOM_CHAM='DEPL',
                   NOM_CMP='DX',
                   NOEUD='NO2974',
                   VALE_CALC=0.00430057957019,
                   VALE_REFE=0.0043006,
                   PRECISION=0.00015,
                   REFERENCE='AUTRE_ASTER',),
                _F(RESULTAT=VECAS2,
                   NUME_ORDRE=1,
                   NOM_CHAM='DEPL',
                   NOM_CMP='DY',
                   NOEUD='NO2974',
                   VALE_CALC=0.00928897502148,
                   VALE_REFE=0.009289,
                   PRECISION=0.00015,
                   REFERENCE='AUTRE_ASTER',),
                _F(RESULTAT=VECAS2,
                   NUME_ORDRE=1,
                   NOM_CHAM='DEPL',
                   NOM_CMP='DZ',
                   NOEUD='NO2974',
                   VALE_CALC=-2.91729771156E-05,
                   VALE_REFE=-2.9173e-05,
                   PRECISION=0.00015,
                   REFERENCE='AUTRE_ASTER',),),);

TEST_RESU(RESU=(_F(RESULTAT=VECAS3,
                   NUME_ORDRE=1,
                   NOM_CHAM='DEPL',
                   NOM_CMP='DY',
                   NOEUD='NO2958',
                   VALE_CALC=0.00999999296219,
                   VALE_REFE=0.01,
                   PRECISION=0.00015,
                   REFERENCE='AUTRE_ASTER',),
                _F(RESULTAT=VECAS3,
                   NUME_ORDRE=1,
                   NOM_CHAM='DEPL',
                   NOM_CMP='DZ',
                   NOEUD='NO2958',
                   VALE_CALC=0.000102958227656,
                   VALE_REFE=0.00010296,
                   PRECISION=0.00015,
                   REFERENCE='AUTRE_ASTER',),
                _F(RESULTAT=VECAS3,
                   NUME_ORDRE=1,
                   NOM_CHAM='DEPL',
                   NOM_CMP='DX',
                   NOEUD='NO2974',
                   VALE_CALC=0.00430057955338,
                   VALE_REFE=0.0043006,
                   PRECISION=0.00015,
                   REFERENCE='AUTRE_ASTER',),
                _F(RESULTAT=VECAS3,
                   NUME_ORDRE=1,
                   NOM_CHAM='DEPL',
                   NOM_CMP='DY',
                   NOEUD='NO2974',
                   VALE_CALC=0.00928897505735,
                   VALE_REFE=0.009289,
                   PRECISION=0.00015,
                   REFERENCE='AUTRE_ASTER',),
                _F(RESULTAT=VECAS3,
                   NUME_ORDRE=1,
                   NOM_CHAM='DEPL',
                   NOM_CMP='DZ',
                   NOEUD='NO2974',
                   VALE_CALC=-2.91729360855E-05,
                   VALE_REFE=-2.9173e-05,
                   PRECISION=0.00015,
                   REFERENCE='AUTRE_ASTER',),),);

TEST_RESU(RESU=(_F(RESULTAT=VECAS4,
                   NUME_ORDRE=1,
                   NOM_CHAM='DEPL',
                   NOM_CMP='DY',
                   NOEUD='NO2958',
                   VALE_CALC=0.00999999999971,
                   VALE_REFE=0.01,
                   PRECISION=0.00015,
                   REFERENCE='AUTRE_ASTER',),
                _F(RESULTAT=VECAS4,
                   NUME_ORDRE=1,
                   NOM_CHAM='DEPL',
                   NOM_CMP='DZ',
                   NOEUD='NO2958',
                   VALE_CALC=0.000102958223453,
                   VALE_REFE=0.00010296,
                   PRECISION=0.00015,
                   REFERENCE='AUTRE_ASTER',),
                _F(RESULTAT=VECAS4,
                   NUME_ORDRE=1,
                   NOM_CHAM='DEPL',
                   NOM_CMP='DX',
                   NOEUD='NO2974',
                   VALE_CALC=0.00430057920834,
                   VALE_REFE=0.0043006,
                   PRECISION=0.00015,
                   REFERENCE='AUTRE_ASTER',),
                _F(RESULTAT=VECAS4,
                   NUME_ORDRE=1,
                   NOM_CHAM='DEPL',
                   NOM_CMP='DY',
                   NOEUD='NO2974',
                   VALE_CALC=0.00928897494602,
                   VALE_REFE=0.009289,
                   PRECISION=0.00015,
                   REFERENCE='AUTRE_ASTER',),
                _F(RESULTAT=VECAS4,
                   NUME_ORDRE=1,
                   NOM_CHAM='DEPL',
                   NOM_CMP='DZ',
                   NOEUD='NO2974',
                   VALE_CALC=-2.91729643961E-05,
                   VALE_REFE=-2.9173e-05,
                   PRECISION=0.00015,
                   REFERENCE='AUTRE_ASTER',),),);

TEST_RESU(RESU=(_F(RESULTAT=VECAS5,
                   NUME_ORDRE=1,
                   NOM_CHAM='DEPL',
                   NOM_CMP='DY',
                   NOEUD='NO2958',
                   VALE_CALC=0.00999999999951,
                   VALE_REFE=0.01,
                   PRECISION=0.00015,
                   REFERENCE='AUTRE_ASTER',),
                _F(RESULTAT=VECAS5,
                   NUME_ORDRE=1,
                   NOM_CHAM='DEPL',
                   NOM_CMP='DZ',
                   NOEUD='NO2958',
                   VALE_CALC=0.000102958228747,
                   VALE_REFE=0.00010296,
                   PRECISION=0.00015,
                   REFERENCE='AUTRE_ASTER',),
                _F(RESULTAT=VECAS5,
                   NUME_ORDRE=1,
                   NOM_CHAM='DEPL',
                   NOM_CMP='DX',
                   NOEUD='NO2974',
                   VALE_CALC=0.00430057986865,
                   VALE_REFE=0.0043006,
                   PRECISION=0.00015,
                   REFERENCE='AUTRE_ASTER',),
                _F(RESULTAT=VECAS5,
                   NUME_ORDRE=1,
                   NOM_CHAM='DEPL',
                   NOM_CMP='DY',
                   NOEUD='NO2974',
                   VALE_CALC=0.00928897516155,
                   VALE_REFE=0.009289,
                   PRECISION=0.00015,
                   REFERENCE='AUTRE_ASTER',),
                _F(RESULTAT=VECAS5,
                   NUME_ORDRE=1,
                   NOM_CHAM='DEPL',
                   NOM_CMP='DZ',
                   NOEUD='NO2974',
                   VALE_CALC=-2.91729338549E-05,
                   VALE_REFE=-2.9173e-05,
                   PRECISION=0.00015,
                   REFERENCE='AUTRE_ASTER',),),);

FIN();
