# TITRE VALIDATION DE LA MODELISATION 3D SUR MAILLE HEXA8 DANS CALC_EUROPLEXUS
# ======================================================================
# COPYRIGHT (C) 1991 - 2014  EDF R&D                  WWW.CODE-ASTER.ORG
# THIS PROGRAM IS FREE SOFTWARE; YOU CAN REDISTRIBUTE IT AND/OR MODIFY
# IT UNDER THE TERMS OF THE GNU GENERAL PUBLIC LICENSE AS PUBLISHED BY
# THE FREE SOFTWARE FOUNDATION; EITHER VERSION 2 OF THE LICENSE, OR
# (AT YOUR OPTION) ANY LATER VERSION.
#
# THIS PROGRAM IS DISTRIBUTED IN THE HOPE THAT IT WILL BE USEFUL, BUT
# WITHOUT ANY WARRANTY; WITHOUT EVEN THE IMPLIED WARRANTY OF
# MERCHANTABILITY OR FITNESS FOR A PARTICULAR PURPOSE. SEE THE GNU
# GENERAL PUBLIC LICENSE FOR MORE DETAILS.
#
# YOU SHOULD HAVE RECEIVED A COPY OF THE GNU GENERAL PUBLIC LICENSE
# ALONG WITH THIS PROGRAM; IF NOT, WRITE TO EDF R&D CODE_ASTER,
#    1 AVENUE DU GENERAL DE GAULLE, 92141 CLAMART CEDEX, FRANCE.
# ======================================================================


DEBUT(CODE=_F(NIV_PUB_WEB='INTERNET',),ERREUR=_F(ERREUR_F='EXCEPTION',),);

MPa = 1000000.0;


# ------------------- Lecture du maillage

MAILLAGE=LIRE_MAILLAGE(    UNITE=20 )

#

MODELE=AFFE_MODELE(INFO=1,
                 MAILLAGE=MAILLAGE,AFFE=(
                     _F(  GROUP_MA = ('CUBE',),
                            PHENOMENE = 'MECANIQUE',
                            MODELISATION = '3D'),
                            ) )


# ------------------- Definition des materiaux

BETON = DEFI_MATERIAU(ELAS=_F(
                    E = 30000*MPa,
                    NU = 0.3,
                    RHO = 2500,
                   ),
                  );




CHMATER=AFFE_MATERIAU(
                   MAILLAGE=MAILLAGE,AFFE=(
                       _F(  GROUP_MA = ('CUBE',),
                              MATER = BETON),
                              )
                              )




BLOQ=AFFE_CHAR_MECA(
                      MODELE=MODELE,DDL_IMPO=(
                    _F(  GROUP_NO='ENCAST',
                               DX = 0.,
                               DY = 0.,
                               DZ = 0.,
                               ),
                               ),)
TRAC=AFFE_CHAR_MECA(
                      MODELE=MODELE,DDL_IMPO=(
                    _F(  GROUP_NO='TRAC',
                               DZ = 0.01,
                               ),
                               ),)

RAMPE=DEFI_FONCTION(NOM_PARA='INST',
                     VALE=(0.0,    0,
                           1.0,    1,
                           ),
                     PROL_DROITE='CONSTANT',
                     PROL_GAUCHE='CONSTANT',
                     );

temps=DEFI_LIST_REEL(DEBUT=0.0,
                        INTERVALLE=(_F(JUSQU_A=1.0,NOMBRE=1,),
                                    ),);
DEFLIST =DEFI_LIST_INST(DEFI_LIST=_F(LIST_INST = temps,),)


U_ASTER=STAT_NON_LINE(MODELE=MODELE,
                      CHAM_MATER=CHMATER,
                      EXCIT=(_F(CHARGE=TRAC,FONC_MULT=RAMPE),
                             _F(CHARGE=BLOQ,),),
                      COMPORTEMENT=(_F(RELATION='ELAS',GROUP_MA='CUBE',DEFORMATION='GROT_GDEP',
                      ),
                                ),
                      CONVERGENCE=_F(
                                         RESI_GLOB_RELA=1E-10),
                      INCREMENT   =_F(LIST_INST=DEFLIST,),
                      )


PLATEAU=DEFI_FONCTION(NOM_PARA='INST',
                     VALE=(0.0,   1.0,
                           8e-3,  1.0,
                           ),
                     PROL_DROITE='CONSTANT',
                     PROL_GAUCHE='CONSTANT',
                     );


U_EPX = CALC_EUROPLEXUS(
   ETAT_INIT=_F(RESULTAT=U_ASTER,CONTRAINTE='OUI',EQUILIBRE='NON'),
   COMPORTEMENT =(_F(
                  RELATION = 'ELAS',
                  GROUP_MA='CUBE',
                 ),
              ),
   EXCIT=(_F(CHARGE=TRAC,FONC_MULT=PLATEAU),
          _F(CHARGE=BLOQ,),),
   LANCEMENT ='OUI',
   CALCUL = _F(TYPE_DISCRETISATION  ='UTIL',
               INST_INIT = 0,
               INST_FIN  = 0.004,
               NMAX      = 200,
               PASFIX    = 2e-5,
               ),
   ARCHIVAGE   = _F(PAS_NBRE=100,),
   );


#IMPR_RESU(RESU=_F(RESULTAT=U_ASTER,NOM_CHAM=('DEPL','SIEF_ELGA',),INST=1.0))
#IMPR_RESU(RESU=_F(RESULTAT=U_EPX,NOM_CHAM=('DEPL','SIEF_ELGA',),INST=0.004))

# REFERENCE ETAT INITIAL ASTER

TEST_RESU(RESU=(_F(INST=1.0,
                   RESULTAT=U_ASTER,
                   NOM_CHAM='DEPL',
                   NOEUD='N8',
                   NOM_CMP='DX',
                   VALE_CALC=2.15537139042198E-03,
                   ),
                _F(INST=1.0,
                   RESULTAT=U_ASTER,
                   NOM_CHAM='DEPL',
                   NOEUD='N7',
                   NOM_CMP='DY',
                   VALE_CALC=-2.15537139042198E-03,
                   ),
                _F(INST=1.0,
                   RESULTAT=U_ASTER,
                   NOM_CHAM='DEPL',
                   NOEUD='N6',
                   NOM_CMP='DZ',
                   VALE_CALC=1.E-02,
                   ),
                ),
            )
            
            
TEST_RESU(RESU=(            
                _F(INST=1.0,
                   POINT=1,
                   RESULTAT=U_ASTER,
                   NOM_CHAM='SIEF_ELGA',
                   NOM_CMP='SIXX',
                   VALE_CALC=1.20270859098697E+08,
                   MAILLE='M1',),
                _F(INST=1.0,
                   POINT=2,
                   RESULTAT=U_ASTER,
                   NOM_CHAM='SIEF_ELGA',
                   NOM_CMP='SIYY',
                   VALE_CALC=-2.15863269903220E+07,
                   MAILLE='M1',),
                _F(INST=1.0,
                   POINT=3,
                   RESULTAT=U_ASTER,
                   NOM_CHAM='SIEF_ELGA',
                   NOM_CMP='SIZZ',
                   VALE_CALC=3.78842807394021E+08,
                   MAILLE='M1',),
                _F(INST=1.0,
                   POINT=4,
                   RESULTAT=U_ASTER,
                   NOM_CHAM='SIEF_ELGA',
                   NOM_CMP='SIXY',
                   VALE_CALC=-3.58270324318444E+04,
                   MAILLE='M1',),
                _F(INST=1.0,
                   POINT=5,
                   RESULTAT=U_ASTER,
                   NOM_CHAM='SIEF_ELGA',
                   NOM_CMP='SIXZ',
                   VALE_CALC=-1.48252765464761E+07,
                   MAILLE='M1',),
                _F(INST=1.0,
                   POINT=6,
                   RESULTAT=U_ASTER,
                   NOM_CHAM='SIEF_ELGA',
                   NOM_CMP='SIYZ',
                   VALE_CALC=1.47199039729651E+07,
                   MAILLE='M1',),
                
                ),
          )

TEST_RESU(RESU=(_F(INST=0.004,
                   RESULTAT=U_EPX,
                   NOM_CHAM='DEPL',
                   NOEUD='N8',
                   NOM_CMP='DX',
                   VALE_CALC=2.15537139042198E-03,
                   VALE_REFE=2.15537139042198E-03,
                   REFERENCE ='ANALYTIQUE',
                   ),
                _F(INST=0.004,
                   RESULTAT=U_EPX,
                   NOM_CHAM='DEPL',
                   NOEUD='N7',
                   NOM_CMP='DY',
                   VALE_CALC=-2.15537139042198E-03,
                   VALE_REFE=-2.15537139042198E-03,
                   REFERENCE ='ANALYTIQUE',
                   ),
                _F(INST=0.004,
                   RESULTAT=U_EPX,
                   NOM_CHAM='DEPL',
                   NOEUD='N6',
                   NOM_CMP='DZ',
                   VALE_CALC=1.E-02,
                   VALE_REFE=1.E-02,
                   REFERENCE ='ANALYTIQUE',
                   ),
                ),
            )
            
            
TEST_RESU(RESU=(            
                _F(INST=0.004,
                   POINT=1,
                   RESULTAT=U_EPX,
                   NOM_CHAM='SIEF_ELGA',
                   NOM_CMP='SIXX',
                   VALE_CALC=1.20270859098697E+08,
                   VALE_REFE=1.20270859098697E+08,
                   REFERENCE ='ANALYTIQUE',
                   MAILLE='M1',),
                _F(INST=0.004,
                   POINT=2,
                   RESULTAT=U_EPX,
                   NOM_CHAM='SIEF_ELGA',
                   NOM_CMP='SIYY',
                   VALE_CALC=-2.15863269903220E+07,
                   VALE_REFE=-2.15863269903220E+07,
                   REFERENCE ='ANALYTIQUE',
                   MAILLE='M1',),
                _F(INST=0.004,
                   POINT=3,
                   RESULTAT=U_EPX,
                   NOM_CHAM='SIEF_ELGA',
                   NOM_CMP='SIZZ',
                   VALE_CALC=3.78842807394021E+08,
                   VALE_REFE=3.78842807394021E+08,
                   REFERENCE ='ANALYTIQUE',
                   MAILLE='M1',),
                _F(INST=0.004,
                   POINT=4,
                   RESULTAT=U_EPX,
                   NOM_CHAM='SIEF_ELGA',
                   NOM_CMP='SIXY',
                   VALE_CALC=-3.58270324318444E+04,
                   VALE_REFE=-3.58270324318444E+04,
                   REFERENCE ='ANALYTIQUE',
                   MAILLE='M1',),
                _F(INST=0.004,
                   POINT=5,
                   RESULTAT=U_EPX,
                   NOM_CHAM='SIEF_ELGA',
                   NOM_CMP='SIXZ',
                   VALE_CALC=-1.48252765464761E+07,
                   VALE_REFE=-1.48252765464761E+07,
                   REFERENCE ='ANALYTIQUE',
                   MAILLE='M1',),
                _F(INST=0.004,
                   POINT=6,
                   RESULTAT=U_EPX,
                   NOM_CHAM='SIEF_ELGA',
                   NOM_CMP='SIYZ',
                   VALE_CALC=1.47199039729651E+07,
                   VALE_REFE=1.47199039729651E+07,
                   REFERENCE ='ANALYTIQUE',
                   MAILLE='M1',),
                
                ),
          )

FIN()
