# TITRE VALIDATION DE LA MODELISATION 3D SUR MAILLE HEXA8 DANS CALC_EUROPLEXUS
# ======================================================================
# COPYRIGHT (C) 1991 - 2014  EDF R&D                  WWW.CODE-ASTER.ORG
# THIS PROGRAM IS FREE SOFTWARE; YOU CAN REDISTRIBUTE IT AND/OR MODIFY
# IT UNDER THE TERMS OF THE GNU GENERAL PUBLIC LICENSE AS PUBLISHED BY
# THE FREE SOFTWARE FOUNDATION; EITHER VERSION 2 OF THE LICENSE, OR
# (AT YOUR OPTION) ANY LATER VERSION.
#
# THIS PROGRAM IS DISTRIBUTED IN THE HOPE THAT IT WILL BE USEFUL, BUT
# WITHOUT ANY WARRANTY; WITHOUT EVEN THE IMPLIED WARRANTY OF
# MERCHANTABILITY OR FITNESS FOR A PARTICULAR PURPOSE. SEE THE GNU
# GENERAL PUBLIC LICENSE FOR MORE DETAILS.
#
# YOU SHOULD HAVE RECEIVED A COPY OF THE GNU GENERAL PUBLIC LICENSE
# ALONG WITH THIS PROGRAM; IF NOT, WRITE TO EDF R&D CODE_ASTER,
#    1 AVENUE DU GENERAL DE GAULLE, 92141 CLAMART CEDEX, FRANCE.
# ======================================================================


DEBUT(CODE=_F(NIV_PUB_WEB='INTERNET',),ERREUR=_F(ERREUR_F='EXCEPTION',),);

MPa = 1000000.0;


# ------------------- Lecture du maillage

MAILLAGE=LIRE_MAILLAGE(FORMAT='MED', UNITE=20 )

#

MODELE=AFFE_MODELE(INFO=1,
                 MAILLAGE=MAILLAGE,AFFE=(
                     _F(  GROUP_MA = ('CUBE','FACE_SUP','FACE_COTE'),
                            PHENOMENE = 'MECANIQUE',
                            MODELISATION = '3D'),
                            ) )


# ------------------- Definition des materiaux

BETON = DEFI_MATERIAU(ELAS=_F(
                    E = 30000*MPa,
                    NU = 0.3,
                    RHO = 2500,
                   ),
                  );




CHMATER=AFFE_MATERIAU(
                   MAILLAGE=MAILLAGE,AFFE=(
                       _F(  GROUP_MA = ('CUBE',),
                              MATER = BETON),
                              )
                              )




BLOQ=AFFE_CHAR_MECA(
                      MODELE=MODELE,DDL_IMPO=(
                    _F(  GROUP_NO='ENCAST',
                               DX = 0.,
                               DY = 0.,
                               DZ = 0.,
                               ),
                               ),)
PRES=AFFE_CHAR_MECA(
                      MODELE=MODELE,
                      PRES_REP=(
                        _F(  GROUP_MA=('FACE_SUP','FACE_COTE'),
                               PRES = 100000,
                               ),
                               ),)

RAMPE=DEFI_FONCTION(NOM_PARA='INST',
                     VALE=(0.0,    0,
                           1.0,    1,
                           ),
                     PROL_DROITE='CONSTANT',
                     PROL_GAUCHE='CONSTANT',
                     );

temps=DEFI_LIST_REEL(DEBUT=0.0,
                        INTERVALLE=(_F(JUSQU_A=1.0,NOMBRE=5,),
                                    ),);
DEFLIST =DEFI_LIST_INST(DEFI_LIST=_F(LIST_INST = temps,),)


U_ASTER=STAT_NON_LINE(MODELE=MODELE,
                      CHAM_MATER=CHMATER,
                      EXCIT=(_F(CHARGE=PRES,FONC_MULT=RAMPE),
                             _F(CHARGE=BLOQ,),),
                      COMPORTEMENT=(_F(RELATION='ELAS',GROUP_MA='CUBE',DEFORMATION='GROT_GDEP',
                      ),
                                ),
                      CONVERGENCE=_F(
                                         RESI_GLOB_RELA=1E-10),
                      INCREMENT   =_F(LIST_INST=DEFLIST,),
                      )


PLATEAU=DEFI_FONCTION(NOM_PARA='INST',
                     VALE=(0.0,   1.0,
                           8e-3,  1.0,
                           ),
                     PROL_DROITE='CONSTANT',
                     PROL_GAUCHE='CONSTANT',
                     );

U_EPX = CALC_EUROPLEXUS(
   ETAT_INIT=_F(RESULTAT=U_ASTER,CONTRAINTE='OUI',EQUILIBRE='NON'),
   COMPORTEMENT =(_F(
                  RELATION = 'ELAS',
                  GROUP_MA='CUBE',
                 ),
              ),
   EXCIT=(_F(CHARGE=PRES,FONC_MULT=PLATEAU),
          _F(CHARGE=BLOQ,),),
   LANCEMENT ='OUI',
   CALCUL = _F(TYPE_DISCRETISATION  ='UTIL',
               INST_INIT = 0,
               INST_FIN  = 0.004,
               NMAX      = 200,
               PASFIX    = 2e-5,
               ),
   ARCHIVAGE   = _F(PAS_NBRE=100,),
   );


#IMPR_RESU(RESU=_F(RESULTAT=U_ASTER,NOM_CHAM=('DEPL','SIEF_ELGA',),INST=1.0))
#IMPR_RESU(RESU=_F(RESULTAT=U_EPX,NOM_CHAM=('DEPL','SIEF_ELGA',),INST=0.004))

# REFERENCE ETAT INITIAL ASTER

TEST_RESU(RESU=(_F(INST=1.0,
                   RESULTAT=U_ASTER,
                   NOM_CHAM='DEPL',
                   GROUP_NO='GRN1',
                   NOM_CMP='DX',
                   VALE_CALC=-9.07102694457E-06,
                   ),
                _F(INST=1.0,
                   RESULTAT=U_ASTER,
                   NOM_CHAM='DEPL',
                   GROUP_NO='GRN1',
                   NOM_CMP='DY',
                   VALE_CALC=-6.54472368612E-07,
                   ),
                _F(INST=1.0,
                   RESULTAT=U_ASTER,
                   NOM_CHAM='DEPL',
                   GROUP_NO='GRN1',
                   NOM_CMP='DZ',
                   VALE_CALC=-6.2234063541E-06 ,
                   ),
                ),
            )


            
TEST_RESU(RESU=(            
                _F(INST=1.0,
                   POINT=1,
                   RESULTAT=U_ASTER,
                   NOM_CHAM='SIEF_ELGA',
                   NOM_CMP='SIXX',
                   VALE_CALC=-90491.3795116,
                   MAILLE = 'M93',),
                _F(INST=1.0,
                   POINT=1,
                   RESULTAT=U_ASTER,
                   NOM_CHAM='SIEF_ELGA',
                   NOM_CMP='SIYY',
                   VALE_CALC=-4495.07212071,
                   MAILLE = 'M93',),
                _F(INST=1.0,
                   POINT=1,
                   RESULTAT=U_ASTER,
                   NOM_CHAM='SIEF_ELGA',
                   NOM_CMP='SIZZ',
                   VALE_CALC=-92662.5352308,
                   MAILLE = 'M93',),
                ),
          )

# RESULTATS APRES PASSAGE DANS EPX

TEST_RESU(RESU=(_F(INST=0.004,
                   RESULTAT=U_EPX,
                   NOM_CHAM='DEPL',
                   GROUP_NO='GRN1',
                   NOM_CMP='DX',
                   VALE_CALC=-9.07068363627E-06,
                   VALE_REFE=-9.07102694457E-06,
                   REFERENCE = 'ANALYTIQUE',
                   PRECISION = 5E-5,
                   ),
                _F(INST=0.004,
                   RESULTAT=U_EPX,
                   NOM_CHAM='DEPL',
                   GROUP_NO='GRN1',
                   NOM_CMP='DY',
                   VALE_CALC=-6.54453170354E-07,
                   VALE_REFE=-6.54472368612E-07,
                   REFERENCE = 'ANALYTIQUE',
                   PRECISION = 5E-5,
                   ),
                _F(INST=0.004,
                   RESULTAT=U_EPX,
                   NOM_CHAM='DEPL',
                   GROUP_NO='GRN1',
                   NOM_CMP='DZ',
                   VALE_CALC=-6.22326643992E-06 ,
                   VALE_REFE=-6.2234063541E-06 ,
                   REFERENCE = 'ANALYTIQUE',
                   PRECISION = 5E-5,
                   ),
                ),
            )


            
TEST_RESU(RESU=(            
                _F(INST=0.004,
                   POINT=1,
                   RESULTAT=U_EPX,
                   NOM_CHAM='SIEF_ELGA',
                   NOM_CMP='SIXX',
                   VALE_CALC=-90490.2753104,
                   VALE_REFE=-90491.3795116,
                   REFERENCE = 'ANALYTIQUE',
                   PRECISION = 5E-5,
                   MAILLE = 'M93',),
                _F(INST=0.004,
                   POINT=1,
                   RESULTAT=U_EPX,
                   NOM_CHAM='SIEF_ELGA',
                   NOM_CMP='SIYY',
                   VALE_CALC=-4494.75415162,
                   VALE_REFE=-4495.07212071,
                   REFERENCE = 'ANALYTIQUE',
                   PRECISION = 1E-4,
                   MAILLE = 'M93',),
                _F(INST=0.004,
                   POINT=1,
                   RESULTAT=U_EPX,
                   NOM_CHAM='SIEF_ELGA',
                   NOM_CMP='SIZZ',
                   VALE_CALC=-92663.6670429,
                   VALE_REFE=-92662.5352308,
                   REFERENCE = 'ANALYTIQUE',
                   PRECISION = 5E-5,
                   MAILLE = 'M93',),
                ),
          )



FIN()
