# TITRE VALIDATION DE LA LOI VMIS_JOHN_COOK DANS CALC_EUROPLEXUS
# ======================================================================
# COPYRIGHT (C) 1991 - 2014  EDF R&D                  WWW.CODE-ASTER.ORG
# THIS PROGRAM IS FREE SOFTWARE; YOU CAN REDISTRIBUTE IT AND/OR MODIFY
# IT UNDER THE TERMS OF THE GNU GENERAL PUBLIC LICENSE AS PUBLISHED BY
# THE FREE SOFTWARE FOUNDATION; EITHER VERSION 2 OF THE LICENSE, OR
# (AT YOUR OPTION) ANY LATER VERSION.
#
# THIS PROGRAM IS DISTRIBUTED IN THE HOPE THAT IT WILL BE USEFUL, BUT
# WITHOUT ANY WARRANTY; WITHOUT EVEN THE IMPLIED WARRANTY OF
# MERCHANTABILITY OR FITNESS FOR A PARTICULAR PURPOSE. SEE THE GNU
# GENERAL PUBLIC LICENSE FOR MORE DETAILS.
#
# YOU SHOULD HAVE RECEIVED A COPY OF THE GNU GENERAL PUBLIC LICENSE
# ALONG WITH THIS PROGRAM; IF NOT, WRITE TO EDF R&D CODE_ASTER,
#    1 AVENUE DU GENERAL DE GAULLE, 92141 CLAMART CEDEX, FRANCE.
# ======================================================================

DEBUT(CODE=_F(NIV_PUB_WEB='INTERNET',),ERREUR=_F(ERREUR_F='EXCEPTION',),);

MPa = 1000000.0;


# ------------------- Lecture du maillage

MAILLAGE=LIRE_MAILLAGE(    UNITE=20 )

#

MODELE=AFFE_MODELE(INFO=1,
                 MAILLAGE=MAILLAGE,AFFE=(
                     _F(  GROUP_MA = ('CUBE',),
                            PHENOMENE = 'MECANIQUE',
                            MODELISATION = '3D'),
                            ) )


# ------------------- Definition des materiaux

E_b = 30000*MPa
Nu_b =0.3
rho_b=2500

A_cook = 90
B_cook = 292
N_cook = 0.31

BETON = DEFI_MATERIAU(ELAS=_F(
                    E = E_b,
                    NU = Nu_b,
                    RHO = rho_b,
                   ),
                     ECRO_COOK=_F(A=A_cook,
                                 B=B_cook,
                                 C=0.025,
                                 N_PUIS=N_cook,
                                 EPSP0=1.0,
                                 ),
                  );


CHMATER=AFFE_MATERIAU(
                   MAILLAGE=MAILLAGE,AFFE=(
                       _F(  GROUP_MA = ('CUBE',),
                              MATER = BETON),
                              )
                              )




BLOQ=AFFE_CHAR_MECA(
                      MODELE=MODELE,DDL_IMPO=(
                    _F(  GROUP_NO='ENCAST',
                               DX = 0.,
                               DY = 0.,
                               DZ = 0.,
                               ),
                               ),)
TRAC=AFFE_CHAR_MECA(
                      MODELE=MODELE,DDL_IMPO=(
                    _F(  GROUP_NO='TRAC',
                               DX = 0.01,
                               ),
                               ),)

FONCCB=DEFI_FONCTION(NOM_PARA='INST',
                     VALE=(0.0,    0,
                           1.0,    1,
                           ),
                     PROL_DROITE='CONSTANT',
                     PROL_GAUCHE='CONSTANT',
                     )


temps=DEFI_LIST_REEL(DEBUT=0.0,
                        INTERVALLE=(_F(JUSQU_A=1.0,NOMBRE=1,),
                                    ),);
DEFLIST =DEFI_LIST_INST(DEFI_LIST=_F(LIST_INST = temps,),)


U_ASTER=STAT_NON_LINE(MODELE=MODELE,
                      CHAM_MATER=CHMATER,
                      EXCIT=(_F(CHARGE=TRAC,FONC_MULT=FONCCB),
                             _F(CHARGE=BLOQ,),),
                      COMPORTEMENT=(_F(RELATION='VMIS_JOHN_COOK',GROUP_MA='CUBE',DEFORMATION='GROT_GDEP',
                      ),
                                ),
                      NEWTON=_F(REAC_INCR=1,
                                    MATRICE='TANGENTE',
                                    REAC_ITER=1,
                                    ),
                      CONVERGENCE=_F(
                                         RESI_GLOB_RELA=1E-10,
                                         ITER_GLOB_MAXI= 50),
                      INCREMENT   =_F(LIST_INST=DEFLIST,),
                      )

PLATEAU=DEFI_FONCTION(NOM_PARA='INST',
                     VALE=(0.0,   1.0,
                           8e-3,  1.0,
                           ),
                     PROL_DROITE='CONSTANT',
                     PROL_GAUCHE='CONSTANT',
                     );

TAB1 = CO('TAB1')

U_EPX = CALC_EUROPLEXUS(
   ETAT_INIT=_F(RESULTAT=U_ASTER,CONTRAINTE='OUI', VARI_INT = 'OUI',EQUILIBRE='NON'),
   COMPORTEMENT =(_F(
                  RELATION = 'VMIS_JOHN_COOK',
                  GROUP_MA='CUBE',
                 ),
              ),
   EXCIT=(_F(CHARGE=TRAC,FONC_MULT=PLATEAU),
          _F(CHARGE=BLOQ,),),
   LANCEMENT ='OUI',
   CALCUL = _F(TYPE_DISCRETISATION  ='UTIL',
               INST_INIT = 0,
               INST_FIN  = 0.004,
               NMAX      = 200,
               PASFIX    = 2e-5,
               ),
   ARCHIVAGE   = _F(PAS_NBRE=100,),
   PAS_NBRE_COURBE=100,
   TABLE_COURBE    = TAB1,
   COURBE = (
           _F(
           NOM_CHAM = 'VARI_ELGA',
           NOM_CMP  = 'V1',
           NUM_GAUSS = 1,
           GROUP_MA = 'CUBE',
           ),
           _F(
           NOM_CHAM = 'VARI_ELGA',
           NOM_CMP  = 'V2',
           NUM_GAUSS = 2,
           GROUP_MA = 'CUBE',
           ),
           _F(
           NOM_CHAM = 'VARI_ELGA',
           NOM_CMP  = 'V3',
           NUM_GAUSS = 3,
           GROUP_MA = 'CUBE',
           ),
           _F(
           NOM_CHAM = 'VARI_ELGA',
           NOM_CMP  = 'V4',
           NUM_GAUSS = 4,
           GROUP_MA = 'CUBE',
           ),
           _F(
           NOM_CHAM = 'VARI_ELGA',
           NOM_CMP  = 'V5',
           NUM_GAUSS = 5,
           GROUP_MA = 'CUBE',
           ),
           _F(
           NOM_CHAM = 'VARI_ELGA',
           NOM_CMP  = 'V6',
           NUM_GAUSS = 6,
           GROUP_MA = 'CUBE',
           ),
           _F(
           NOM_CHAM = 'VARI_ELGA',
           NOM_CMP  = 'V7',
           NUM_GAUSS = 7,
           GROUP_MA = 'CUBE',
           ),
           _F(
           NOM_CHAM = 'VARI_ELGA',
           NOM_CMP  = 'V8',
           NUM_GAUSS = 8,
           GROUP_MA = 'CUBE',
           ),
   ),
   );


U_EPX2 = LIRE_EUROPLEXUS(UNITE_MED = 19,
                MODELE = MODELE,
                COMPORTEMENT =(_F(
                  RELATION = 'VMIS_JOHN_COOK',
                  GROUP_MA='CUBE',
                 ),
              ),
        )





IMPR_TABLE(TABLE=TAB1)

TEST_TABLE(TABLE=TAB1,
           NOM_PARA='VARI_ELGA_V1_CUB',
           FILTRE = _F(NOM_PARA = 'TEMPS',
                       VALE = 0.,
                      ),
           REFERENCE = 'ANALYTIQUE',
           VALE_REFE = 4.078819E+2,
           VALE_CALC = 4.078819E+2,
           )

TEST_TABLE(TABLE=TAB1,
           NOM_PARA='VARI_ELGA_V2_CUB',
           FILTRE = _F(NOM_PARA = 'TEMPS',
                       VALE = 0.,
                      ),
           REFERENCE = 'ANALYTIQUE',
           VALE_REFE = 1.420337E+2,
           VALE_CALC = 1.420337E+2,
           )

TEST_TABLE(TABLE=TAB1,
           NOM_PARA='VARI_ELGA_V3_CUB',
           FILTRE = _F(NOM_PARA = 'TEMPS',
                       VALE = 0.,
                      ),
           REFERENCE = 'ANALYTIQUE',
           VALE_REFE = 5.773488E-3,
           VALE_CALC = 5.773488E-3,
           )

TEST_TABLE(TABLE=TAB1,
           NOM_PARA='VARI_ELGA_V4_CUB',
           FILTRE = _F(NOM_PARA = 'TEMPS',
                       VALE = 0.,
                      ),
           REFERENCE = 'ANALYTIQUE',
           VALE_REFE = 1.561430E+2,
           VALE_CALC = 1.561430E+2,
           )




TEST_TABLE(TABLE=TAB1,
           NOM_PARA='VARI_ELGA_V1_CUB',
           FILTRE = _F(NOM_PARA = 'TEMPS',
                       VALE = 0.004,
                      ),
           REFERENCE = 'ANALYTIQUE',
           VALE_REFE = 4.078819E+2,
           VALE_CALC = 4.078819E+2,
           )

TEST_TABLE(TABLE=TAB1,
           NOM_PARA='VARI_ELGA_V2_CUB',
           FILTRE = _F(NOM_PARA = 'TEMPS',
                       VALE = 0.004,
                      ),
           REFERENCE = 'ANALYTIQUE',
           VALE_REFE = 1.420337E+2,
           VALE_CALC = 1.420337E+2,
           )

TEST_TABLE(TABLE=TAB1,
           NOM_PARA='VARI_ELGA_V3_CUB',
           FILTRE = _F(NOM_PARA = 'TEMPS',
                       VALE = 0.004,
                      ),
           REFERENCE = 'ANALYTIQUE',
           VALE_REFE = 5.773488E-3,
           VALE_CALC = 5.773488E-3,
           )

TEST_TABLE(TABLE=TAB1,
           NOM_PARA='VARI_ELGA_V4_CUB',
           FILTRE = _F(NOM_PARA = 'TEMPS',
                       VALE = 0.004,
                      ),
           REFERENCE = 'ANALYTIQUE',
           VALE_REFE = 1.561430E+2,
           VALE_CALC = 1.561430E+2,
           )


# cel = numpy.sqrt(E_b*(1-Nu_b)/(rho_b*(1+Nu_b)*(1-2*Nu_b)))
# cel = 4019.1847623425019



TEST_TABLE(TABLE=TAB1,
           NOM_PARA='VARI_ELGA_V5_CUB',
           FILTRE = _F(NOM_PARA = 'TEMPS',
                       VALE = 0.004,
                      ),
           REFERENCE = 'ANALYTIQUE',
           VALE_REFE = 4019.1847623425019,
           VALE_CALC = 4019.1847623425019,
           )

IMPR_RESU(RESU=_F(RESULTAT=U_EPX, NOM_CHAM = 'VARI_ELGA', INST = (0.,0.004)))

#ECRO GAUS 1 COMP 1 REFE 4.078819E+2 TOLE 1e-6 LECT 1 TERM
 #ECRO GAUS 2 COMP 2 REFE 1.420337E+2 TOLE 1e-6 LECT 1 TERM
 #ECRO GAUS 3 COMP 3 REFE 5.773488E-3 TOLE 1e-6 LECT 1 TERM
 #ECRO GAUS 4 COMP 4 REFE 1.561430E+2 TOLE 1e-6 LECT 1 TERM

TEST_RESU(RESU=_F(INST = 0.,
                  RESULTAT=U_EPX,
                  NOM_CHAM='VARI_ELGA',
                  MAILLE='M1',
                  NOM_CMP='V1',
                  POINT = 1,
                  VALE_CALC=5.773488E-3,
                  VALE_REFE=5.773488E-3,
                  REFERENCE = 'SOURCE_EXTERNE',
                  ),
          )
          
TEST_RESU(RESU=_F(INST = 0.004,
                  RESULTAT=U_EPX,
                  NOM_CHAM='VARI_ELGA',
                  MAILLE='M1',
                  NOM_CMP='V1',
                  POINT = 1,
                  VALE_CALC=5.773488E-3,
                  VALE_REFE=5.773488E-3,
                  REFERENCE = 'SOURCE_EXTERNE',
                  ),
          )

TEST_RESU(RESU=_F(INST = 0.,
                  RESULTAT=U_EPX2,
                  NOM_CHAM='VARI_ELGA',
                  MAILLE='M1',
                  NOM_CMP='V1',
                  POINT = 1,
                  VALE_CALC=5.773488E-3,
                  VALE_REFE=5.773488E-3,
                  REFERENCE = 'SOURCE_EXTERNE',
                  ),
          )
          
TEST_RESU(RESU=_F(INST = 0.004,
                  RESULTAT=U_EPX2,
                  NOM_CHAM='VARI_ELGA',
                  MAILLE='M1',
                  NOM_CMP='V1',
                  POINT = 1,
                  VALE_CALC=5.773488E-3,
                  VALE_REFE=5.773488E-3,
                  REFERENCE = 'SOURCE_EXTERNE',
                  ),
          )


FIN()
