# ======================================================================
# COPYRIGHT (C) 1991 - 2016  EDF R&D                  WWW.CODE-ASTER.ORG
# THIS PROGRAM IS FREE SOFTWARE; YOU CAN REDISTRIBUTE IT AND/OR MODIFY
# IT UNDER THE TERMS OF THE GNU GENERAL PUBLIC LICENSE AS PUBLISHED BY
# THE FREE SOFTWARE FOUNDATION; EITHER VERSION 2 OF THE LICENSE, OR
# (AT YOUR OPTION) ANY LATER VERSION.
#
# THIS PROGRAM IS DISTRIBUTED IN THE HOPE THAT IT WILL BE USEFUL, BUT
# WITHOUT ANY WARRANTY; WITHOUT EVEN THE IMPLIED WARRANTY OF
# MERCHANTABILITY OR FITNESS FOR A PARTICULAR PURPOSE. SEE THE GNU
# GENERAL PUBLIC LICENSE FOR MORE DETAILS.
#
# YOU SHOULD HAVE RECEIVED A COPY OF THE GNU GENERAL PUBLIC LICENSE
# ALONG WITH THIS PROGRAM; IF NOT, WRITE TO EDF R&D CODE_ASTER,
#    1 AVENUE DU GENERAL DE GAULLE, 92141 CLAMART CEDEX, FRANCE.
# ======================================================================

DEBUT(CODE=_F(NIV_PUB_WEB='INTERNET',),IMPR_MACRO='OUI',ERREUR=_F(ERREUR_F='EXCEPTION',),DEBUG=_F(SDVERI='OUI'),)


MA0=LIRE_MAILLAGE(FORMAT='MED',)

DEFI_GROUP(reuse=MA0, MAILLAGE = MA0, DETR_GROUP_MA =_F( NOM='MASS2'))

MA=CREA_MAILLAGE(MAILLAGE= MA0, CREA_POI1=_F(GROUP_NO = 'T_1_0_0', NOM_GROUP_MA='MASS2'))

MO=AFFE_MODELE(MAILLAGE=MA,
               AFFE=(
                     _F(GROUP_MA = ('POUT1','POUT2',),PHENOMENE = 'MECANIQUE',MODELISATION = 'POU_D_E'),
                     _F(GROUP_MA = 'SUPP1',PHENOMENE = 'MECANIQUE',MODELISATION = 'DIS_T'), # RL3D dans EPX
                     _F(GROUP_MA = 'SUPP2',PHENOMENE = 'MECANIQUE',MODELISATION = 'DIS_T'), # APPU dans EPX
                     _F(GROUP_MA = ('MASS1','MASS2'),PHENOMENE = 'MECANIQUE',MODELISATION = 'DIS_T'), # PMAT dans EPX
                    )
               );

ACI_POU = DEFI_MATERIAU(ELAS=_F(
                    E = 200000.E06,
                    NU = 0.,
                    RHO = 7800.,
                   )
                  );


MATER=AFFE_MATERIAU(MAILLAGE=MA,
                       AFFE=(
                              _F(GROUP_MA = ('POUT1','POUT2',) ,MATER = ACI_POU),

                            ),
                           )



ELEM = AFFE_CARA_ELEM(MODELE = MO,
                      POUTRE=_F(GROUP_MA=('POUT1','POUT2',),
                                SECTION = 'CERCLE',
                                CARA=('R',),
                                VALE =(0.02),
                                VARI_SECT = 'CONSTANT',
                               ),
                      ORIENTATION = (_F(GROUP_MA=('POUT1','POUT2',),CARA = 'VECT_Y',VALE= (0.,1.,0.)),
                                     _F(GROUP_MA=('SUPP1',),CARA = 'VECT_Y',VALE= (1.,0.,0.)),
                                    ),
                      DISCRET = (
                                 _F(
                                    GROUP_MA = ('MASS1', 'MASS2'),
                                    CARA     = 'M_T_D_N',
                                    VALE     = 1000.,
                                    ),
                                 _F(
                                    GROUP_MA = ('SUPP2',),
                                    CARA     = 'K_T_D_N',
                                    VALE     = (60000.,75000.,50000.,),
                                    ),
                                 _F(
                                    GROUP_MA = ('SUPP2',),
                                    CARA     = 'A_T_D_N',
                                    VALE     = (6000.,7500.,5000.,),
                                    ),
                                _F(
                                    GROUP_MA = ('SUPP1',),
                                    CARA     = 'K_T_D_L',
                                    VALE     = (75000.0,60000.,50000.,),
                                    REPERE = 'LOCAL',
                                    ),
                                _F(
                                    GROUP_MA = ('SUPP1',),
                                    CARA     = 'A_T_D_L',
                                    VALE     = (7500.0,6000.,5000.,),
                                    REPERE = 'LOCAL',
                                    ),
                                 ),
                     INFO=1,);


BLOQ=AFFE_CHAR_MECA(MODELE=MO,
                     DDL_IMPO=(_F(DX = 0., DY= 0., DZ=0., DRX=0., DRY = 0., DRZ = 0., GROUP_NO = ('P_0_0_0', 'T_0_0_0'),),
                               _F(DX = 0., DY= 0., DZ=0., GROUP_NO = ('P_1_L_0',),),
                     ),
                    );

FORC=AFFE_CHAR_MECA(MODELE=MO,
                     FORCE_NODALE=(
                                   _F(FY= 1000.,GROUP_NO = ('P_1_0_0', 'T_1_0_0')),
                                  ),
                    );

F_FORC=DEFI_FONCTION(NOM_PARA='INST',
                     VALE=(0.0,    1.,
                           100.,   1.),
                     );

NFKT=DEFI_FONCTION(NOM_PARA='INST',
                   VALE=(-1E-1,     0.5,
                          -2E-3,     2E-3,
                          0.,     0.,
                          2E-3, -2E-3,
                          1E-1, -0.5,
                        ),
                   )

NFAT=DEFI_FONCTION(NOM_PARA='INST',
                   VALE=(-1E-1,     0.5,
                          -3E-3,     3E-3,
                          0.,     0.,
                          3E-3, -3E-3,
                          1E-1, -0.5,
                        ),
                   )



U = CALC_EUROPLEXUS(
   LANCEMENT = 'OUI',
   VERSION_EUROPLEXUS = 'EPXASTER_DEV',
   MODELE=MO,
   CHAM_MATER=MATER,
   COMPORTEMENT =(_F(
                  RELATION = 'ELAS',
                  GROUP_MA = ('POUT1','POUT2',),
                 ),
              ),
   CARA_ELEM=ELEM,
   FONC_PARASOL = _F(
                     GROUP_MA =('SUPP2','SUPP1', ),
                     NFKT = NFKT,
                     NFAT = NFAT,
                    ),
   EXCIT=(_F(CHARGE=BLOQ,),
          _F(CHARGE=FORC,FONC_MULT=F_FORC,),
         ),
   CALCUL = _F(TYPE_DISCRETISATION  ='AUTO',
               CSTAB     = 0.8,
               INST_INIT = 0,
               INST_FIN  = 1.0234,
               NMAX      = 2000000,
               ),
   ARCHIVAGE   = _F(INST=[2.8E-1, 1.0234]),
   );


IMPR_RESU(RESU=_F(RESULTAT=U, NOM_CHAM='DEPL'))
#
TEST_RESU(
   RESU=(
        _F(
          RESULTAT   = U,
          NUME_ORDRE = 91609,
          NOM_CHAM   = 'DEPL',
          NOM_CMP    = 'DY',
          GROUP_NO   = 'P_1_0_0',
          REFERENCE  = 'SOURCE_EXTERNE',
          VALE_CALC  = 0.00352219880348,
          VALE_REFE  = 3.52220E-03,),
        _F(
          RESULTAT   = U,
          NUME_ORDRE = 91609,
          NOM_CHAM   = 'DEPL',
          NOM_CMP    = 'DY',
          GROUP_NO   = 'T_1_0_0',
          REFERENCE  = 'SOURCE_EXTERNE',
          VALE_CALC  = 0.00352219953822,
          VALE_REFE  = 3.52220E-03,),
    )
  );



ELEM2 = AFFE_CARA_ELEM(MODELE = MO,
                      POUTRE=_F(GROUP_MA=('POUT1','POUT2',),
                                SECTION = 'CERCLE',
                                CARA=('R',),
                                VALE =(0.02),
                                VARI_SECT = 'CONSTANT',
                               ),
                      ORIENTATION = (_F(GROUP_MA=('POUT1','POUT2',),CARA = 'VECT_Y',VALE= (0.,1.,0.)),
                                     _F(GROUP_MA=('SUPP1',),CARA = 'VECT_Y',VALE= (1.,0.,0.)),
                                    ),
                      DISCRET = (
                                 _F(
                                    GROUP_MA = ('MASS1', 'MASS2'),
                                    CARA     = 'M_T_D_N',
                                    VALE     = 1000.,
                                    ),
                                 _F(
                                    GROUP_MA = ('SUPP2',),
                                    CARA     = 'K_T_D_N',
                                    VALE     = (60000.,75000.,50000.,),
                                    ),
                                 _F(
                                    GROUP_MA = ('SUPP2',),
                                    CARA     = 'A_T_D_N',
                                    VALE     = (6000.,7500.,5000.,),
                                    ),
                                _F(
                                    GROUP_MA = ('SUPP1',),
                                    CARA     = 'K_T_D_L',
                                    VALE     = (60000.,75000.,50000.,),
                                    REPERE = 'GLOBAL',
                                    ),
                                _F(
                                    GROUP_MA = ('SUPP1',),
                                    CARA     = 'A_T_D_L',
                                    VALE     = (6000.,7500.,5000.,),
                                    REPERE = 'GLOBAL',
                                    ),
                                 ),
                     INFO=1,);


FORC2=AFFE_CHAR_MECA(MODELE=MO,
                     FORCE_NODALE=(_F(FX= 1000.,GROUP_NO = ('P_1_0_0', 'T_1_0_0')),
                                   _F(FY= 1000.,GROUP_NO = ('P_1_0_0', 'T_1_0_0')),
                                   _F(FZ= 1000.,GROUP_NO = ('P_1_0_0', 'T_1_0_0')),
                                  ),
                    );

U2 = CALC_EUROPLEXUS(
   LANCEMENT = 'OUI',
   VERSION_EUROPLEXUS = 'EPXASTER_DEV',
   MODELE=MO,
   CHAM_MATER=MATER,
   COMPORTEMENT =(_F(
                  RELATION = 'ELAS',
                  GROUP_MA = ('POUT1','POUT2',),
                 ),
              ),
   CARA_ELEM=ELEM2,
   FONC_PARASOL = _F(
                     GROUP_MA =('SUPP2','SUPP1', ),
                     NFKT = NFKT,
                     NFAT = NFAT,
                    ),
   EXCIT=(_F(CHARGE=BLOQ,),
          _F(CHARGE=FORC2,FONC_MULT=F_FORC,),
         ),
   CALCUL = _F(TYPE_DISCRETISATION  ='AUTO',
               CSTAB     = 0.8,
               INST_INIT = 0,
               INST_FIN  = 1.0234,
               NMAX      = 2000000,
               ),
   ARCHIVAGE   = _F(INST=[2.8E-1, 1.0234]),
   );


IMPR_RESU(RESU=_F(RESULTAT=U2, NOM_CHAM='DEPL'))

TEST_RESU(
   RESU=(
        _F(
          RESULTAT   = U2,
          #INST       = 2.8E-01,
          NUME_ORDRE = 25064,
          NOM_CHAM   = 'DEPL',
          NOM_CMP    = 'DX',
          GROUP_NO   = 'P_1_0_0',
          REFERENCE  = 'SOURCE_EXTERNE',
          VALE_CALC  = -1.62765915604E-05,
          VALE_REFE  = -1.62766E-05,),
        _F(
          RESULTAT   = U2,
          #INST       = 2.8E-01,
          NUME_ORDRE = 25064,
          NOM_CHAM   = 'DEPL',
          NOM_CMP    = 'DX',
          GROUP_NO   = 'T_1_0_0',
          REFERENCE  = 'SOURCE_EXTERNE',
          VALE_CALC  = -1.62765915604E-05,
          VALE_REFE  = -1.62766E-05,),
        _F(
          RESULTAT   = U2,
          #INST       = 2.8E-01,
          NUME_ORDRE = 25064,
          NOM_CHAM   = 'DEPL',
          NOM_CMP    = 'DY',
          GROUP_NO   = 'P_1_0_0',
          REFERENCE  = 'SOURCE_EXTERNE',
          VALE_CALC  = 0.00367803713319,
          VALE_REFE  = 3.67804E-03,),
        _F(
          RESULTAT   = U2,
          #INST       = 2.8E-01,
          NUME_ORDRE = 25064,
          NOM_CHAM   = 'DEPL',
          NOM_CMP    = 'DY',
          GROUP_NO   = 'T_1_0_0',
          REFERENCE  = 'SOURCE_EXTERNE',
          VALE_CALC  = 0.00367803713319,
          VALE_REFE  = 3.67804E-03,),
        _F(
          RESULTAT   = U2,
          #INST       = 2.8E-01,
          NUME_ORDRE = 25064,
          NOM_CHAM   = 'DEPL',
          NOM_CMP    = 'DZ',
          GROUP_NO   = 'P_1_0_0',
          REFERENCE  = 'SOURCE_EXTERNE',
          VALE_CALC  = 0.0045813775793,
          VALE_REFE  = 4.58138E-03,),
        _F(
          RESULTAT   = U2,
          #INST       = 2.8E-01,
          NUME_ORDRE = 25064,
          NOM_CHAM   = 'DEPL',
          NOM_CMP    = 'DZ',
          GROUP_NO   = 'T_1_0_0',
          REFERENCE  = 'SOURCE_EXTERNE',
          VALE_CALC  = 0.0045813775793,
          VALE_REFE  = 4.58138E-03,),
    )
  );


FIN()
