# TITRE VALIDATION DE RIGI_PARASOL POUR DIS_T DANS CALC_EUROPLEXUS
# ======================================================================
# COPYRIGHT (C) 1991 - 2015  EDF R&D                  WWW.CODE-ASTER.ORG
# THIS PROGRAM IS FREE SOFTWARE; YOU CAN REDISTRIBUTE IT AND/OR MODIFY
# IT UNDER THE TERMS OF THE GNU GENERAL PUBLIC LICENSE AS PUBLISHED BY
# THE FREE SOFTWARE FOUNDATION; EITHER VERSION 2 OF THE LICENSE, OR
# (AT YOUR OPTION) ANY LATER VERSION.
#
# THIS PROGRAM IS DISTRIBUTED IN THE HOPE THAT IT WILL BE USEFUL, BUT
# WITHOUT ANY WARRANTY; WITHOUT EVEN THE IMPLIED WARRANTY OF
# MERCHANTABILITY OR FITNESS FOR A PARTICULAR PURPOSE. SEE THE GNU
# GENERAL PUBLIC LICENSE FOR MORE DETAILS.
#
# YOU SHOULD HAVE RECEIVED A COPY OF THE GNU GENERAL PUBLIC LICENSE
# ALONG WITH THIS PROGRAM; IF NOT, WRITE TO EDF R&D CODE_ASTER,
#    1 AVENUE DU GENERAL DE GAULLE, 92141 CLAMART CEDEX, FRANCE.
# ======================================================================

DEBUT(CODE=_F(NIV_PUB_WEB='INTERNET',),IMPR_MACRO='OUI',ERREUR=_F(ERREUR_F='EXCEPTION',),DEBUG=_F(SDVERI='OUI'),)
MPa = 1000000.0;

MA0=LIRE_MAILLAGE(FORMAT='MED',);

MA=CREA_MAILLAGE(MAILLAGE=MA0,
                 CREA_POI1=_F(NOM_GROUP_MA='RESS_POI1',
                              GROUP_MA='RADIER',),);

BETON = DEFI_MATERIAU(ELAS=_F(
                    E = 30000*MPa,
                    NU = 0.3,
                    RHO = 2500,
                   )
                  );

MATER=AFFE_MATERIAU(MAILLAGE=MA,
                       AFFE=( _F(GROUP_MA = 'SOLI_3D',MATER = BETON),
                            ),
                           )

FONCCB=DEFI_FONCTION(NOM_PARA='INST',
                     VALE=(0.0,    1.,
                           100.,  1.),
                     );

NFKT=DEFI_FONCTION(NOM_PARA='INST',
                   VALE=(-1.0,     1.0,
                          0.0,     0.0,
                          1.0,     -1.0,
                        ),
                   );

NFKR=DEFI_FONCTION(NOM_PARA='INST',
                   VALE=(-10.,     10.,
                          0.0,     0.0,
                          10.,     -10.
                        ),
                   );
NFAT=DEFI_FONCTION(NOM_PARA='INST',
                   VALE=(-100000.0,     100000.0,
                          0.0,     0.0,
                          100000.0,     -100000.0,
                        ),
                   );

NFAR=DEFI_FONCTION(NOM_PARA='INST',
                   VALE=(-10.,     10.,
                          0.0,     0.0,
                          10.,     -10.
                        ),
                   );


# CALCUL DE REFERENCE AVEC DIS_TR POI1 (possible dans EPX)

MO_REF=AFFE_MODELE(MAILLAGE=MA,
               AFFE=(_F(GROUP_MA = 'SOLI_3D',PHENOMENE = 'MECANIQUE',MODELISATION = '3D'),
                     _F(GROUP_MA = 'RESS_POI1',PHENOMENE = 'MECANIQUE', MODELISATION = 'DIS_TR'),
                    )
               );


# les rotations sont ajoutées de facon à ce que les rotations sur chaque
# elements soient nulles
Lrigi = [ 1E6 , 1E6 , 1E6 , 2.5E5 , 2.5E5 , 5.E5 , ]

Lamor = [ 1E3, 1E3, 1E3, 2.5E2 , 2.5E2 , 5.E2 ,]
Lrigi.extend(Lamor)

ELEM_REF = AFFE_CARA_ELEM(MODELE = MO_REF,
                      RIGI_PARASOL=_F(GROUP_MA='RADIER',
                                    GROUP_MA_POI1 = 'RESS_POI1',
                                    COEF_GROUP=1.0,
                                    CARA=('K_TR_D_N','A_TR_D_N'),
                                    EUROPLEXUS='OUI',
                                    VALE=Lrigi,
                                    COOR_CENTRE=(0.5,0.5,0.,),),
                     INFO=1,);



CHAR_REF=AFFE_CHAR_MECA(MODELE=MO_REF,
                     FORCE_NODALE=(_F(FX = 1000, GROUP_NO = 'XY0',),
                                   _F(FY = 2000, GROUP_NO = 'XY0',),
                                   _F(FZ = -3000, GROUP_NO = 'XY0',),
                                  ),
                    );




U_REF = CALC_EUROPLEXUS(
   LANCEMENT = 'OUI',
   MODELE=MO_REF,
   CHAM_MATER=MATER,
   COMPORTEMENT =(_F(
                  RELATION = 'ELAS',
                  GROUP_MA = ('SOLI_3D'),
                 ),
              ),
   CARA_ELEM=ELEM_REF,
   FONC_PARASOL = _F(
                     GROUP_MA ='RESS_POI1',
                     NFKT = NFKT,
                     NFKR = NFKR,
                     NFAT = NFAT,
                     NFAR = NFAR,
                    ),
   EXCIT=(_F(CHARGE=CHAR_REF,FONC_MULT=FONCCB,),),
    CALCUL = _F(TYPE_DISCRETISATION  ='AUTO',
                INST_INIT = 0,
                INST_FIN  = 0.5,
                NMAX      = 9000000,
                CSTAB     = 0.8
                ),
   ARCHIVAGE   = _F(INST=[0.25, 0.5],),
   );


IMPR_RESU(RESU=_F(RESULTAT=U_REF))


TEST_RESU(
   RESU=(
        _F(
          RESULTAT   = U_REF,
          #INST       = 0.5,
          NUME_ORDRE = 4331,
          NOM_CHAM   = 'DEPL',
          NOM_CMP    = 'DX',
          GROUP_NO   = 'XY0',
          VALE_CALC= -0.00210267324236,
          ),
        _F(
          RESULTAT   = U_REF,
          #INST       = 0.5,
          NUME_ORDRE = 4331,
          NOM_CHAM   = 'DEPL',
          NOM_CMP    = 'DY',
          GROUP_NO   = 'XY0',
          VALE_CALC= 0.00175325119557,
          ),
        _F(
          RESULTAT   = U_REF,
          #INST       = 0.5,
          NUME_ORDRE = 4331,
          NOM_CHAM   = 'DEPL',
          NOM_CMP    = 'DZ',
          GROUP_NO   = 'XY0',
          VALE_CALC= -0.00691531181833,
          ),
    )
  );





# CALCUL AVEC DIS_T POI1



MO_T=AFFE_MODELE(MAILLAGE=MA,
               AFFE=(_F(GROUP_MA = 'SOLI_3D',PHENOMENE = 'MECANIQUE',MODELISATION = '3D'),
                     _F(GROUP_MA = 'RESS_POI1',PHENOMENE = 'MECANIQUE', MODELISATION = 'DIS_T'),
                    )
               );


Lrigi = [ 1E6 , 1E6 , 1E6 ,]

Lamor = [ 1E3, 1E3, 1E3,]
Lrigi.extend(Lamor)

ELEM_T = AFFE_CARA_ELEM(MODELE = MO_T,
                      RIGI_PARASOL=_F(GROUP_MA='RADIER',
                                    GROUP_MA_POI1 = 'RESS_POI1',
                                    COEF_GROUP=1.0,
                                    CARA=('K_T_D_N', 'A_T_D_N'),
                                    EUROPLEXUS='OUI',
                                    VALE=Lrigi,
                                    COOR_CENTRE=(0.5,0.5,0.,),),
                     INFO=1,);



CHAR_T=AFFE_CHAR_MECA(MODELE=MO_T,
                     FORCE_NODALE=(_F(FX = 1000, GROUP_NO = 'XY0',),
                                   _F(FY = 2000, GROUP_NO = 'XY0',),
                                   _F(FZ = -3000, GROUP_NO = 'XY0',),
                                  ),
                    );




U_T = CALC_EUROPLEXUS(
   LANCEMENT = 'OUI',
   MODELE=MO_T,
   CHAM_MATER=MATER,
   COMPORTEMENT =(_F(
                  RELATION = 'ELAS',
                  GROUP_MA = ('SOLI_3D'),
                 ),
              ),
   CARA_ELEM=ELEM_T,
   FONC_PARASOL = _F(
                     GROUP_MA ='RESS_POI1',
                     NFKT = NFKT,
                     NFAT = NFAT,
                    ),
   EXCIT=(_F(CHARGE=CHAR_T,FONC_MULT=FONCCB,),),
    CALCUL = _F(TYPE_DISCRETISATION  ='AUTO',
                INST_INIT = 0,
                INST_FIN  = 0.5,
                NMAX      = 9000000,
                CSTAB     = 0.8
                ),
   ARCHIVAGE   = _F(INST=[0.25, 0.5],),
   );



TEST_RESU(
   RESU=(
        _F(
          RESULTAT   = U_T,
          #INST       = 0.5,
          NUME_ORDRE = 4331,
          NOM_CHAM   = 'DEPL',
          NOM_CMP    = 'DX',
          GROUP_NO   = 'XY0',
          VALE_CALC= -0.00210267324236,
          VALE_REFE= -0.00210267324236,
          REFERENCE = 'AUTRE_ASTER',
          ),
        _F(
          RESULTAT   = U_T,
          #INST       = 0.5,
          NUME_ORDRE = 4331,
          NOM_CHAM   = 'DEPL',
          NOM_CMP    = 'DY',
          GROUP_NO   = 'XY0',
          VALE_CALC= 0.00175325119557,
          VALE_REFE= 0.00175325119557,
          REFERENCE = 'AUTRE_ASTER',
          ),
        _F(
          RESULTAT   = U_T,
          #INST       = 0.5,
          NUME_ORDRE = 4331,
          NOM_CHAM   = 'DEPL',
          NOM_CMP    = 'DZ',
          GROUP_NO   = 'XY0',
          VALE_REFE= -0.00691531181833,
          VALE_CALC= -0.00691531181833,
          REFERENCE = 'AUTRE_ASTER',
          ),
    )
  );




FIN()
