# ======================================================================
# COPYRIGHT (C) 1991 - 2016  EDF R&D                  WWW.CODE-ASTER.ORG
# THIS PROGRAM IS FREE SOFTWARE; YOU CAN REDISTRIBUTE IT AND/OR MODIFY
# IT UNDER THE TERMS OF THE GNU GENERAL PUBLIC LICENSE AS PUBLISHED BY
# THE FREE SOFTWARE FOUNDATION; EITHER VERSION 2 OF THE LICENSE, OR
# (AT YOUR OPTION) ANY LATER VERSION.
#
# THIS PROGRAM IS DISTRIBUTED IN THE HOPE THAT IT WILL BE USEFUL, BUT
# WITHOUT ANY WARRANTY; WITHOUT EVEN THE IMPLIED WARRANTY OF
# MERCHANTABILITY OR FITNESS FOR A PARTICULAR PURPOSE. SEE THE GNU
# GENERAL PUBLIC LICENSE FOR MORE DETAILS.
#
# YOU SHOULD HAVE RECEIVED A COPY OF THE GNU GENERAL PUBLIC LICENSE
# ALONG WITH THIS PROGRAM; IF NOT, WRITE TO EDF R&D CODE_ASTER,
#    1 AVENUE DU GENERAL DE GAULLE, 92141 CLAMART CEDEX, FRANCE.
# ======================================================================


DEBUT(CODE=_F(NIV_PUB_WEB='INTERNET'), DEBUG=_F(SDVERI='OUI'))


COURFATA = FORMULE(NOM_PARA='SIGM',VALE='5.E5/SIGM ')

L_INST=DEFI_LIST_REEL(  DEBUT=1.,
                        INTERVALLE=_F(  JUSQU_A = 1000., PAS = 1.) )
                           
FWOHLER=CALC_FONC_INTERP( FONCTION=COURFATA, LIST_PARA=L_INST,
                          NOM_PARA = 'SIGM',PROL_DROITE='LINEAIRE',
                          PROL_GAUCHE='CONSTANT',
                          NOM_RESU='NADM'       )

MAT=DEFI_MATERIAU(  ELAS=_F( E = 200000.,  NU = 0.3,  ALPHA = 1.0E-5),
                    FATIGUE=_F(  WOHLER = FWOHLER, E_REFE = 200000.),
                    RCCM=_F(  M_KE = 2.,
                              N_KE = 0.2,
                              SM = 2000.,
                              SY_02 = 200.)
                               )

#  CONTRAINTES THERMIQUES (SITUATION 1)                 
T_THER = LIRE_TABLE (UNITE=35, FORMAT='ASTER',SEPARATEUR=' ',
                      NUME_TABLE=1,)

#  CONTRAINTES THERMIQUES (SITUATION 2)                 
T_THER2 = LIRE_TABLE (UNITE=35, FORMAT='ASTER',SEPARATEUR=' ',
                      NUME_TABLE=2,)

# CALCULS AVEC LA METHODE DU TRESCA SIGNE     
# VALIDATION DU CALCUL DE SN SANS CONTRAINTES THERMIQUES
SN1 = POST_RCCM( MATER=MAT,
                 TYPE_RESU='DETAILS',
                 TYPE_RESU_MECA='ZE200a',
                 METHODE='TRESCA',
                 OPTION='SN',
                 INFO=2,
                 TYPE_KE='KE_MECA',
                 INDI_SIGM=(
                   _F(C1=1.0,
                      K1=1.0,
                      K2=1.0,
                      C2=2.0,
                      C3=1.0,
                      K3=1.0,),),
                 TUYAU=(
                   _F(R=0.5,
                      EP=1.0,
                      I=1.0,),),
                 CHAR_MECA=(
                  _F(NUME_CHAR=1,
                     NOM_CHAR='ETAT A - SITU1',
                     MX=21.0,  MY=0.0,  MZ=0.0,),
                  _F(NUME_CHAR=2,
                     NOM_CHAR='ETAT B - SITU1',
                     MX=1.0,  MY=0.0,  MZ=0.0,),   
                  _F(NUME_CHAR=3,
                     NOM_CHAR='ETAT A - SITU2',
                     MX=1.0,  MY=0.0,  MZ=0.0,),
                  _F(NUME_CHAR=4,
                     NOM_CHAR='ETAT B - SITU2',
                     MX=61.0,  MY=0.0,  MZ=0.0,),),
                 SITUATION=(
                  _F(NB_OCCUR=1,
                     NUME_SITU=1,
                     NOM_SITU='Situation 1',
                     NUME_GROUPE=1,
                     CHAR_ETAT_A=1,
                     CHAR_ETAT_B=2,
                     PRES_A=201,
                     PRES_B=1,
                      ),
                  _F(NB_OCCUR=1,
                     NUME_SITU=2,
                     NOM_SITU='Situation 2',
                     NUME_GROUPE=1,
                     CHAR_ETAT_A=3,
                     CHAR_ETAT_B=4,
                     PRES_A=0,
                     PRES_B=0,
                        ),),);

IMPR_TABLE(    TABLE=SN1,)

SN1s = POST_RCCM( MATER=MAT,
                 TYPE_RESU='DETAILS',
                 TYPE_RESU_MECA='ZE200a',
                 METHODE='TRESCA',
                 OPTION='SN',
                 INFO=2,
                 TYPE_KE='KE_MECA',
                 INDI_SIGM=(
                   _F(C1=1.0,
                      K1=1.0,
                      K2=1.0,
                      C2=2.0,
                      C3=1.0,
                      K3=1.0,),),
                 TUYAU=(
                   _F(R=0.5,
                      EP=1.0,
                      I=1.0,),),
                 CHAR_MECA=(
                  _F(NUME_CHAR=1,
                     NOM_CHAR='ETAT A - SITU1',
                     MX=21.0,  MY=0.0,  MZ=0.0,),
                  _F(NUME_CHAR=2,
                     NOM_CHAR='ETAT B - SITU1',
                     MX=1.0,  MY=0.0,  MZ=0.0,),   
                  _F(NUME_CHAR=3,
                     NOM_CHAR='ETAT A - SITU2',
                     MX=1.0,  MY=0.0,  MZ=0.0,),
                  _F(NUME_CHAR=4,
                     NOM_CHAR='ETAT B - SITU2',
                     MX=61.0,  MY=0.0,  MZ=0.0,),),
                  SEISME =_F(NB_OCCUR =2,
                             NB_CYCL_SEISME =10,
                             NUME_SITU =3,
                             NUME_GROUPE=1,
                             CHAR_ETAT=1,
                             ),
                 SITUATION=(
                  _F(NB_OCCUR=1,
                     NUME_SITU=1,
                     NOM_SITU='Situation 1',
                     NUME_GROUPE=1,
                     CHAR_ETAT_A=1,
                     CHAR_ETAT_B=2,
                     PRES_A=201,
                     PRES_B=1,
                      ),
                  _F(NB_OCCUR=1,
                     NUME_SITU=2,
                     NOM_SITU='Situation 2',
                     NUME_GROUPE=1,
                     CHAR_ETAT_A=3,
                     CHAR_ETAT_B=4,
                     PRES_A=0,
                     PRES_B=0,
                        ),),);

IMPR_TABLE(    TABLE=SN1s,)

SN1j = POST_RCCM( MATER=MAT,
                 TYPE_RESU='DETAILS',
                 TYPE_RESU_MECA='ZE200a',
                 METHODE='TRESCA',
                 OPTION='SN',
                 INFO=2,
                 TYPE_KE='KE_MECA',
                 INDI_SIGM=(
                   _F(C1=1.0,
                      K1=1.0,
                      K2_CORP=1.0,
                      C2_CORP=2.0,
                      K2_TUBU=1.0,
                      C2_TUBU=2.0,
                      C3=1.0,
                      K3=1.0,),),
                 TUYAU=(
                   _F(R=0.5,
                      R_CORP=0.5,
                      R_TUBU=0.5,
                      EP=1.0,
                      I_CORP=1.0,
                      I_TUBU=1.0,),),
                 CHAR_MECA=(
                  _F(NUME_CHAR=1,
                     NOM_CHAR='ETAT A - SITU1',
                     MX_CORP=21.0,  MY_CORP=0.0,  MZ_CORP=0.0,
                     MX_TUBU=21.0,  MY_TUBU=0.0,  MZ_TUBU=0.0,),
                  _F(NUME_CHAR=2,
                     NOM_CHAR='ETAT B - SITU1',
                     MX_CORP=1.0,  MY_CORP=0.0,  MZ_CORP=0.0,
                     MX_TUBU=1.0,  MY_TUBU=0.0,  MZ_TUBU=0.0,),   
                  _F(NUME_CHAR=3,
                     NOM_CHAR='ETAT A - SITU2',
                     MX_CORP=1.0,  MY_CORP=0.0,  MZ_CORP=0.0,
                     MX_TUBU=1.0,  MY_TUBU=0.0,  MZ_TUBU=0.0,),
                  _F(NUME_CHAR=4,
                     NOM_CHAR='ETAT B - SITU2',
                     MX_CORP=1.0,  MY_CORP=0.0,  MZ_CORP=0.0,
                     MX_TUBU=1.0,  MY_TUBU=0.0,  MZ_TUBU=0.0,),),
                  SEISME =_F(NB_OCCUR =2,
                             NB_CYCL_SEISME =10,
                             NUME_SITU =3,
                             NUME_GROUPE=1,
                             CHAR_ETAT=1,
                             ),
                 SITUATION=(
                  _F(NB_OCCUR=1,
                     NUME_SITU=1,
                     NOM_SITU='Situation 1',
                     NUME_GROUPE=1,
                     CHAR_ETAT_A=1,
                     CHAR_ETAT_B=2,
                     PRES_A=201,
                     PRES_B=1,
                      ),
                  _F(NB_OCCUR=1,
                     NUME_SITU=2,
                     NOM_SITU='Situation 2',
                     NUME_GROUPE=1,
                     CHAR_ETAT_A=3,
                     CHAR_ETAT_B=4,
                     PRES_A=0,
                     PRES_B=0,
                        ),),);

IMPR_TABLE(    TABLE=SN1j,)

# VALIDATION DU CALCUL DE SN AVEC CONTRAINTES THERMIQUES
SN2 = POST_RCCM( MATER=MAT,
                 TYPE_RESU='DETAILS',
                 TYPE_RESU_MECA='ZE200a',
                 METHODE='TRESCA',
                 OPTION='SN',
                 INFO=2,
                 TYPE_KE='KE_MECA',
                 INDI_SIGM=(
                   _F(C1=1.0,
                      K1=1.0,
                      K2=1.0,
                      C2=2.0,
                      C3=1.0,
                      K3=1.0,),),
                 TUYAU=(
                   _F(R=0.5,
                      EP=1.0,
                      I=1.0,),),
                 CHAR_MECA=(
                  _F(NUME_CHAR=1,
                     NOM_CHAR='ETAT A - SITU1',
                     MX=21.0,  MY=0.0,  MZ=0.0,),
                  _F(NUME_CHAR=2,
                     NOM_CHAR='ETAT B - SITU1',
                     MX=1.0,  MY=0.0,  MZ=0.0,),   
                  _F(NUME_CHAR=3,
                     NOM_CHAR='ETAT A - SITU2',
                     MX=1.0,  MY=0.0,  MZ=0.0,),
                  _F(NUME_CHAR=4,
                     NOM_CHAR='ETAT B - SITU2',
                     MX=61.0,  MY=0.0,  MZ=0.0,),),
                 RESU_THER= (_F(NUME_RESU_THER=1,
                            TABL_RESU_THER=T_THER, ), 
                            _F(NUME_RESU_THER=2,
                            TABL_RESU_THER=T_THER2, ), ),
                 SITUATION=(
                  _F(NB_OCCUR=1,
                     NUME_SITU=1,
                     NOM_SITU='Situation 1',
                     NUME_GROUPE=1,
                     NUME_RESU_THER = 1,
                     CHAR_ETAT_A=1,
                     CHAR_ETAT_B=2,
                     PRES_A=201,
                     PRES_B=1,
                      ),
                  _F(NB_OCCUR=1,
                     NUME_SITU=2,
                     NOM_SITU='Situation 2',
                     NUME_GROUPE=1,
                     NUME_RESU_THER = 2,
                     CHAR_ETAT_A=3,
                     CHAR_ETAT_B=4,
                     PRES_A=0,
                     PRES_B=0,
                        ),),);

IMPR_TABLE(    TABLE=SN2,)

# VALIDATION DU CALCUL DE FATIGUE ZE200a
FAT = POST_RCCM( MATER=MAT,
                 METHODE='TRESCA',
                 TYPE_RESU='DETAILS',
                 TYPE_RESU_MECA='ZE200a',
                 OPTION='FATIGUE',
                 INFO=2,
                 TYPE_KE='KE_MECA',
                 INDI_SIGM=(
                   _F(C1=1.0,
                      K1=1.0,
                      K2=1.0,
                      C2=2.0,
                      C3=1.0,
                      K3=1.0,),),
                 TUYAU=(
                   _F(R=0.5,
                      EP=1.0,
                      I=1.0,),),
                 CHAR_MECA=(
                  _F(NUME_CHAR=1,
                     NOM_CHAR='ETAT A - SITU1',
                     MX=21.0,  MY=0.0,  MZ=0.0,),
                  _F(NUME_CHAR=2,
                     NOM_CHAR='ETAT B - SITU1',
                     MX=1.0,  MY=0.0,  MZ=0.0,),   
                  _F(NUME_CHAR=3,
                     NOM_CHAR='ETAT A - SITU2',
                     MX=1.0,  MY=0.0,  MZ=0.0,),
                  _F(NUME_CHAR=4,
                     NOM_CHAR='ETAT B - SITU2',
                     MX=61.0,  MY=0.0,  MZ=0.0,),),
                 RESU_THER= (_F(NUME_RESU_THER=1,
                            TABL_RESU_THER=T_THER, ), 
                            _F(NUME_RESU_THER=2,
                            TABL_RESU_THER=T_THER2, ), ),
                 SITUATION=(
                  _F(NB_OCCUR=1,
                     NUME_SITU=1,
                     NOM_SITU='Situation 1',
                     NUME_GROUPE=1,
                     NUME_RESU_THER = 1,
                     CHAR_ETAT_A=1,
                     CHAR_ETAT_B=2,
                     PRES_A=201,
                     PRES_B=1,
                      ),
                  _F(NB_OCCUR=1,
                     NUME_SITU=2,
                     NOM_SITU='Situation 2',
                     NUME_GROUPE=1,
                     NUME_RESU_THER = 2,
                     CHAR_ETAT_A=3,
                     CHAR_ETAT_B=4,
                     PRES_A=0,
                     PRES_B=0,
                        ),),);

IMPR_TABLE(  TABLE=FAT,
              TITRE = 'impression des SN et SP pour chaque combinaison sans prise en compte du seisme',
              FILTRE= (_F( NOM_PARA = 'TYPE',
                           VALE_K  = 'COMB'),
                       _F( NOM_PARA = 'SEISME',
                           VALE_K  = 'SANS'),),
              NOM_PARA = ('GROUPE_1', 'LIEU', 'SIT1', 'SIT2', 'INST_SN_1', 'INST_SN_2', 'SN',
                          'KE_MECA', 'KE_THER', 'INST_SP_1', 'INST_SP_2', 'SALT' ,'FU_UNIT'),
             );

# CALCULS AVEC LA METHODE QUI TESTE TOUS LES INSTANTS    
# VALIDATION DU CALCUL DE SN SANS CONTRAINTES THERMIQUES
SN1b = POST_RCCM( MATER=MAT,
                 TYPE_RESU='DETAILS',
                 TYPE_RESU_MECA='ZE200a',
                 METHODE='TOUT_INST',
                 OPTION='SN',
                 INFO=2,
                 TYPE_KE='KE_MECA',
                 INDI_SIGM=(
                   _F(C1=1.0,
                      K1=1.0,
                      K2=1.0,
                      C2=2.0,
                      C3=1.0,
                      K3=1.0,),),
                 TUYAU=(
                   _F(R=0.5,
                      EP=1.0,
                      I=1.0,),),
                 CHAR_MECA=(
                  _F(NUME_CHAR=1,
                     NOM_CHAR='ETAT A - SITU1',
                     MX=21.0,  MY=0.0,  MZ=0.0,),
                  _F(NUME_CHAR=2,
                     NOM_CHAR='ETAT B - SITU1',
                     MX=1.0,  MY=0.0,  MZ=0.0,),   
                  _F(NUME_CHAR=3,
                     NOM_CHAR='ETAT A - SITU2',
                     MX=1.0,  MY=0.0,  MZ=0.0,),
                  _F(NUME_CHAR=4,
                     NOM_CHAR='ETAT B - SITU2',
                     MX=61.0,  MY=0.0,  MZ=0.0,),),
                 SITUATION=(
                  _F(NB_OCCUR=1,
                     NUME_SITU=1,
                     NOM_SITU='Situation 1',
                     NUME_GROUPE=1,
                     CHAR_ETAT_A=1,
                     CHAR_ETAT_B=2,
                     PRES_A=201,
                     PRES_B=1,
                      ),
                  _F(NB_OCCUR=1,
                     NUME_SITU=2,
                     NOM_SITU='Situation 2',
                     NUME_GROUPE=1,
                     CHAR_ETAT_A=3,
                     CHAR_ETAT_B=4,
                     PRES_A=0,
                     PRES_B=0,
                        ),),);

IMPR_TABLE(    TABLE=SN1b,)

# VALIDATION DU CALCUL DE SN AVEC CONTRAINTES THERMIQUES
SN2b = POST_RCCM( MATER=MAT,
                 TYPE_RESU='DETAILS',
                 TYPE_RESU_MECA='ZE200a',
                 METHODE='TOUT_INST',
                 OPTION='SN',
                 INFO=2,
                 TYPE_KE='KE_MECA',
                 INDI_SIGM=(
                   _F(C1=1.0,
                      K1=1.0,
                      K2=1.0,
                      C2=2.0,
                      C3=1.0,
                      K3=1.0,),),
                 TUYAU=(
                   _F(R=0.5,
                      EP=1.0,
                      I=1.0,),),
                 CHAR_MECA=(
                  _F(NUME_CHAR=1,
                     NOM_CHAR='ETAT A - SITU1',
                     MX=21.0,  MY=0.0,  MZ=0.0,),
                  _F(NUME_CHAR=2,
                     NOM_CHAR='ETAT B - SITU1',
                     MX=1.0,  MY=0.0,  MZ=0.0,),   
                  _F(NUME_CHAR=3,
                     NOM_CHAR='ETAT A - SITU2',
                     MX=1.0,  MY=0.0,  MZ=0.0,),
                  _F(NUME_CHAR=4,
                     NOM_CHAR='ETAT B - SITU2',
                     MX=61.0,  MY=0.0,  MZ=0.0,),),
                 RESU_THER= (_F(NUME_RESU_THER=1,
                            TABL_RESU_THER=T_THER, ), 
                            _F(NUME_RESU_THER=2,
                            TABL_RESU_THER=T_THER2, ), ),
                 SITUATION=(
                  _F(NB_OCCUR=1,
                     NUME_SITU=1,
                     NOM_SITU='Situation 1',
                     NUME_GROUPE=1,
                     NUME_RESU_THER = 1,
                     CHAR_ETAT_A=1,
                     CHAR_ETAT_B=2,
                     PRES_A=201,
                     PRES_B=1,
                      ),
                  _F(NB_OCCUR=1,
                     NUME_SITU=2,
                     NOM_SITU='Situation 2',
                     NUME_GROUPE=1,
                     NUME_RESU_THER = 2,
                     CHAR_ETAT_A=3,
                     CHAR_ETAT_B=4,
                     PRES_A=0,
                     PRES_B=0,
                        ),),);

IMPR_TABLE(    TABLE=SN2b,)

# VALIDATION DU CALCUL DE FATIGUE ZE200a
FATb = POST_RCCM( MATER=MAT,
                 METHODE='TOUT_INST',
                 TYPE_RESU='DETAILS',
                 TYPE_RESU_MECA='ZE200a',
                 OPTION='FATIGUE',
                 INFO=2,
                 TYPE_KE='KE_MECA',
                 INDI_SIGM=(
                   _F(C1=1.0,
                      K1=1.0,
                      K2=1.0,
                      C2=2.0,
                      C3=1.0,
                      K3=1.0,),),
                 TUYAU=(
                   _F(R=0.5,
                      EP=1.0,
                      I=1.0,),),
                 CHAR_MECA=(
                  _F(NUME_CHAR=1,
                     NOM_CHAR='ETAT A - SITU1',
                     MX=21.0,  MY=0.0,  MZ=0.0,),
                  _F(NUME_CHAR=2,
                     NOM_CHAR='ETAT B - SITU1',
                     MX=1.0,  MY=0.0,  MZ=0.0,),   
                  _F(NUME_CHAR=3,
                     NOM_CHAR='ETAT A - SITU2',
                     MX=1.0,  MY=0.0,  MZ=0.0,),
                  _F(NUME_CHAR=4,
                     NOM_CHAR='ETAT B - SITU2',
                     MX=61.0,  MY=0.0,  MZ=0.0,),),
                 RESU_THER= (_F(NUME_RESU_THER=1,
                            TABL_RESU_THER=T_THER, ), 
                            _F(NUME_RESU_THER=2,
                            TABL_RESU_THER=T_THER2, ), ),
                 SITUATION=(
                  _F(NB_OCCUR=1,
                     NUME_SITU=1,
                     NOM_SITU='Situation_1',
                     NUME_GROUPE=1,
                     NUME_RESU_THER = 1,
                     CHAR_ETAT_A=1,
                     CHAR_ETAT_B=2,
                     PRES_A=201,
                     PRES_B=1,
                      ),
                  _F(NB_OCCUR=1,
                     NUME_SITU=2,
                     NOM_SITU='Situation_2',
                     NUME_GROUPE=1,
                     NUME_RESU_THER = 2,
                     CHAR_ETAT_A=3,
                     CHAR_ETAT_B=4,
                     PRES_A=0,
                     PRES_B=0,
                        ),),);

IMPR_TABLE(  TABLE=FATb,
             );

# VALIDATION DU CALCUL DE FATIGUE ZE200a
FATc = POST_RCCM( MATER=MAT,
                 METHODE='TOUT_INST',
                 TYPE_RESU='SYSTUS',
                 TYPE_RESU_MECA='ZE200a',
                 OPTION='FATIGUE',
                 INFO=2,
                 TYPE_KE='KE_MECA',
                 INDI_SIGM=(
                   _F(C1=1.0,
                      K1=1.0,
                      K2=1.0,
                      C2=2.0,
                      C3=1.0,
                      K3=1.0,),),
                 TUYAU=(
                   _F(R=0.5,
                      EP=1.0,
                      I=1.0,),),
                 CHAR_MECA=(
                  _F(NUME_CHAR=1,
                     NOM_CHAR='ETAT A - SITU1',
                     MX=21.0,  MY=0.0,  MZ=0.0,),
                  _F(NUME_CHAR=2,
                     NOM_CHAR='ETAT B - SITU1',
                     MX=1.0,  MY=0.0,  MZ=0.0,),   
                  _F(NUME_CHAR=3,
                     NOM_CHAR='ETAT A - SITU2',
                     MX=1.0,  MY=0.0,  MZ=0.0,),
                  _F(NUME_CHAR=4,
                     NOM_CHAR='ETAT B - SITU2',
                     MX=61.0,  MY=0.0,  MZ=0.0,),),
                 RESU_THER= (_F(NUME_RESU_THER=1,
                            TABL_RESU_THER=T_THER, ), 
                            _F(NUME_RESU_THER=2,
                            TABL_RESU_THER=T_THER2, ), ),
                 SITUATION=(
                  _F(NB_OCCUR=1,
                     NUME_SITU=1,
                     NOM_SITU='Situation_1',
                     NUME_GROUPE=1,
                     NUME_RESU_THER = 1,
                     CHAR_ETAT_A=1,
                     CHAR_ETAT_B=2,
                     PRES_A=201,
                     PRES_B=1,
                      ),
                  _F(NB_OCCUR=1,
                     NUME_SITU=2,
                     NOM_SITU='Situation_2',
                     NUME_GROUPE=1,
                     NUME_RESU_THER = 2,
                     CHAR_ETAT_A=3,
                     CHAR_ETAT_B=4,
                     PRES_A=0,
                     PRES_B=0,
                        ),),);

IMPR_TABLE(  TABLE=FATc,
             );


#-------------------------------------------------------------------------------
#   TEST (SOLUTION DE REFERENCE ANALYTIQUE)
#   MEMES RESULTATS AVEC LES DEUX METHODES
#--------------------------------------------------------------------------------

# SN - SITUATIONS 1 ET 2
TEST_TABLE(REFERENCE='ANALYTIQUE',
           VALE_CALC=120.000000000,
           VALE_REFE=120.0,
           NOM_PARA='SN_MAX',
           TABLE=SN1,
           FILTRE=_F(NOM_PARA='LIEU',
                     VALE_K='ORIG',),
           )

TEST_TABLE(REFERENCE='ANALYTIQUE',
           VALE_CALC=120.000000000,
           VALE_REFE=120.0,
           NOM_PARA='SN_MAX',
           TABLE=SN1,
           FILTRE=_F(NOM_PARA='LIEU',
                     VALE_K='EXTR',),
           )

TEST_TABLE(REFERENCE='ANALYTIQUE',
           VALE_CALC=120.000000000,
           VALE_REFE=120.0,
           NOM_PARA='SN_MAX',
           TABLE=SN1b,
           FILTRE=_F(NOM_PARA='LIEU',
                     VALE_K='ORIG',),
           )

TEST_TABLE(REFERENCE='ANALYTIQUE',
           VALE_CALC=120.000000000,
           VALE_REFE=120.0,
           NOM_PARA='SN_MAX',
           TABLE=SN1b,
           FILTRE=_F(NOM_PARA='LIEU',
                     VALE_K='EXTR',),
           )

# SN2 - SITUATIONS 1 ET 2
TEST_TABLE(REFERENCE='ANALYTIQUE',
           VALE_CALC=210.000000000,
           VALE_REFE=210.0,
           NOM_PARA='SN_MAX',
           TABLE=SN2,
           FILTRE=_F(NOM_PARA='LIEU',
                     VALE_K='ORIG',),
           )

TEST_TABLE(REFERENCE='ANALYTIQUE',
           VALE_CALC=355.000000000,
           VALE_REFE=355.0,
           NOM_PARA='SN_MAX',
           TABLE=SN2,
           FILTRE=_F(NOM_PARA='LIEU',
                     VALE_K='EXTR',),
           )

TEST_TABLE(REFERENCE='ANALYTIQUE',
           VALE_CALC=210.000000000,
           VALE_REFE=210.0,
           NOM_PARA='SN_MAX',
           TABLE=SN2b,
           FILTRE=_F(NOM_PARA='LIEU',
                     VALE_K='ORIG',),
           )

TEST_TABLE(REFERENCE='ANALYTIQUE',
           VALE_CALC=355.000000000,
           VALE_REFE=355.0,
           NOM_PARA='SN_MAX',
           TABLE=SN2b,
           FILTRE=_F(NOM_PARA='LIEU',
                     VALE_K='EXTR',),
           )
#--------------------------------------
# FATa - COMBINAISON DES SITUATIONS 1 ET 2
# AVEC LA METHODE TRESCA
#--------------------------------------
TEST_TABLE(REFERENCE='ANALYTIQUE',
           VALE_CALC=235.500000000,
           VALE_REFE=235.5,
           NOM_PARA='SN_MAX',
           TABLE=FAT,
           FILTRE=_F(NOM_PARA='LIEU',
                     VALE_K='ORIG',),
           )

TEST_TABLE(REFERENCE='ANALYTIQUE',
           VALE_CALC=375.500000000,
           VALE_REFE=375.5,
           NOM_PARA='SN_MAX',
           TABLE=FAT,
           FILTRE=_F(NOM_PARA='LIEU',
                     VALE_K='EXTR',),
           )
#--------------------------------------
# FATb AVEC LA METHODE TOUT_INST
#--------------------------------------
#SN_MAX
TEST_TABLE(REFERENCE='ANALYTIQUE',
           VALE_CALC=235.500000000,
           VALE_REFE=235.5,
           NOM_PARA='SN_MAX',
           TABLE=FATb,
           FILTRE=_F(NOM_PARA='LIEU',
                     VALE_K='ORIG',),
           )

TEST_TABLE(REFERENCE='ANALYTIQUE',
           VALE_CALC=375.500000000,
           VALE_REFE=375.5,
           NOM_PARA='SN_MAX',
           TABLE=FATb,
           FILTRE=_F(NOM_PARA='LIEU',
                     VALE_K='EXTR',),
           )

#SP_MAX
TEST_TABLE(REFERENCE='ANALYTIQUE',
           VALE_CALC=240.500000000,
           VALE_REFE=240.5,
           NOM_PARA='SP_MAX',
           TABLE=FATb,
           FILTRE=_F(NOM_PARA='LIEU',
                     VALE_K='ORIG',),
           )

TEST_TABLE(REFERENCE='ANALYTIQUE',
           VALE_CALC=350.500000000,
           VALE_REFE=350.5,
           NOM_PARA='SP_MAX',
           TABLE=FATb,
           FILTRE=_F(NOM_PARA='LIEU',
                     VALE_K='EXTR',),
           )

#SALT_MAX
TEST_TABLE(REFERENCE='ANALYTIQUE',
           VALE_CALC=120.250000000,
           VALE_REFE=120.25,
           NOM_PARA='SALT_MAX',
           TABLE=FATb,
           FILTRE=_F(NOM_PARA='LIEU',
                     VALE_K='ORIG',),
           )

TEST_TABLE(REFERENCE='ANALYTIQUE',
           VALE_CALC=175.250000000,
           VALE_REFE=175.25,
           NOM_PARA='SALT_MAX',
           TABLE=FATb,
           FILTRE=_F(NOM_PARA='LIEU',
                     VALE_K='EXTR',),
           )

#INSTANTS de SP
TEST_TABLE(REFERENCE='ANALYTIQUE',
           VALE_CALC=1.50000000,
           VALE_REFE=1.5,
           NOM_PARA='INST_SP_1',
           TABLE=FATb,
           FILTRE=(_F(NOM_PARA='LIEU',
                     VALE_K='EXTR',),
                   _F(NOM_PARA='TYPE',
                     VALE_K='FACT',),
                   _F(NOM_PARA='NOM_SIT1',
                     VALE_K='FICTIF_1',),
                   )
           )

TEST_TABLE(REFERENCE='ANALYTIQUE',
           VALE_CALC=3.00000000,
           VALE_REFE=3.0,
           NOM_PARA='INST_SP_2',
           TABLE=FATb,
           FILTRE=(_F(NOM_PARA='LIEU',
                     VALE_K='EXTR',),
                   _F(NOM_PARA='TYPE',
                     VALE_K='FACT',),
                   _F(NOM_PARA='NOM_SIT1',
                     VALE_K='FICTIF_1',),
                   )
           )

#INSTANTS de SN
TEST_TABLE(REFERENCE='ANALYTIQUE',
           VALE_CALC=4.50000000,
           VALE_REFE=4.5,
           NOM_PARA='INST_SN_1',
           TABLE=FATb,
           FILTRE=(_F(NOM_PARA='LIEU',
                     VALE_K='ORIG',),
                   _F(NOM_PARA='TYPE',
                     VALE_K='FACT',),
                   _F(NOM_PARA='NOM_SIT1',
                     VALE_K='Situation_1',),
                   )
           )

TEST_TABLE(REFERENCE='ANALYTIQUE',
           VALE_CALC=1.00000000,
           VALE_REFE=1.0,
           NOM_PARA='INST_SN_2',
           TABLE=FATb,
           FILTRE=(_F(NOM_PARA='LIEU',
                     VALE_K='ORIG',),
                   _F(NOM_PARA='TYPE',
                     VALE_K='FACT',),
                   _F(NOM_PARA='NOM_SIT1',
                     VALE_K='Situation_1',),
                   )
           )

TEST_TABLE(REFERENCE='ANALYTIQUE',
           VALE_CALC=1.50000000,
           VALE_REFE=1.5,
           NOM_PARA='INST_SN_1',
           TABLE=FATb,
           FILTRE=(_F(NOM_PARA='LIEU',
                     VALE_K='EXTR',),
                   _F(NOM_PARA='TYPE',
                     VALE_K='FACT',),
                   _F(NOM_PARA='NOM_SIT1',
                     VALE_K='Situation_1',),
                   )
           )

TEST_TABLE(REFERENCE='ANALYTIQUE',
           VALE_CALC=3.00000000,
           VALE_REFE=3.0,
           NOM_PARA='INST_SN_2',
           TABLE=FATb,
           FILTRE=(_F(NOM_PARA='LIEU',
                     VALE_K='EXTR',),
                   _F(NOM_PARA='TYPE',
                     VALE_K='FACT',),
                   _F(NOM_PARA='NOM_SIT1',
                     VALE_K='Situation_1',),
                   )
           )

#FU PARTIEL, FU UNIT et N_OCC_pris
TEST_TABLE(REFERENCE='ANALYTIQUE',
           VALE_CALC=0.000340989505247,
           VALE_REFE=0.000340989505247,
           NOM_PARA='FU_PARTIEL',
           TABLE=FATb,
           FILTRE=(_F(NOM_PARA='LIEU',
                     VALE_K='ORIG',),
                   _F(NOM_PARA='TYPE',
                     VALE_K='FACT',),
                   _F(NOM_PARA='NOM_SIT1',
                     VALE_K='Situation_1',),
                   )
           )

TEST_TABLE(REFERENCE='ANALYTIQUE',
           VALE_CALC=0.000540993949838,
           VALE_REFE=0.000540993949838,
           NOM_PARA='FU_PARTIEL',
           TABLE=FATb,
           FILTRE=(_F(NOM_PARA='LIEU',
                     VALE_K='EXTR',),
                   _F(NOM_PARA='TYPE',
                     VALE_K='FACT',),
                   _F(NOM_PARA='NOM_SIT1',
                     VALE_K='Situation_1',),
                   )
           )

TEST_TABLE(REFERENCE='ANALYTIQUE',
           VALE_CALC=0.000340989505247,
           VALE_REFE=0.000340989505247,
           NOM_PARA='FU_UNIT',
           TABLE=FATb,
           FILTRE=(_F(NOM_PARA='LIEU',
                     VALE_K='ORIG',),
                   _F(NOM_PARA='TYPE',
                     VALE_K='FACT',),
                   _F(NOM_PARA='NOM_SIT1',
                     VALE_K='Situation_1',),
                   )
           )

TEST_TABLE(REFERENCE='ANALYTIQUE',
           VALE_CALC=0.000540993949838,
           VALE_REFE=0.000540993949838,
           NOM_PARA='FU_UNIT',
           TABLE=FATb,
           FILTRE=(_F(NOM_PARA='LIEU',
                     VALE_K='EXTR',),
                   _F(NOM_PARA='TYPE',
                     VALE_K='FACT',),
                   _F(NOM_PARA='NOM_SIT1',
                     VALE_K='Situation_1',),
                   )
           )

TEST_TABLE(REFERENCE='ANALYTIQUE',
           VALE_CALC_I=1,
           VALE_REFE_I=1,
           NOM_PARA='N_OCC_pris',
           TABLE=FATb,
           FILTRE=(_F(NOM_PARA='LIEU',
                     VALE_K='ORIG',),
                   _F(NOM_PARA='TYPE',
                     VALE_K='FACT',),
                   _F(NOM_PARA='NOM_SIT1',
                     VALE_K='Situation_1',),
                   )
           )

TEST_TABLE(REFERENCE='ANALYTIQUE',
           VALE_CALC_I=1,
           VALE_REFE_I=1,
           NOM_PARA='N_OCC_pris',
           TABLE=FATb,
           FILTRE=(_F(NOM_PARA='LIEU',
                     VALE_K='EXTR',),
                   _F(NOM_PARA='TYPE',
                     VALE_K='FACT',),
                   _F(NOM_PARA='NOM_SIT1',
                     VALE_K='Situation_1',),
                   )
           )
#------------------------------------------------------------
# FATc avec TYPE_RESU= 'SYSTUS' et AVEC LA METHODE TOUT_INST
#------------------------------------------------------------
#INSTANTS de SP
TEST_TABLE(REFERENCE='ANALYTIQUE',
           VALE_CALC=1.50000000,
           VALE_REFE=1.5,
           NOM_PARA='INST_SP_1',
           TABLE=FATc,
           FILTRE=(_F(NOM_PARA='LIEU',
                     VALE_K='EXTR',),
                   _F(NOM_PARA='TYPE',
                     VALE_K='FACT',),
                   _F(NOM_PARA='NOM_SIT1',
                     VALE_K='FICTIF_1',),
                   )
           )

TEST_TABLE(REFERENCE='ANALYTIQUE',
           VALE_CALC=3.00000000,
           VALE_REFE=3.0,
           NOM_PARA='INST_SP_2',
           TABLE=FATc,
           FILTRE=(_F(NOM_PARA='LIEU',
                     VALE_K='EXTR',),
                   _F(NOM_PARA='TYPE',
                     VALE_K='FACT',),
                   _F(NOM_PARA='NOM_SIT1',
                     VALE_K='FICTIF_1',),
                   )
           )

#INSTANTS de SN
TEST_TABLE(REFERENCE='ANALYTIQUE',
           VALE_CALC=4.50000000,
           VALE_REFE=4.5,
           NOM_PARA='INST_SN_1',
           TABLE=FATc,
           FILTRE=(_F(NOM_PARA='LIEU',
                     VALE_K='ORIG',),
                   _F(NOM_PARA='TYPE',
                     VALE_K='FACT',),
                   _F(NOM_PARA='NOM_SIT1',
                     VALE_K='Situation_1',),
                   )
           )

TEST_TABLE(REFERENCE='ANALYTIQUE',
           VALE_CALC=1.00000000,
           VALE_REFE=1.0,
           NOM_PARA='INST_SN_2',
           TABLE=FATc,
           FILTRE=(_F(NOM_PARA='LIEU',
                     VALE_K='ORIG',),
                   _F(NOM_PARA='TYPE',
                     VALE_K='FACT',),
                   _F(NOM_PARA='NOM_SIT1',
                     VALE_K='Situation_1',),
                   )
           )

TEST_TABLE(REFERENCE='ANALYTIQUE',
           VALE_CALC=1.50000000,
           VALE_REFE=1.5,
           NOM_PARA='INST_SN_1',
           TABLE=FATc,
           FILTRE=(_F(NOM_PARA='LIEU',
                     VALE_K='EXTR',),
                   _F(NOM_PARA='TYPE',
                     VALE_K='FACT',),
                   _F(NOM_PARA='NOM_SIT1',
                     VALE_K='Situation_1',),
                   )
           )

TEST_TABLE(REFERENCE='ANALYTIQUE',
           VALE_CALC=3.00000000,
           VALE_REFE=3.0,
           NOM_PARA='INST_SN_2',
           TABLE=FATc,
           FILTRE=(_F(NOM_PARA='LIEU',
                     VALE_K='EXTR',),
                   _F(NOM_PARA='TYPE',
                     VALE_K='FACT',),
                   _F(NOM_PARA='NOM_SIT1',
                     VALE_K='Situation_1',),
                   )
           )

#FU PARTIEL, FU UNIT et N_OCC_pris
TEST_TABLE(REFERENCE='ANALYTIQUE',
           VALE_CALC=0.000340989505247,
           VALE_REFE=0.000340989505247,
           NOM_PARA='FU_PARTIEL',
           TABLE=FATc,
           FILTRE=(_F(NOM_PARA='LIEU',
                     VALE_K='ORIG',),
                   _F(NOM_PARA='TYPE',
                     VALE_K='FACT',),
                   _F(NOM_PARA='NOM_SIT1',
                     VALE_K='Situation_1',),
                   )
           )

TEST_TABLE(REFERENCE='ANALYTIQUE',
           VALE_CALC=0.000540993949838,
           VALE_REFE=0.000540993949838,
           NOM_PARA='FU_PARTIEL',
           TABLE=FATc,
           FILTRE=(_F(NOM_PARA='LIEU',
                     VALE_K='EXTR',),
                   _F(NOM_PARA='TYPE',
                     VALE_K='FACT',),
                   _F(NOM_PARA='NOM_SIT1',
                     VALE_K='Situation_1',),
                   )
           )

TEST_TABLE(REFERENCE='ANALYTIQUE',
           VALE_CALC=0.000340989505247,
           VALE_REFE=0.000340989505247,
           NOM_PARA='FU_UNIT',
           TABLE=FATc,
           FILTRE=(_F(NOM_PARA='LIEU',
                     VALE_K='ORIG',),
                   _F(NOM_PARA='TYPE',
                     VALE_K='FACT',),
                   _F(NOM_PARA='NOM_SIT1',
                     VALE_K='Situation_1',),
                   )
           )

TEST_TABLE(REFERENCE='ANALYTIQUE',
           VALE_CALC=0.000540993949838,
           VALE_REFE=0.000540993949838,
           NOM_PARA='FU_UNIT',
           TABLE=FATc,
           FILTRE=(_F(NOM_PARA='LIEU',
                     VALE_K='EXTR',),
                   _F(NOM_PARA='TYPE',
                     VALE_K='FACT',),
                   _F(NOM_PARA='NOM_SIT1',
                     VALE_K='Situation_1',),
                   )
           )

TEST_TABLE(REFERENCE='ANALYTIQUE',
           VALE_CALC_I=1,
           VALE_REFE_I=1,
           NOM_PARA='N_OCC_pris',
           TABLE=FATc,
           FILTRE=(_F(NOM_PARA='LIEU',
                     VALE_K='ORIG',),
                   _F(NOM_PARA='TYPE',
                     VALE_K='FACT',),
                   _F(NOM_PARA='NOM_SIT1',
                     VALE_K='Situation_1',),
                   )
           )

TEST_TABLE(REFERENCE='ANALYTIQUE',
           VALE_CALC_I=1,
           VALE_REFE_I=1,
           NOM_PARA='N_OCC_pris',
           TABLE=FATc,
           FILTRE=(_F(NOM_PARA='LIEU',
                     VALE_K='EXTR',),
                   _F(NOM_PARA='TYPE',
                     VALE_K='FACT',),
                   _F(NOM_PARA='NOM_SIT1',
                     VALE_K='Situation_1',),
                   )
           )

#FU PARTIEL TOTAL
TEST_TABLE(REFERENCE='ANALYTIQUE',
           VALE_CALC=0.000340989505247,
           VALE_REFE=0.000340989505247,
           NOM_PARA='FU_PARTIEL',
           TABLE=FATc,
           FILTRE=(_F(NOM_PARA='LIEU',
                     VALE_K='ORIG',),
                   _F(NOM_PARA='TYPE',
                     VALE_K='TOTAL',),
                   )
           )

TEST_TABLE(REFERENCE='ANALYTIQUE',
           VALE_CALC=0.000540993949838,
           VALE_REFE=0.000540993949838,
           NOM_PARA='FU_PARTIEL',
           TABLE=FATc,
           FILTRE=(_F(NOM_PARA='LIEU',
                     VALE_K='EXTR',),
                   _F(NOM_PARA='TYPE',
                     VALE_K='TOTAL',),
                   )
           )
FIN();
