# MODIF  DATE 30/07/2012   AUTEUR LEFEBVRE J-P.LEFEBVRE 
# TITRE VALIDATION DE L'OPERATEUR POST_RCCM / option = 'AMORCAGE'
# rccm09a.para = tps_job 60 mem_job 256Mo ncpus 1 liste_test R
#            CONFIGURATION MANAGEMENT OF EDF VERSION
# ======================================================================
# COPYRIGHT (C) 1991 - 2012  EDF R&D                  WWW.CODE-ASTER.ORG
# THIS PROGRAM IS FREE SOFTWARE; YOU CAN REDISTRIBUTE IT AND/OR MODIFY
# IT UNDER THE TERMS OF THE GNU GENERAL PUBLIC LICENSE AS PUBLISHED BY
# THE FREE SOFTWARE FOUNDATION; EITHER VERSION 2 OF THE LICENSE, OR
# (AT YOUR OPTION) ANY LATER VERSION.
#
# THIS PROGRAM IS DISTRIBUTED IN THE HOPE THAT IT WILL BE USEFUL, BUT
# WITHOUT ANY WARRANTY; WITHOUT EVEN THE IMPLIED WARRANTY OF
# MERCHANTABILITY OR FITNESS FOR A PARTICULAR PURPOSE. SEE THE GNU
# GENERAL PUBLIC LICENSE FOR MORE DETAILS.
#
# YOU SHOULD HAVE RECEIVED A COPY OF THE GNU GENERAL PUBLIC LICENSE
# ALONG WITH THIS PROGRAM; IF NOT, WRITE TO EDF R&D CODE_ASTER,
#    1 AVENUE DU GENERAL DE GAULLE, 92141 CLAMART CEDEX, FRANCE.
# ======================================================================

DEBUT(CODE=_F(NOM='RCCM09A',NIV_PUB_WEB='INTERNET'),DEBUG=_F(SDVERI='OUI'))

MAT=DEFI_MATERIAU(  RCCM=_F(  A_AMORC = 7091. ,
                              B_AMORC =   -0.1823 ,
                              D_AMORC =    1. ,
                              R_AMORC =    1.63 ,)
                               )


T_RESU1 = LIRE_TABLE (UNITE=35, FORMAT='ASTER',SEPARATEUR=' ',
                      NUME_TABLE=1,)

T_RESU2 = LIRE_TABLE (UNITE=35, FORMAT='ASTER',SEPARATEUR=' ',
                      NUME_TABLE=2,)

#--------------------------------------------------------------------------------
#   option = 'AMORCAGE'
#   chargement mecanique
#--------------------------------------------------------------------------------

AMOR_1=POST_RCCM(TYPE_RESU_MECA='EVOLUTION',
                        OPTION='AMORCAGE',
                     TYPE_RESU='VALE_MAX',
                         MATER=MAT,
                          INFO=2,
                         TITRE='FACTEUR AMORCAGE, RESULTAT: RESU1 - RESU2',
                   TRANSITOIRE=(_F(  TABL_SIGM_THETA = T_RESU1,
                                     NB_OCCUR = 1 ),
                                _F(  TABL_SIGM_THETA = T_RESU2,
                                     NB_OCCUR = 1 ),)
              )

IMPR_TABLE ( TABLE = AMOR_1 )

TEST_TABLE(  TABLE=AMOR_1,
             FILTRE=_F(  NOM_PARA = 'THETA',
                           VALE   = 10.   ),
             REFERENCE='ANALYTIQUE',
             NOM_PARA='FACT_AMORCAGE',
             VALE= 1.7482441E-10     )

AMOR_2=POST_RCCM(TYPE_RESU_MECA='EVOLUTION',
                        OPTION='AMORCAGE',
                     TYPE_RESU='VALE_MAX',
                         MATER=MAT,
                         TITRE='FACTEUR AMORCAGE, RESULTAT: RESU1 - RESU2',
                   TRANSITOIRE=(_F(  TABL_SIGM_THETA = T_RESU1,
                                     NB_OCCUR = 2 ),
                                _F(  TABL_SIGM_THETA = T_RESU2,
                                     NB_OCCUR = 1 ),)
              )

IMPR_TABLE ( TABLE = AMOR_2 )

TEST_TABLE(  TABLE=AMOR_2,
             FILTRE=_F(  NOM_PARA = 'THETA',
                           VALE   = 10.   ),
             REFERENCE='ANALYTIQUE',
             NOM_PARA='FACT_AMORCAGE',
             VALE= 2.452956E-10    )
             
AMOR_3=POST_RCCM(TYPE_RESU_MECA='EVOLUTION',
                        OPTION='AMORCAGE',
                     TYPE_RESU='VALE_MAX',
                     INFO=2,
                         MATER=MAT,
                         TITRE='FACTEUR AMORCAGE, RESULTAT: RESU1 - RESU2',
                   TRANSITOIRE=(_F(  TABL_SIGM_THETA = T_RESU1,
                                     NB_OCCUR = 1 ),
                                _F(  TABL_SIGM_THETA = T_RESU2,
                                     NB_OCCUR = 3 ),)
              )

IMPR_TABLE ( TABLE = AMOR_3 )

TEST_TABLE(  TABLE=AMOR_3,
             FILTRE=_F(  NOM_PARA = 'THETA',
                           VALE   = 10.   ),
             REFERENCE='ANALYTIQUE',
             NOM_PARA='FACT_AMORCAGE',
             VALE= 3.6791345E-10    )             
FIN( )
