# TITRE VALIDATION DE L'OPERATEUR POST_RCCM / option = 'AMORCAGE'
# ======================================================================
# COPYRIGHT (C) 1991 - 2012  EDF R&D                  WWW.CODE-ASTER.ORG
# THIS PROGRAM IS FREE SOFTWARE; YOU CAN REDISTRIBUTE IT AND/OR MODIFY
# IT UNDER THE TERMS OF THE GNU GENERAL PUBLIC LICENSE AS PUBLISHED BY
# THE FREE SOFTWARE FOUNDATION; EITHER VERSION 2 OF THE LICENSE, OR
# (AT YOUR OPTION) ANY LATER VERSION.
#
# THIS PROGRAM IS DISTRIBUTED IN THE HOPE THAT IT WILL BE USEFUL, BUT
# WITHOUT ANY WARRANTY; WITHOUT EVEN THE IMPLIED WARRANTY OF
# MERCHANTABILITY OR FITNESS FOR A PARTICULAR PURPOSE. SEE THE GNU
# GENERAL PUBLIC LICENSE FOR MORE DETAILS.
#
# YOU SHOULD HAVE RECEIVED A COPY OF THE GNU GENERAL PUBLIC LICENSE
# ALONG WITH THIS PROGRAM; IF NOT, WRITE TO EDF R&D CODE_ASTER,
#    1 AVENUE DU GENERAL DE GAULLE, 92141 CLAMART CEDEX, FRANCE.
# ======================================================================

DEBUT(CODE=_F(NOM='RCCM09A',NIV_PUB_WEB='INTERNET'),DEBUG=_F(SDVERI='OUI'))

MAT=DEFI_MATERIAU(  RCCM=_F(  A_AMORC = 7091. ,
                              B_AMORC =   -0.1823 ,
                              D_AMORC =    1. ,
                              R_AMORC =    1.63 ,)
                               )


T_RESU1 = LIRE_TABLE (UNITE=35, FORMAT='ASTER',SEPARATEUR=' ',
                      NUME_TABLE=1,)

T_RESU2 = LIRE_TABLE (UNITE=35, FORMAT='ASTER',SEPARATEUR=' ',
                      NUME_TABLE=2,)

#--------------------------------------------------------------------------------
#   option = 'AMORCAGE'
#   chargement mecanique
#--------------------------------------------------------------------------------

AMOR_1=POST_RCCM(TYPE_RESU_MECA='EVOLUTION',
                        OPTION='AMORCAGE',
                     TYPE_RESU='VALE_MAX',
                         MATER=MAT,
                          INFO=2,
                         TITRE='FACTEUR AMORCAGE, RESULTAT: RESU1 - RESU2',
                   TRANSITOIRE=(_F(  TABL_SIGM_THETA = T_RESU1,
                                     NB_OCCUR = 1 ),
                                _F(  TABL_SIGM_THETA = T_RESU2,
                                     NB_OCCUR = 1 ),)
              )

IMPR_TABLE ( TABLE = AMOR_1 )

TEST_TABLE(REFERENCE='ANALYTIQUE',
           VALE_CALC= 1.74824406E-10,
           VALE_REFE=1.7482441E-10,
           NOM_PARA='FACT_AMORCAGE',
           TABLE=AMOR_1,
           FILTRE=_F(NOM_PARA='THETA',
                     VALE=10.0,),
           )

AMOR_2=POST_RCCM(TYPE_RESU_MECA='EVOLUTION',
                        OPTION='AMORCAGE',
                     TYPE_RESU='VALE_MAX',
                         MATER=MAT,
                         TITRE='FACTEUR AMORCAGE, RESULTAT: RESU1 - RESU2',
                   TRANSITOIRE=(_F(  TABL_SIGM_THETA = T_RESU1,
                                     NB_OCCUR = 2 ),
                                _F(  TABL_SIGM_THETA = T_RESU2,
                                     NB_OCCUR = 1 ),)
              )

IMPR_TABLE ( TABLE = AMOR_2 )

TEST_TABLE(REFERENCE='ANALYTIQUE',
           VALE_CALC= 2.45295595E-10,
           VALE_REFE=2.4529560000000001E-10,
           NOM_PARA='FACT_AMORCAGE',
           TABLE=AMOR_2,
           FILTRE=_F(NOM_PARA='THETA',
                     VALE=10.0,),
           )

AMOR_3=POST_RCCM(TYPE_RESU_MECA='EVOLUTION',
                        OPTION='AMORCAGE',
                     TYPE_RESU='VALE_MAX',
                     INFO=2,
                         MATER=MAT,
                         TITRE='FACTEUR AMORCAGE, RESULTAT: RESU1 - RESU2',
                   TRANSITOIRE=(_F(  TABL_SIGM_THETA = T_RESU1,
                                     NB_OCCUR = 1 ),
                                _F(  TABL_SIGM_THETA = T_RESU2,
                                     NB_OCCUR = 3 ),)
              )

IMPR_TABLE ( TABLE = AMOR_3 )

TEST_TABLE(REFERENCE='ANALYTIQUE',
           VALE_CALC= 3.67913445E-10,
           VALE_REFE=3.6791344999999999E-10,
           NOM_PARA='FACT_AMORCAGE',
           TABLE=AMOR_3,
           FILTRE=_F(NOM_PARA='THETA',
                     VALE=10.0,),
           )

FIN( )
