# TITRE VALIDATION DE L'OPERATEUR POST_RCCM / B3200_T
# ======================================================================
# COPYRIGHT (C) 1991 - 2015  EDF R&D                  WWW.CODE-ASTER.ORG
# THIS PROGRAM IS FREE SOFTWARE; YOU CAN REDISTRIBUTE IT AND/OR MODIFY
# IT UNDER THE TERMS OF THE GNU GENERAL PUBLIC LICENSE AS PUBLISHED BY
# THE FREE SOFTWARE FOUNDATION; EITHER VERSION 2 OF THE LICENSE, OR
# (AT YOUR OPTION) ANY LATER VERSION.
#
# THIS PROGRAM IS DISTRIBUTED IN THE HOPE THAT IT WILL BE USEFUL, BUT
# WITHOUT ANY WARRANTY; WITHOUT EVEN THE IMPLIED WARRANTY OF
# MERCHANTABILITY OR FITNESS FOR A PARTICULAR PURPOSE. SEE THE GNU
# GENERAL PUBLIC LICENSE FOR MORE DETAILS.
#
# YOU SHOULD HAVE RECEIVED A COPY OF THE GNU GENERAL PUBLIC LICENSE
# ALONG WITH THIS PROGRAM; IF NOT, WRITE TO EDF R&D CODE_ASTER,
#    1 AVENUE DU GENERAL DE GAULLE, 92141 CLAMART CEDEX, FRANCE.
# ======================================================================


DEBUT(CODE=_F(NIV_PUB_WEB='INTERNET'), DEBUG=_F(SDVERI='OUI'))


COURFATA = FORMULE(NOM_PARA='SIGM',VALE='5.E5/SIGM ')

L_INST=DEFI_LIST_REEL(  DEBUT=1.,
                        INTERVALLE=_F(  JUSQU_A = 1000., PAS = 1.) )
                           
FWOHLER=CALC_FONC_INTERP( FONCTION=COURFATA, LIST_PARA=L_INST,
                          NOM_PARA = 'SIGM',PROL_DROITE='LINEAIRE',
                          PROL_GAUCHE='CONSTANT',
                          NOM_RESU='NADM'       )

MAT=DEFI_MATERIAU(  ELAS=_F( E = 200000.,  NU = 0.3,  ALPHA = 1.0E-5),
                    FATIGUE=_F(  WOHLER = FWOHLER, E_REFE = 200000.),
                    RCCM=_F(  M_KE = 2.,
                              N_KE = 0.2,
                              SM = 2000.,
                              SY_02 = 200.)
                               )

#  CONTRAINTES THERMIQUES (SITUATION 1)                 
T_THER = LIRE_TABLE (UNITE=35, FORMAT='ASTER',SEPARATEUR=' ',
                      NUME_TABLE=1,)

#  CONTRAINTES DE PRESSION (SITUATION 1)                 
T_PRES = LIRE_TABLE (UNITE=35, FORMAT='ASTER',SEPARATEUR=' ',
                      NUME_TABLE=2,)

#  CONTRAINTES MECANIQUES (SITUATION 1)                 
T_MEC = LIRE_TABLE (UNITE=35, FORMAT='ASTER',SEPARATEUR=' ',
                      NUME_TABLE=3,)

#  TEMPERATURE (SITUATION 1)                 
T_TEMP = LIRE_TABLE (UNITE=35, FORMAT='ASTER',SEPARATEUR=' ',
                      NUME_TABLE=7,)

#  CONTRAINTES THERMIQUES (SITUATION 2)                 
T_THER2 = LIRE_TABLE (UNITE=35, FORMAT='ASTER',SEPARATEUR=' ',
                      NUME_TABLE=4,)

#  CONTRAINTES DE PRESSION (SITUATION 2)                 
T_PRES2 = LIRE_TABLE (UNITE=35, FORMAT='ASTER',SEPARATEUR=' ',
                      NUME_TABLE=5,)

#  CONTRAINTES MECANIQUES (SITUATION 2)                 
T_MEC2 = LIRE_TABLE (UNITE=35, FORMAT='ASTER',SEPARATEUR=' ',
                      NUME_TABLE=6,)

#  TEMPERATURE (SITUATION 2)                 
T_TEMP2 = LIRE_TABLE (UNITE=35, FORMAT='ASTER',SEPARATEUR=' ',
                      NUME_TABLE=8,)

#  MODULE D'YOUNG FONCTION DE LA TEMPERATURE                
T_YOUNG = LIRE_TABLE (UNITE=35, FORMAT='ASTER',SEPARATEUR=' ',
                      NUME_TABLE=9,)
     
# VALIDATION DU CALCUL DE SN AVEC CONTRAINTES THERMIQUES, DE PRESSION ET MECANIQUES
SN1 = POST_RCCM( MATER=MAT,
                 TYPE_RESU='DETAILS',
                 TYPE_RESU_MECA='B3200_T',
                 OPTION='SN',
                 INFO=2,
                 TYPE_KE='KE_MECA', 
                 RESU_THER= (_F(NUME_RESU_THER=1,
                            TABL_RESU_THER=T_THER, ), 
                            _F(NUME_RESU_THER=2,
                            TABL_RESU_THER=T_THER2, ), ),
                 RESU_PRES= (_F(NUME_RESU_PRES=1,
                            TABL_RESU_PRES=T_PRES, ), 
                            _F(NUME_RESU_PRES=2,
                            TABL_RESU_PRES=T_PRES2, ), ),
                 RESU_MECA= (_F(NUME_RESU_MECA=1,
                            TABL_RESU_MECA=T_MEC, ), 
                            _F(NUME_RESU_MECA=2,
                            TABL_RESU_MECA=T_MEC2, ), ),
                 SITUATION=(
                  _F(NB_OCCUR=1,
                     NUME_SITU=1,
                     NOM_SITU='Situation 1',
                     NUME_GROUPE=1,
                     NUME_RESU_THER = 1,
                     NUME_RESU_PRES = 1,
                     NUME_RESU_MECA = 1,
                      ),
                  _F(NB_OCCUR=1,
                     NUME_SITU=2,
                     NOM_SITU='Situation 2',
                     NUME_GROUPE=1,
                     NUME_RESU_THER = 2,
                     NUME_RESU_PRES = 2,
                     NUME_RESU_MECA = 2,
                        ),),);

IMPR_TABLE(    TABLE=SN1,)

# VALIDATION DU CALCUL DE EFAT AVEC EFFET D'ENVIRONNEMENT 
FAT = POST_RCCM( MATER=MAT,
                 TYPE_RESU='DETAILS',
                 TYPE_RESU_MECA='B3200_T',
                 OPTION='EFAT',
                 INFO=2,
                 TYPE_KE='KE_MECA',
                 FACT_SIGM=(_F(KT_SN=2,
                              KT_SP=3,),), 
                 RESU_THER= (_F(NUME_RESU_THER=1,
                            TABL_RESU_THER=T_THER, ), 
                            _F(NUME_RESU_THER=2,
                            TABL_RESU_THER=T_THER2, ), ),
                 RESU_PRES= (_F(NUME_RESU_PRES=1,
                            TABL_RESU_PRES=T_PRES, ), 
                            _F(NUME_RESU_PRES=2,
                            TABL_RESU_PRES=T_PRES2, ), ),
                 RESU_MECA= (_F(NUME_RESU_MECA=1,
                            TABL_RESU_MECA=T_MEC, ), 
                            _F(NUME_RESU_MECA=2,
                            TABL_RESU_MECA=T_MEC2, ), ),
                 ENVIRONNEMENT=(_F(
                     TABL_YOUNG       =T_YOUNG,
                     FEN_INTEGRE      =50.0,
                     CRIT_EPSI        =0.01,
                     S_ETOILE         =1.0,
                     SEUIL_EPSI_INF   =1.0,
                     SEUIL_EPSI_SUP   =2.0,
                     A_ENV            =0.0,
                     B_ENV            =1.0,
                     C_ENV            =0.0,
                     SEUIL_T_INF      =100.0,
                     SEUIL_T_SUP      =250.0,
                     VALE_T_INF        =50.0,
                     VALE_T_SUP        =300.0,
                     VALE_T_MOY_NUM    =40.0,
                     VALE_T_MOY_DEN    =50.0,
                    ),),
                 SITUATION=(
                  _F(NB_OCCUR=1,
                     NUME_SITU=1,
                     NOM_SITU='Situation 1',
                     NUME_GROUPE=1,
                     NUME_RESU_THER = 1,
                     NUME_RESU_PRES = 1,
                     NUME_RESU_MECA = 1,
                     O_ETOILE         =1.0,
                     TABL_TEMP        =T_TEMP,
                      ),
                  _F(NB_OCCUR=1,
                     NUME_SITU=2,
                     NOM_SITU='Situation 2',
                     NUME_GROUPE=1,
                     NUME_RESU_THER = 2,
                     NUME_RESU_PRES = 2,
                     NUME_RESU_MECA = 2,
                     O_ETOILE         =1.0,
                     TABL_TEMP        =T_TEMP2,
                        ),),);

IMPR_TABLE(    TABLE=FAT,)   

#-------------------------------------------------------------------------------
#   TEST (SOLUTION DE REFERENCE ANALYTIQUE)
#--------------------------------------------------------------------------------

# SN1 - SITUATIONS 1, 2
TEST_TABLE(REFERENCE='ANALYTIQUE',
           VALE_CALC=95.000000000,
           VALE_REFE=95.0,
           NOM_PARA='SN_MAX',
           TABLE=SN1,
           FILTRE=_F(NOM_PARA='LIEU',
                     VALE_K='ORIG',),
           )

TEST_TABLE(REFERENCE='ANALYTIQUE',
           VALE_CALC=235.000000000,
           VALE_REFE=235.0,
           NOM_PARA='SN_MAX',
           TABLE=SN1,
           FILTRE=_F(NOM_PARA='LIEU',
                     VALE_K='EXTR',),
           )

# FAT - SITUATIONS 1, 2
TEST_TABLE(REFERENCE='ANALYTIQUE',
           VALE_CALC=0.108818820412,
           VALE_REFE=0.1088,
           NOM_PARA='FACT_ENV',
           TABLE=FAT,
           FILTRE=_F(NOM_PARA='LIEU',
                     VALE_K='ORIG',),
           )

FIN();
