# MODIF  DATE 17/01/2012   AUTEUR SELLENET N.SELLENET 
# TITRE VALIDATION DE L'OPERATEUR POST_RCCM / UNITAIRE
# rccm01b.para = tps_job 60 mem_job 32Mo ncpus 1 liste_test R
#            CONFIGURATION MANAGEMENT OF EDF VERSION
# ======================================================================
# COPYRIGHT (C) 1991 - 2012  EDF R&D                  WWW.CODE-ASTER.ORG
# THIS PROGRAM IS FREE SOFTWARE; YOU CAN REDISTRIBUTE IT AND/OR MODIFY
# IT UNDER THE TERMS OF THE GNU GENERAL PUBLIC LICENSE AS PUBLISHED BY
# THE FREE SOFTWARE FOUNDATION; EITHER VERSION 2 OF THE LICENSE, OR
# (AT YOUR OPTION) ANY LATER VERSION.
#
# THIS PROGRAM IS DISTRIBUTED IN THE HOPE THAT IT WILL BE USEFUL, BUT
# WITHOUT ANY WARRANTY; WITHOUT EVEN THE IMPLIED WARRANTY OF
# MERCHANTABILITY OR FITNESS FOR A PARTICULAR PURPOSE. SEE THE GNU
# GENERAL PUBLIC LICENSE FOR MORE DETAILS.
#
# YOU SHOULD HAVE RECEIVED A COPY OF THE GNU GENERAL PUBLIC LICENSE
# ALONG WITH THIS PROGRAM; IF NOT, WRITE TO EDF R&D CODE_ASTER,
#    1 AVENUE DU GENERAL DE GAULLE, 92141 CLAMART CEDEX, FRANCE.
# ======================================================================


DEBUT(CODE=_F(NOM='RCCM01B', NIV_PUB_WEB='INTERNET'), DEBUG=_F(SDVERI='OUI'))


COURFATA = FORMULE(NOM_PARA='SIGM',VALE='5.E5/SIGM ')

L_INST=DEFI_LIST_REEL(  DEBUT=1.,
                        INTERVALLE=_F(  JUSQU_A = 1000., PAS = 1.) )
                           
FWOHLER=CALC_FONC_INTERP( FONCTION=COURFATA, LIST_PARA=L_INST,
                          NOM_PARA = 'SIGM',PROL_DROITE='LINEAIRE',
                          PROL_GAUCHE='CONSTANT',
                          NOM_RESU='NADM'       )

MAT=DEFI_MATERIAU(  ELAS=_F( E = 200000.,  NU = 0.3,  ALPHA = 1.0E-5),
                    FATIGUE=_F(  WOHLER = FWOHLER, E_REFE = 200000.),
                    RCCM=_F(  M_KE = 2.,
                              N_KE = 0.2,
                              SM = 2000.,
                              SY_02 = 200.)
                               )

# CONTRAINTES "MX"    (SIG POUR ASBSCUR=0)            
T_MX = LIRE_TABLE (UNITE=35, FORMAT='ASTER',SEPARATEUR=' ',
                      NUME_TABLE=1,)

# CONTRAINTES "MY"     (SIG POUR ASBSCUR=0.5)                           
T_MY = LIRE_TABLE (UNITE=35, FORMAT='ASTER',SEPARATEUR=' ',
                      NUME_TABLE=2,)
                      
# CONTRAINTES "MZ"     (SIG POUR ASBSCUR=1)                             
T_MZ = LIRE_TABLE (UNITE=35, FORMAT='ASTER',SEPARATEUR=' ',
                      NUME_TABLE=3,)

#  CONTRAINTES "PRES"                    
T_PRES = LIRE_TABLE (UNITE=35, FORMAT='ASTER',SEPARATEUR=' ',
                      NUME_TABLE=4,)

#  CONTRAINTES THERMIQUE (SITUATION 1)                 
T_THER = LIRE_TABLE (UNITE=35, FORMAT='ASTER',SEPARATEUR=' ',
                      NUME_TABLE=5,)

#  CONTRAINTES THERMIQUE (SITUATION 3)                 
T_THER2 = LIRE_TABLE (UNITE=35, FORMAT='ASTER',SEPARATEUR=' ',
                      NUME_TABLE=6,)

# VALIDATION DU CALCUL DE PM ET PB
PMPB1=POST_RCCM( MATER=MAT,
                 TYPE_RESU='DETAILS',
                 TYPE_RESU_MECA='UNITAIRE',
                 OPTION='PM_PB',
                 INFO=2,
                 CHAR_MECA=(
                   _F(NUME_CHAR=1,
                      NOM_CHAR='ETAT A - SITU1',
                      MX=1.0,  MY=0.5,  MZ=0.0,),
                   _F(NUME_CHAR=2,
                      NOM_CHAR='ETAT B - SITU1',
                      MX=1.0,  MY=2.0,  MZ=3.0,),),
                 RESU_MECA_UNIT=(
                   _F(TABL_MX=T_MX,
                      TABL_MY=T_MY,
                      TABL_MZ=T_MZ,
                      TABL_PRES=T_PRES,),),
                 RESU_THER= (_F(NUME_RESU_THER=1,
                            TABL_RESU_THER=T_THER, ), 
                            _F(NUME_RESU_THER=2,
                            TABL_RESU_THER=T_THER2, ), ),
                 SITUATION=(
                  _F(NB_OCCUR=1,
                     NUME_SITU=1,
                     NOM_SITU='Situation 1',
                     NUME_GROUPE=1,
                     CHAR_ETAT_A=1,
                     CHAR_ETAT_B=2,
                     PRES_A=0,
                     PRES_B=0,
                     TEMP_REF_A=20.0,
                     TEMP_REF_B=20.0,),),);

IMPR_TABLE(    TABLE=PMPB1,)        

PMPB2=POST_RCCM( MATER=MAT,
                 TYPE_RESU='DETAILS',
                 TYPE_RESU_MECA='UNITAIRE',
                 OPTION='PM_PB',
                 INFO=1,
                 CHAR_MECA=(
                  _F(NUME_CHAR=3,
                     NOM_CHAR='ETAT A - SITU2',
                     MX=0.0,  MY=0.0,  MZ=0.0,),
                  _F(NUME_CHAR=4,
                     NOM_CHAR='ETAT B - SITU2',
                     MX=2.0,  MY=0.5,  MZ=-1.0,),),
                  RESU_MECA_UNIT=(
                   _F(TABL_MX=T_MX,
                      TABL_MY=T_MY,
                      TABL_MZ=T_MZ,
                      TABL_PRES=T_PRES,),),
                 SITUATION= _F(NB_OCCUR=1,
                     NUME_SITU=2,
                     NOM_SITU='Situation 2',
                     NUME_GROUPE=1,
                     CHAR_ETAT_A=3,
                     CHAR_ETAT_B=4,
                     PRES_A=0,
                     PRES_B=0,
                     TEMP_REF_A=20.0,
                     TEMP_REF_B=20.0,),
                  );

IMPR_TABLE(    TABLE=PMPB2,)  

# VALIDATION DU CALCUL DE SN ET DE SN*
SN1=POST_RCCM( MATER=MAT,
                 TYPE_RESU='DETAILS',
                 TYPE_RESU_MECA='UNITAIRE',
                 OPTION='SN',
                 INFO=2,
                 CHAR_MECA=(
                  _F(NUME_CHAR=1,
                     NOM_CHAR='ETAT A - SITU1',
                     MX=1.0,  MY=0.5,  MZ=0.0,),
                  _F(NUME_CHAR=2,
                     NOM_CHAR='ETAT B - SITU1',
                     MX=1.0,  MY=2.0,  MZ=3.0,),),
                  RESU_MECA_UNIT=(
                   _F(TABL_MX=T_MX,
                      TABL_MY=T_MY,
                      TABL_MZ=T_MZ,
                      TABL_PRES=T_PRES,),),
                 RESU_THER= (_F(NUME_RESU_THER=1,
                            TABL_RESU_THER=T_THER, ), 
                            _F(NUME_RESU_THER=2,
                            TABL_RESU_THER=T_THER2, ), ),
                 SITUATION=(
                  _F(NB_OCCUR=1,
                     NUME_SITU=1,
                     NOM_SITU='Situation 1',
                     NUME_GROUPE=1,
                     CHAR_ETAT_A=1,
                     CHAR_ETAT_B=2,
                     NUME_RESU_THER = 1,
                     PRES_A=0,
                     PRES_B=0,
                     TEMP_REF_A=20.0,
                     TEMP_REF_B=20.0,),),);

IMPR_TABLE(    TABLE=SN1,)        

SN2=POST_RCCM( MATER=MAT,
                 TYPE_RESU='DETAILS',
                 TYPE_RESU_MECA='UNITAIRE',
                 OPTION='SN',
                 INFO=2,
                 CHAR_MECA=(
                  _F(NUME_CHAR=3,
                     NOM_CHAR='ETAT A - SITU2',
                     MX=0.0,  MY=0.0,  MZ=0.0,),
                  _F(NUME_CHAR=4,
                     NOM_CHAR='ETAT B - SITU2',
                     MX=2.0,  MY=0.5,  MZ=-1.0,),),
                  RESU_MECA_UNIT=(
                   _F(TABL_MX=T_MX,
                      TABL_MY=T_MY,
                      TABL_MZ=T_MZ,
                      TABL_PRES=T_PRES,),),
                 SITUATION= _F(NB_OCCUR=1,
                     NUME_SITU=2,
                     NOM_SITU='Situation 2',
                     NUME_GROUPE=1,
                     CHAR_ETAT_A=3,
                     CHAR_ETAT_B=4,
                     PRES_A=0,
                     PRES_B=0,
                     TEMP_REF_A=20.0,
                     TEMP_REF_B=20.0,),
                  );

IMPR_TABLE(    TABLE=SN2,)  

SN3=POST_RCCM( MATER=MAT,
                 TYPE_RESU='DETAILS',
                 TYPE_RESU_MECA='UNITAIRE',
                 OPTION='SN',
                 INFO=1,
                 CHAR_MECA=(
                  _F(NUME_CHAR=3,
                     NOM_CHAR='ETAT A - SITU2',
                     MX=0.0,  MY=0.0,  MZ=0.0,),
                  _F(NUME_CHAR=4,
                     NOM_CHAR='ETAT B - SITU2',
                     MX=2.0,  MY=0.5,  MZ=-1.0,),),
                  RESU_MECA_UNIT=(
                   _F(TABL_MX=T_MX,
                      TABL_MY=T_MY,
                      TABL_MZ=T_MZ,
                      TABL_PRES=T_PRES,),),
                 RESU_THER= (_F(NUME_RESU_THER=1,
                            TABL_RESU_THER=T_THER, ), 
                            _F(NUME_RESU_THER=2,
                            TABL_RESU_THER=T_THER2, ), ),
                 SITUATION= _F(NB_OCCUR=1,
                     NUME_SITU=2,
                     NOM_SITU='Situation 3',
                     NUME_GROUPE=1,
                     CHAR_ETAT_A=3,
                     CHAR_ETAT_B=4,
                     NUME_RESU_THER = 2,
                     PRES_A=0,
                     PRES_B=0,
                     TEMP_REF_A=20.0,
                     TEMP_REF_B=20.0,),
                  );

IMPR_TABLE(    TABLE=SN3,) 

# VALIDATION DU CALCUL EN FATIGUE : SITUATION 1 + SITUATION 2
FAT12_A = POST_RCCM( MATER=MAT,
                 TYPE_RESU='DETAILS',
                 TYPE_RESU_MECA='UNITAIRE',
                 OPTION='FATIGUE',
                 INFO=2,
                 TYPE_KE='KE_MECA',
                 CHAR_MECA=(
                  _F(NUME_CHAR=1,
                     NOM_CHAR='ETAT A - SITU1',
                     MX=1.0,  MY=0.5,  MZ=0.0,),
                  _F(NUME_CHAR=2,
                     NOM_CHAR='ETAT B - SITU1',
                     MX=1.0,  MY=2.0,  MZ=3.0,),   
                  _F(NUME_CHAR=3,
                     NOM_CHAR='ETAT A - SITU2',
                     MX=0.0,  MY=0.0,  MZ=0.0,),
                  _F(NUME_CHAR=4,
                     NOM_CHAR='ETAT B - SITU2',
                     MX=2.0,  MY=0.5,  MZ=-1.0,),),
                  RESU_MECA_UNIT=(
                   _F(TABL_MX=T_MX,
                      TABL_MY=T_MY,
                      TABL_MZ=T_MZ,
                      TABL_PRES=T_PRES,),),
                 RESU_THER= (_F(NUME_RESU_THER=1,
                            TABL_RESU_THER=T_THER, ), 
                            _F(NUME_RESU_THER=2,
                            TABL_RESU_THER=T_THER2, ), ),
                 SITUATION=(
                  _F(NB_OCCUR=1,
                     NUME_SITU=1,
                     NOM_SITU='Situation 1',
                     NUME_GROUPE=1,
                     NUME_RESU_THER = 1,
                     CHAR_ETAT_A=1,
                     CHAR_ETAT_B=2,
                     PRES_A=0,
                     PRES_B=0,
                     TEMP_REF_A=20.0,
                     TEMP_REF_B=20.0,),
                  _F(NB_OCCUR=1,
                     NUME_SITU=2,
                     NOM_SITU='Situation 2',
                     NUME_GROUPE=1,
                     CHAR_ETAT_A=3,
                     CHAR_ETAT_B=4,
                     PRES_A=0,
                     PRES_B=0,
                     TEMP_REF_A=20.0,
                     TEMP_REF_B=20.0,),),);
                     
IMPR_TABLE(    TABLE=FAT12_A,) 

FAT12_B = POST_RCCM( MATER=MAT,
                 TYPE_RESU='DETAILS',
                 TYPE_RESU_MECA='UNITAIRE',
                 OPTION='FATIGUE',
                 INFO=2,
                 TYPE_KE='KE_MECA',
                 CHAR_MECA=(
                  _F(NUME_CHAR=1,
                     NOM_CHAR='ETAT A - SITU1',
                     MX=1.0,  MY=0.5,  MZ=0.0,),
                  _F(NUME_CHAR=2,
                     NOM_CHAR='ETAT B - SITU1',
                     MX=1.0,  MY=2.0,  MZ=3.0,),   
                  _F(NUME_CHAR=3,
                     NOM_CHAR='ETAT A - SITU2',
                     MX=0.0,  MY=0.0,  MZ=0.0,),
                  _F(NUME_CHAR=4,
                     NOM_CHAR='ETAT B - SITU2',
                     MX=2.0,  MY=0.5,  MZ=-1.0,),),
                  RESU_MECA_UNIT=(
                   _F(TABL_MX=T_MX,
                      TABL_MY=T_MY,
                      TABL_MZ=T_MZ,
                      TABL_PRES=T_PRES,),),
                 RESU_THER= (_F(NUME_RESU_THER=1,
                            TABL_RESU_THER=T_THER, ), 
                            _F(NUME_RESU_THER=2,
                            TABL_RESU_THER=T_THER2, ), ),
                 SITUATION=(
                  _F(NB_OCCUR=1,
                     NUME_SITU=1,
                     NOM_SITU='Situation 1',
                     NUME_GROUPE=1,
                     NUME_RESU_THER = 1,
                     CHAR_ETAT_A=1,
                     CHAR_ETAT_B=2,
                     PRES_A=0,
                     PRES_B=0,
                     TEMP_REF_A=20.0,
                     TEMP_REF_B=20.0,),
                  _F(NB_OCCUR=10,
                     NUME_SITU=2,
                     NOM_SITU='Situation 2',
                     NUME_GROUPE=1,
                     CHAR_ETAT_A=3,
                     CHAR_ETAT_B=4,
                     PRES_A=0,
                     PRES_B=0,
                     TEMP_REF_A=20.0,
                     TEMP_REF_B=20.0,),),);
                     
IMPR_TABLE(    TABLE=FAT12_B,) 

# VALIDATION DU CALCUL EN FATIGUE : SITUATION 1 + SITUATION 3
FAT13_A = POST_RCCM( MATER=MAT,
                 TYPE_RESU='DETAILS',
                 TYPE_RESU_MECA='UNITAIRE',
                 OPTION='FATIGUE',
                 INFO=2,
                 TYPE_KE='KE_MECA',
                 CHAR_MECA=(
                  _F(NUME_CHAR=1,
                     NOM_CHAR='ETAT A - SITU1',
                     MX=1.0,  MY=0.5,  MZ=0.0,),
                  _F(NUME_CHAR=2,
                     NOM_CHAR='ETAT B - SITU1',
                     MX=1.0,  MY=2.0,  MZ=3.0,),   
                  _F(NUME_CHAR=3,
                     NOM_CHAR='ETAT A - SITU2',
                     MX=0.0,  MY=0.0,  MZ=0.0,),
                  _F(NUME_CHAR=4,
                     NOM_CHAR='ETAT B - SITU2',
                     MX=2.0,  MY=0.5,  MZ=-1.0,),),
                  RESU_MECA_UNIT=(
                   _F(TABL_MX=T_MX,
                      TABL_MY=T_MY,
                      TABL_MZ=T_MZ,
                      TABL_PRES=T_PRES,),),
                 RESU_THER= (_F(NUME_RESU_THER=1,
                            TABL_RESU_THER=T_THER, ), 
                            _F(NUME_RESU_THER=2,
                            TABL_RESU_THER=T_THER2, ), ),
                 SITUATION=(
                  _F(NB_OCCUR=1,
                     NUME_SITU=1,
                     NOM_SITU='Situation 1',
                     NUME_GROUPE=1,
                     NUME_RESU_THER = 1,
                     CHAR_ETAT_A=1,
                     CHAR_ETAT_B=2,
                     PRES_A=0,
                     PRES_B=0,
                     TEMP_REF_A=20.0,
                     TEMP_REF_B=20.0,),
                  _F(NB_OCCUR=1,
                     NUME_SITU=3,
                     NOM_SITU='Situation 3',
                     NUME_GROUPE=1,
                     CHAR_ETAT_A=3,
                     CHAR_ETAT_B=4,
                     NUME_RESU_THER = 2,
                     PRES_A=0,
                     PRES_B=0,
                     TEMP_REF_A=20.0,
                     TEMP_REF_B=20.0,),),);

IMPR_TABLE(    TABLE=FAT13_A,) 

FAT13_B = POST_RCCM( MATER=MAT,
                 TYPE_RESU='DETAILS',
                 TYPE_RESU_MECA='UNITAIRE',
                 OPTION='FATIGUE',
                 INFO=1,
                 TYPE_KE='KE_MECA',
                 CHAR_MECA=(
                  _F(NUME_CHAR=1,
                     NOM_CHAR='ETAT A - SITU1',
                     MX=1.0,  MY=0.5,  MZ=0.0,),
                  _F(NUME_CHAR=2,
                     NOM_CHAR='ETAT B - SITU1',
                     MX=1.0,  MY=2.0,  MZ=3.0,),   
                  _F(NUME_CHAR=3,
                     NOM_CHAR='ETAT A - SITU2',
                     MX=0.0,  MY=0.0,  MZ=0.0,),
                  _F(NUME_CHAR=4,
                     NOM_CHAR='ETAT B - SITU2',
                     MX=2.0,  MY=0.5,  MZ=-1.0,),),
                  RESU_MECA_UNIT=(
                   _F(TABL_MX=T_MX,
                      TABL_MY=T_MY,
                      TABL_MZ=T_MZ,
                      TABL_PRES=T_PRES,),),
                 RESU_THER= (_F(NUME_RESU_THER=1,
                            TABL_RESU_THER=T_THER, ), 
                            _F(NUME_RESU_THER=2,
                            TABL_RESU_THER=T_THER2, ), ),
                 SITUATION=(
                  _F(NB_OCCUR=1,
                     NUME_SITU=1,
                     NOM_SITU='Situation 1',
                     NUME_GROUPE=1,
                     NUME_RESU_THER = 1,
                     CHAR_ETAT_A=1,
                     CHAR_ETAT_B=2,
                     PRES_A=0,
                     PRES_B=0,
                     TEMP_REF_A=20.0,
                     TEMP_REF_B=20.0,),
                  _F(NB_OCCUR=10,
                     NUME_SITU=3,
                     NOM_SITU='Situation 3',
                     NUME_GROUPE=1,
                     CHAR_ETAT_A=3,
                     CHAR_ETAT_B=4,
                     NUME_RESU_THER = 2,
                     PRES_A=0,
                     PRES_B=0,
                     TEMP_REF_A=20.0,
                     TEMP_REF_B=20.0,),),);

IMPR_TABLE(    TABLE=FAT13_B,) 




########### A METTRE DANS COM2 ################

#-------------------------------------------------------------------------------
#   TEST (SOLUTION DE REFERENCE ANALYTIQUE)
#--------------------------------------------------------------------------------
# PM_PB - SITUATION 1
TEST_TABLE(TABLE=PMPB1,
           REFERENCE='ANALYTIQUE',
           TYPE_TEST = 'MAX',
           NOM_PARA='PM_MAX',
           VALE=200.  )
           
TEST_TABLE(TABLE=PMPB1,
           REFERENCE='ANALYTIQUE',
           TYPE_TEST = 'MAX',
           NOM_PARA='PB_MAX',
           VALE=100.  )
           
TEST_TABLE(TABLE=PMPB1,
           REFERENCE='ANALYTIQUE',
            FILTRE=( _F(  NOM_PARA = 'LIEU',
                         VALE_K   = 'ORIG'),),
           NOM_PARA='PMPB_MAX',
           VALE=100.  )

TEST_TABLE(TABLE=PMPB1,
           REFERENCE='ANALYTIQUE',
            FILTRE=( _F(  NOM_PARA = 'LIEU',
                         VALE_K   = 'EXTR'),),
           NOM_PARA='PMPB_MAX',
           VALE=300.  )

# PM_PB - SITUATION 2
TEST_TABLE(TABLE=PMPB2,
           REFERENCE='ANALYTIQUE',
           TYPE_TEST = 'MAX',
           NOM_PARA='PM_MAX',
           VALE=50.  )
           
TEST_TABLE(TABLE=PMPB2,
           REFERENCE='ANALYTIQUE',
           TYPE_TEST = 'MAX',
           NOM_PARA='PB_MAX',
           VALE=150.  )
           
TEST_TABLE(TABLE=PMPB2,
           REFERENCE='ANALYTIQUE',
            FILTRE=( _F(  NOM_PARA = 'LIEU',
                         VALE_K   = 'ORIG'),),
           NOM_PARA='PMPB_MAX',
           VALE=200.  )

TEST_TABLE(TABLE=PMPB2,
           REFERENCE='ANALYTIQUE',
            FILTRE=( _F(  NOM_PARA = 'LIEU',
                         VALE_K   = 'EXTR'),),
           NOM_PARA='PMPB_MAX',
           VALE=100.  )

# SN - SITUATION 1
TEST_TABLE(TABLE=SN1,
           REFERENCE='ANALYTIQUE',
            FILTRE=( _F(  NOM_PARA = 'LIEU',
                         VALE_K   = 'ORIG'),),
           NOM_PARA='SN_MAX',
           VALE=150.  )

TEST_TABLE(TABLE=SN1,
           REFERENCE='ANALYTIQUE',
            FILTRE=( _F(  NOM_PARA = 'LIEU',
                         VALE_K   = 'EXTR'),),
           NOM_PARA='SN_MAX',
           VALE=725.  )
           
TEST_TABLE(TABLE=SN1,
           REFERENCE='ANALYTIQUE',
            FILTRE=( _F(  NOM_PARA = 'LIEU',
                         VALE_K   = 'ORIG'),),
           NOM_PARA='SN*_MAX',
           VALE=200.  )
           
TEST_TABLE(TABLE=SN1,
           REFERENCE='ANALYTIQUE',
            FILTRE=( _F(  NOM_PARA = 'LIEU',
                         VALE_K   = 'EXTR'),),
           NOM_PARA='SN*_MAX',
           VALE=575.  )

# SN - SITUATION 2
TEST_TABLE(TABLE=SN2,
           REFERENCE='ANALYTIQUE',
            FILTRE=( _F(  NOM_PARA = 'LIEU',
                         VALE_K   = 'ORIG'),),
           NOM_PARA='SN_MAX',
           VALE=200.  )

TEST_TABLE(TABLE=SN2,
           REFERENCE='ANALYTIQUE',
            FILTRE=( _F(  NOM_PARA = 'LIEU',
                         VALE_K   = 'EXTR'),),
           NOM_PARA='SN_MAX',
           VALE=100.  )
           
# SN - SITUATION 3
TEST_TABLE(TABLE=SN3,
           REFERENCE='ANALYTIQUE',
            FILTRE=( _F(  NOM_PARA = 'LIEU',
                         VALE_K   = 'ORIG'),),
           NOM_PARA='SN_MAX',
           VALE=250.  )

TEST_TABLE(TABLE=SN3,
           REFERENCE='ANALYTIQUE',
            FILTRE=( _F(  NOM_PARA = 'LIEU',
                         VALE_K   = 'EXTR'),),
           NOM_PARA='SN_MAX',
           VALE=150.  )
           
TEST_TABLE(TABLE=SN3,
           REFERENCE='ANALYTIQUE',
            FILTRE=( _F(  NOM_PARA = 'LIEU',
                         VALE_K   = 'ORIG'),),
           NOM_PARA='SN*_MAX',
           VALE=200.  )
           
TEST_TABLE(TABLE=SN3,
           REFERENCE='ANALYTIQUE',
            FILTRE=( _F(  NOM_PARA = 'LIEU',
                         VALE_K   = 'EXTR'),),
           NOM_PARA='SN*_MAX',
           VALE=100.  )           

# FATIGUE - SITUATION 1 + SITUATION 2
TEST_TABLE(TABLE=FAT12_A,
           REFERENCE='ANALYTIQUE',
            FILTRE=( _F(  NOM_PARA = 'LIEU',
                         VALE_K   = 'ORIG'),),
           NOM_PARA='FACT_USAGE_CUMU',
           VALE=4.E-4  )
           
TEST_TABLE(TABLE=FAT12_A,
           REFERENCE='ANALYTIQUE',
            FILTRE=( _F(  NOM_PARA = 'LIEU',
                         VALE_K   = 'EXTR'),),
           NOM_PARA='FACT_USAGE_CUMU',
           VALE=1.2E-3  )
           
TEST_TABLE(TABLE=FAT12_B,
           REFERENCE='ANALYTIQUE',
            FILTRE=( _F(  NOM_PARA = 'LIEU',
                         VALE_K   = 'ORIG'),),
           NOM_PARA='FACT_USAGE_CUMU',
           VALE=2.2E-3  )
           
TEST_TABLE(TABLE=FAT12_B,
           REFERENCE='ANALYTIQUE',
            FILTRE=( _F(  NOM_PARA = 'LIEU',
                         VALE_K   = 'EXTR'),),
           NOM_PARA='FACT_USAGE_CUMU',
           VALE=2.1E-3  )

# FATIGUE - SITUATION 1 + SITUATION 3
TEST_TABLE(TABLE=FAT13_A,
           REFERENCE='ANALYTIQUE',
            FILTRE=( _F(  NOM_PARA = 'LIEU',
                         VALE_K   = 'ORIG'),),
           NOM_PARA='FACT_USAGE_CUMU',
           VALE=4.5E-4  )
           
TEST_TABLE(TABLE=FAT13_A,
           REFERENCE='ANALYTIQUE',
            FILTRE=( _F(  NOM_PARA = 'LIEU',
                         VALE_K   = 'EXTR'),),
           NOM_PARA='FACT_USAGE_CUMU',
           VALE=8.5E-4  )
           
TEST_TABLE(TABLE=FAT13_B,
           REFERENCE='ANALYTIQUE',
            FILTRE=( _F(  NOM_PARA = 'LIEU',
                         VALE_K   = 'ORIG'),),
           NOM_PARA='FACT_USAGE_CUMU',
           VALE=2.7E-3  )
           
TEST_TABLE(TABLE=FAT13_B,
           REFERENCE='ANALYTIQUE',
            FILTRE=( _F(  NOM_PARA = 'LIEU',
                         VALE_K   = 'EXTR'),),
           NOM_PARA='FACT_USAGE_CUMU',
           VALE=2.2E-3  )


FIN();
