# MODIF  DATE 10/10/2012   AUTEUR COURTOIS M.COURTOIS 
# TITRE CALCUL DES FREQUENCES PROPRES D'UN SYSTEME ETOILE MASSE RESSORT
# sdld400a.para = tps_job 60 mem_job 256Mo ncpus 1 liste_test V
#            CONFIGURATION MANAGEMENT OF EDF VERSION
# ======================================================================
# COPYRIGHT (C) 1991 - 2012  EDF R&D                  WWW.CODE-ASTER.ORG
# THIS PROGRAM IS FREE SOFTWARE; YOU CAN REDISTRIBUTE IT AND/OR MODIFY
# IT UNDER THE TERMS OF THE GNU GENERAL PUBLIC LICENSE AS PUBLISHED BY
# THE FREE SOFTWARE FOUNDATION; EITHER VERSION 2 OF THE LICENSE, OR   
# (AT YOUR OPTION) ANY LATER VERSION.                                 
#
# THIS PROGRAM IS DISTRIBUTED IN THE HOPE THAT IT WILL BE USEFUL, BUT 
# WITHOUT ANY WARRANTY; WITHOUT EVEN THE IMPLIED WARRANTY OF          
# MERCHANTABILITY OR FITNESS FOR A PARTICULAR PURPOSE. SEE THE GNU    
# GENERAL PUBLIC LICENSE FOR MORE DETAILS.                            
#
# YOU SHOULD HAVE RECEIVED A COPY OF THE GNU GENERAL PUBLIC LICENSE   
# ALONG WITH THIS PROGRAM; IF NOT, WRITE TO EDF R&D CODE_ASTER,       
#    1 AVENUE DU GENERAL DE GAULLE, 92141 CLAMART CEDEX, FRANCE.      
# ======================================================================
# ELEMENTS  : SEG2   
# REFERENCE : ANALYTIQUE

DEBUT(CODE=_F( NOM = 'SDLD400A',NIV_PUB_WEB='INTERNET'))

MAYA=LIRE_MAILLAGE( )

STRUCTUR=AFFE_MODELE(    MAILLAGE=MAYA,AFFE=(
                               _F(  TOUT = 'OUI', 
                                      MODELISATION = 'DIS_TR', 
                                      PHENOMENE = 'MECANIQUE'),
                                    _F(  GROUP_NO = 'TOUT_NO',
                                    PHENOMENE = 'MECANIQUE', 
                                      MODELISATION = 'DIS_TR')))

# DEFINITION DES CONDITIONS AUX LIMITES

FIXA=AFFE_CHAR_MECA(      MODELE=STRUCTUR,
                              DDL_IMPO=_F( GROUP_NO = 'ENCASTR',
                                              DX = 0.,
                                              DY = 0.,
                                              DZ = 0.,
                                              DRX = 0.,
                                              DRY = 0.,
                                              DRZ = 0.)
                          )

# DEFINITION DES CARACTERISTIQUES DISCRETES

CARA=AFFE_CARA_ELEM(    MODELE=STRUCTUR,DISCRET=(

             _F(  CARA = 'K_TR_D_L',
                       GROUP_MA = 'R1R3',
                       REPERE = 'LOCAL',
                       VALE = ( 60.,40.,500.,500.,60.,650., )),
             _F(  CARA = 'M_TR_L',
                       GROUP_MA = 'R1R3',
                       REPERE = 'LOCAL',
                       VALE = ( 0.,0.,0.,0.,0.,0.,0.,0.,0.,0.,0.,0.,0.,0.,0.,0.,0.,0.,0.,0.,
                       0.,0.,0.,0.,0.,0.,0.,0.,0.,0.,0.,0.,0.,0.,0.,0.,0.,0.,0.,0.,
                       0.,0.,0.,0.,0.,0.,0.,0.,0.,0.,0.,0.,0.,0.,0.,0.,0.,0.,0.,0.,
                       0.,0.,0.,0.,0.,0.,0.,0.,0.,0.,0.,0.,0.,0.,0.,0.,0.,0., )),

                     _F(  CARA = 'K_TR_D_L',
                       GROUP_MA = 'R2R4',
                       REPERE = 'LOCAL', 
                       VALE = ( 40.,30.,140.,30.,140.,330., )),
             _F(  CARA = 'M_TR_L',
                       GROUP_MA = 'R2R4',
                       REPERE = 'LOCAL',
                       VALE = ( 0.,0.,0.,0.,0.,0.,0.,0.,0.,0.,0.,0.,0.,0.,0.,0.,0.,0.,0.,0.,
                       0.,0.,0.,0.,0.,0.,0.,0.,0.,0.,0.,0.,0.,0.,0.,0.,0.,0.,0.,0.,
                       0.,0.,0.,0.,0.,0.,0.,0.,0.,0.,0.,0.,0.,0.,0.,0.,0.,0.,0.,0.,
                       0.,0.,0.,0.,0.,0.,0.,0.,0.,0.,0.,0.,0.,0.,0.,0.,0.,0., )),

                     _F(  CARA = 'M_TR_D_N',
                       GROUP_NO = 'TOUT_NO',
                       REPERE = 'LOCAL', 
                  VALE = ( 10.,10.,10.,10.,0.,0.,0.,0.,0.,0., ))),ORIENTATION=(

                    _F(  MAILLE = 'M1',
                                  CARA = 'VECT_Y',
                                  VALE = ( -0.866025, -0.5, 0., )),
                                _F(  MAILLE = 'M2',
                                  CARA = 'VECT_Y',
                                  VALE = ( 0.5, -0.866025,  0., )),
                                _F(  MAILLE = 'M3',
                                  CARA = 'VECT_Y',
                                  VALE = (  0.866025,  0.5, 0., )),
                                _F(  MAILLE = 'M4',
                                  CARA = 'VECT_Y',
                                  VALE = (-0.5,  0.866025,  0., )))

                  )

# CALCUL DES MATRICES ELEMENTAIRES DE RIGIDITE ET DE MASSE

K_ELEM=CALC_MATR_ELEM(        MODELE=STRUCTUR,
                                    CHARGE=FIXA,     
                                 CARA_ELEM=CARA,
                                   OPTION='RIGI_MECA' )

M_ELEM=CALC_MATR_ELEM(        MODELE=STRUCTUR,
                                    CHARGE=FIXA,     
                                 CARA_ELEM=CARA,
                                   OPTION='MASS_MECA_DIAG' )

# NUMEROTATION

NUMERO=NUME_DDL(    MATR_RIGI=K_ELEM )

# ASSEMBLAGE DES MATRICES DE RIGIDITE ET DE MASSE


K_ASSE=ASSE_MATRICE(    MATR_ELEM=K_ELEM, 
                             NUME_DDL=NUMERO )

M_ASSE=ASSE_MATRICE(    MATR_ELEM=M_ELEM, 
                             NUME_DDL=NUMERO )

# CALCUL DES MODES PAR ITERATIONS INVERSES + AJUSTE


MODE1=MODE_ITER_INV(          MATR_RIGI=K_ASSE,
                                   MATR_MASS=M_ASSE,
                               CALC_FREQ=_F(  OPTION = 'AJUSTE',
                                           FREQ = ( 0.5,  3.,),
                                           NMAX_FREQ = 6)
                            )


TEST_RESU(RESU=(_F(PARA='FREQ',
                   NUME_MODE=1,
                   REFERENCE='ANALYTIQUE',
                   RESULTAT=MODE1,
                   VALE_CALC=0.636619772,
                   VALE_REFE=0.63661900000000005,
                   CRITERE='RELATIF',
                   PRECISION=3.0000000000000001E-05,),
                _F(PARA='FREQ',
                   NUME_MODE=2,
                   REFERENCE='ANALYTIQUE',
                   RESULTAT=MODE1,
                   VALE_CALC=0.675237237,
                   VALE_REFE=0.67523719999999998,
                   CRITERE='RELATIF',
                   PRECISION=3.0000000000000001E-05,),
                _F(PARA='FREQ',
                   NUME_MODE=3,
                   REFERENCE='ANALYTIQUE',
                   RESULTAT=MODE1,
                   VALE_CALC=0.675237237,
                   VALE_REFE=0.67523719999999998,
                   CRITERE='RELATIF',
                   PRECISION=3.0000000000000001E-05,),
                _F(PARA='FREQ',
                   NUME_MODE=4,
                   REFERENCE='ANALYTIQUE',
                   RESULTAT=MODE1,
                   VALE_CALC=1.800632632,
                   VALE_REFE=1.8006325999999999,
                   CRITERE='RELATIF',
                   PRECISION=3.0000000000000001E-05,),
                _F(PARA='FREQ',
                   NUME_MODE=5,
                   REFERENCE='ANALYTIQUE',
                   RESULTAT=MODE1,
                   VALE_CALC=1.800632632,
                   VALE_REFE=1.8006325999999999,
                   CRITERE='RELATIF',
                   PRECISION=3.0000000000000001E-05,),
                _F(PARA='FREQ',
                   NUME_MODE=6,
                   REFERENCE='ANALYTIQUE',
                   RESULTAT=MODE1,
                   VALE_CALC=2.228169203,
                   VALE_REFE=2.2281692,
                   CRITERE='RELATIF',
                   PRECISION=3.0000000000000001E-05,),
                ),
          )

# CALCUL DES MODES PAR ITERATIONS INVERSES + SEPARE


MODE2=MODE_ITER_INV(          MATR_RIGI=K_ASSE,
                                   MATR_MASS=M_ASSE,
                               CALC_FREQ=_F(  OPTION = 'SEPARE',
                                           FREQ = ( 0.5,  3.,),
                                           NMAX_FREQ = 6)
                            )


TEST_RESU(RESU=(_F(PARA='FREQ',
                   NUME_MODE=1,
                   REFERENCE='ANALYTIQUE',
                   RESULTAT=MODE2,
                   VALE_CALC=0.636619799,
                   VALE_REFE=0.63661900000000005,
                   CRITERE='RELATIF',
                   PRECISION=3.0000000000000001E-05,),
                _F(PARA='FREQ',
                   NUME_MODE=2,
                   REFERENCE='ANALYTIQUE',
                   RESULTAT=MODE2,
                   VALE_CALC=0.675237237,
                   VALE_REFE=0.67523719999999998,
                   CRITERE='RELATIF',
                   PRECISION=3.0000000000000001E-05,),
                _F(PARA='FREQ',
                   NUME_MODE=3,
                   REFERENCE='ANALYTIQUE',
                   RESULTAT=MODE2,
                   VALE_CALC=0.675237237,
                   VALE_REFE=0.67523719999999998,
                   CRITERE='RELATIF',
                   PRECISION=3.0000000000000001E-05,),
                _F(PARA='FREQ',
                   NUME_MODE=4,
                   REFERENCE='ANALYTIQUE',
                   RESULTAT=MODE2,
                   VALE_CALC=1.800632632,
                   VALE_REFE=1.8006325999999999,
                   CRITERE='RELATIF',
                   PRECISION=3.0000000000000001E-05,),
                _F(PARA='FREQ',
                   NUME_MODE=5,
                   REFERENCE='ANALYTIQUE',
                   RESULTAT=MODE2,
                   VALE_CALC=1.800632632,
                   VALE_REFE=1.8006325999999999,
                   CRITERE='RELATIF',
                   PRECISION=3.0000000000000001E-05,),
                _F(PARA='FREQ',
                   NUME_MODE=6,
                   REFERENCE='ANALYTIQUE',
                   RESULTAT=MODE2,
                   VALE_CALC=2.228170302,
                   VALE_REFE=2.2281692,
                   CRITERE='RELATIF',
                   PRECISION=3.0000000000000001E-05,),
                ),
          )

# CALCUL DES MODES PAR SORENSEN + BANDE

MODE3=MODE_ITER_SIMULT(       MATR_RIGI=K_ASSE, 
                                   MATR_MASS=M_ASSE, 
                               CALC_FREQ=_F(  OPTION = 'BANDE',
                                           FREQ = ( 0.5, 3., ),)
                             )


TEST_RESU(RESU=(_F(PARA='FREQ',
                   NUME_MODE=1,
                   REFERENCE='ANALYTIQUE',
                   RESULTAT=MODE3,
                   VALE_CALC=0.636619772,
                   VALE_REFE=0.63661900000000005,
                   CRITERE='RELATIF',
                   PRECISION=3.0000000000000001E-05,),
                _F(PARA='FREQ',
                   NUME_MODE=2,
                   REFERENCE='ANALYTIQUE',
                   RESULTAT=MODE3,
                   VALE_CALC=0.675237237,
                   VALE_REFE=0.67523719999999998,
                   CRITERE='RELATIF',
                   PRECISION=3.0000000000000001E-05,),
                _F(PARA='FREQ',
                   NUME_MODE=3,
                   REFERENCE='ANALYTIQUE',
                   RESULTAT=MODE3,
                   VALE_CALC=0.675237237,
                   VALE_REFE=0.67523719999999998,
                   CRITERE='RELATIF',
                   PRECISION=3.0000000000000001E-05,),
                _F(PARA='FREQ',
                   NUME_MODE=4,
                   REFERENCE='ANALYTIQUE',
                   RESULTAT=MODE3,
                   VALE_CALC=1.800632632,
                   VALE_REFE=1.8006325999999999,
                   CRITERE='RELATIF',
                   PRECISION=3.0000000000000001E-05,),
                _F(PARA='FREQ',
                   NUME_MODE=5,
                   REFERENCE='ANALYTIQUE',
                   RESULTAT=MODE3,
                   VALE_CALC=1.800632632,
                   VALE_REFE=1.8006325999999999,
                   CRITERE='RELATIF',
                   PRECISION=3.0000000000000001E-05,),
                _F(PARA='FREQ',
                   NUME_MODE=6,
                   REFERENCE='ANALYTIQUE',
                   RESULTAT=MODE3,
                   VALE_CALC=2.228169203,
                   VALE_REFE=2.2281692,
                   CRITERE='RELATIF',
                   PRECISION=3.0000000000000001E-05,),
                ),
          )

# CALCUL DES MODES PAR SORENSEN + CENTRE

MODE4=MODE_ITER_SIMULT(       MATR_RIGI=K_ASSE, 
                                   MATR_MASS=M_ASSE, 
                               CALC_FREQ=_F(  OPTION = 'CENTRE',
                                           FREQ = 1.5,
                                           NMAX_FREQ = 6)
                            )


TEST_RESU(RESU=(_F(PARA='FREQ',
                   NUME_MODE=1,
                   REFERENCE='ANALYTIQUE',
                   RESULTAT=MODE4,
                   VALE_CALC=0.636619772,
                   VALE_REFE=0.63661900000000005,
                   CRITERE='RELATIF',
                   PRECISION=3.0000000000000001E-05,),
                _F(PARA='FREQ',
                   NUME_MODE=2,
                   REFERENCE='ANALYTIQUE',
                   RESULTAT=MODE4,
                   VALE_CALC=0.675237237,
                   VALE_REFE=0.67523719999999998,
                   CRITERE='RELATIF',
                   PRECISION=3.0000000000000001E-05,),
                _F(PARA='FREQ',
                   NUME_MODE=3,
                   REFERENCE='ANALYTIQUE',
                   RESULTAT=MODE4,
                   VALE_CALC=0.675237237,
                   VALE_REFE=0.67523719999999998,
                   CRITERE='RELATIF',
                   PRECISION=3.0000000000000001E-05,),
                _F(PARA='FREQ',
                   NUME_MODE=4,
                   REFERENCE='ANALYTIQUE',
                   RESULTAT=MODE4,
                   VALE_CALC=1.800632632,
                   VALE_REFE=1.8006325999999999,
                   CRITERE='RELATIF',
                   PRECISION=3.0000000000000001E-05,),
                _F(PARA='FREQ',
                   NUME_MODE=5,
                   REFERENCE='ANALYTIQUE',
                   RESULTAT=MODE4,
                   VALE_CALC=1.800632632,
                   VALE_REFE=1.8006325999999999,
                   CRITERE='RELATIF',
                   PRECISION=3.0000000000000001E-05,),
                _F(PARA='FREQ',
                   NUME_MODE=6,
                   REFERENCE='ANALYTIQUE',
                   RESULTAT=MODE4,
                   VALE_CALC=2.228169203,
                   VALE_REFE=2.2281692,
                   CRITERE='RELATIF',
                   PRECISION=3.0000000000000001E-05,),
                ),
          )

# CALCUL DES MODES PAR SORENSEN + PLUS_PETITE

MODE5=MODE_ITER_SIMULT(       MATR_RIGI=K_ASSE, 
                                   MATR_MASS=M_ASSE, 
                               CALC_FREQ=_F(  OPTION = 'PLUS_PETITE',
                                           NMAX_FREQ = 6)
                              )


TEST_RESU(RESU=(_F(PARA='FREQ',
                   NUME_MODE=1,
                   REFERENCE='ANALYTIQUE',
                   RESULTAT=MODE5,
                   VALE_CALC=0.636619772,
                   VALE_REFE=0.63661900000000005,
                   CRITERE='RELATIF',
                   PRECISION=3.0000000000000001E-05,),
                _F(PARA='FREQ',
                   NUME_MODE=2,
                   REFERENCE='ANALYTIQUE',
                   RESULTAT=MODE5,
                   VALE_CALC=0.675237237,
                   VALE_REFE=0.67523719999999998,
                   CRITERE='RELATIF',
                   PRECISION=3.0000000000000001E-05,),
                _F(PARA='FREQ',
                   NUME_MODE=3,
                   REFERENCE='ANALYTIQUE',
                   RESULTAT=MODE5,
                   VALE_CALC=0.675237237,
                   VALE_REFE=0.67523719999999998,
                   CRITERE='RELATIF',
                   PRECISION=3.0000000000000001E-05,),
                _F(PARA='FREQ',
                   NUME_MODE=4,
                   REFERENCE='ANALYTIQUE',
                   RESULTAT=MODE5,
                   VALE_CALC=1.800632632,
                   VALE_REFE=1.8006325999999999,
                   CRITERE='RELATIF',
                   PRECISION=3.0000000000000001E-05,),
                _F(PARA='FREQ',
                   NUME_MODE=5,
                   REFERENCE='ANALYTIQUE',
                   RESULTAT=MODE5,
                   VALE_CALC=1.800632632,
                   VALE_REFE=1.8006325999999999,
                   CRITERE='RELATIF',
                   PRECISION=3.0000000000000001E-05,),
                _F(PARA='FREQ',
                   NUME_MODE=6,
                   REFERENCE='ANALYTIQUE',
                   RESULTAT=MODE5,
                   VALE_CALC=2.228169203,
                   VALE_REFE=2.2281692,
                   CRITERE='RELATIF',
                   PRECISION=3.0000000000000001E-05,),
                ),
          )

# CALCUL DES MODES PAR JACOBI 

MODE6=MODE_ITER_SIMULT(       MATR_RIGI=K_ASSE, 
                                   MATR_MASS=M_ASSE, 
                                  METHODE='JACOBI',
                               CALC_FREQ=_F(  OPTION = 'BANDE',
                                           FREQ = ( 0.5, 3., ),)
                              )


TEST_RESU(RESU=(_F(PARA='FREQ',
                   NUME_MODE=1,
                   REFERENCE='ANALYTIQUE',
                   RESULTAT=MODE6,
                   VALE_CALC=0.636619772,
                   VALE_REFE=0.63661900000000005,
                   CRITERE='RELATIF',
                   PRECISION=3.0000000000000001E-05,),
                _F(PARA='FREQ',
                   NUME_MODE=2,
                   REFERENCE='ANALYTIQUE',
                   RESULTAT=MODE6,
                   VALE_CALC=0.675237237,
                   VALE_REFE=0.67523719999999998,
                   CRITERE='RELATIF',
                   PRECISION=3.0000000000000001E-05,),
                _F(PARA='FREQ',
                   NUME_MODE=3,
                   REFERENCE='ANALYTIQUE',
                   RESULTAT=MODE6,
                   VALE_CALC=0.675237237,
                   VALE_REFE=0.67523719999999998,
                   CRITERE='RELATIF',
                   PRECISION=3.0000000000000001E-05,),
                _F(PARA='FREQ',
                   NUME_MODE=4,
                   REFERENCE='ANALYTIQUE',
                   RESULTAT=MODE6,
                   VALE_CALC=1.800632632,
                   VALE_REFE=1.8006325999999999,
                   CRITERE='RELATIF',
                   PRECISION=3.0000000000000001E-05,),
                _F(PARA='FREQ',
                   NUME_MODE=5,
                   REFERENCE='ANALYTIQUE',
                   RESULTAT=MODE6,
                   VALE_CALC=1.800632632,
                   VALE_REFE=1.8006325999999999,
                   CRITERE='RELATIF',
                   PRECISION=3.0000000000000001E-05,),
                _F(PARA='FREQ',
                   NUME_MODE=6,
                   REFERENCE='ANALYTIQUE',
                   RESULTAT=MODE6,
                   VALE_CALC=2.228169203,
                   VALE_REFE=2.2281692,
                   CRITERE='RELATIF',
                   PRECISION=3.0000000000000001E-05,),
                ),
          )

FIN()
#
