# MODIF  DATE 09/05/2011   AUTEUR VERRIER A.VERRIER 
# TITRE SYSTEME 1 MASSE 1 RESSORT  A 3 DDL (+ 1 AMORTISSEUR DISCRET)
# sdld321a.para = tps_job 60 mem_job 32Mo ncpus 1 liste_test V
#            CONFIGURATION MANAGEMENT OF EDF VERSION
# ======================================================================
# COPYRIGHT (C) 1991 - 2011  EDF R&D                  WWW.CODE-ASTER.ORG
# THIS PROGRAM IS FREE SOFTWARE; YOU CAN REDISTRIBUTE IT AND/OR MODIFY
# IT UNDER THE TERMS OF THE GNU GENERAL PUBLIC LICENSE AS PUBLISHED BY
# THE FREE SOFTWARE FOUNDATION; EITHER VERSION 2 OF THE LICENSE, OR   
# (AT YOUR OPTION) ANY LATER VERSION.                                 
#
# THIS PROGRAM IS DISTRIBUTED IN THE HOPE THAT IT WILL BE USEFUL, BUT 
# WITHOUT ANY WARRANTY; WITHOUT EVEN THE IMPLIED WARRANTY OF          
# MERCHANTABILITY OR FITNESS FOR A PARTICULAR PURPOSE. SEE THE GNU    
# GENERAL PUBLIC LICENSE FOR MORE DETAILS.                            
#
# YOU SHOULD HAVE RECEIVED A COPY OF THE GNU GENERAL PUBLIC LICENSE   
# ALONG WITH THIS PROGRAM; IF NOT, WRITE TO EDF R&D CODE_ASTER,       
#    1 AVENUE DU GENERAL DE GAULLE, 92141 CLAMART CEDEX, FRANCE.      
# ======================================================================
#CAS_TEST__:SDLD321A
# IRCN   DATE 28/08/96   AUTEUR G.BECHEPAY - T.QUESNEL
########################################################################
# DYNAMIQUE TRANSITOIRE SUR BASE MODALE SYSTEME MASSE ET RESSORT
# INTEGRATION SUR BASE MODALE : 1- SCHEMA NEWMARK  PAS DE TEMPS = 1.E-3S
#                               2- SCHEMA EULER    PAS DE TEMPS = 1.E-3S
# AMORTISSEMENT = AMORTISSEMENT CRITIQUE
# EXCITATION SINUSOIDALE
#

DEBUT( CODE=_F(  NOM = 'SDLD321A',NIV_PUB_WEB='INTERNET') )

#

RESSORT=LIRE_MAILLAGE( )

#

MODELE=AFFE_MODELE(   MAILLAGE=RESSORT,AFFE=(
                        _F(  NOEUD='N2',  PHENOMENE = 'MECANIQUE',
                             MODELISATION = 'DIS_T'),   
                        _F(  MAILLE='AB',   PHENOMENE = 'MECANIQUE',
                             MODELISATION = 'DIS_T'))            )

#
ELEMNT=AFFE_CARA_ELEM(  MODELE=MODELE,DISCRET=(
                 _F(  MAILLE = 'AB',
                           CARA = 'K_T_D_L',
                           VALE = (25.E3,  1., 2., )),
                 _F(  MAILLE = 'AB',
                           CARA = 'M_T_L',
                           VALE = (0.,0.,0.,0.,0.,0.,0.,0.,0.,
                           0.,0.,0.,0.,0.,0.,0.,0.,0.,0.,0.,0., )),

                         _F(  MAILLE = 'AB',
                           CARA = 'A_T_D_L',
                           VALE = (1.E3, 0., 0., )),

                         _F(  NOEUD = 'N2',
                           CARA = 'M_T_D_N',
                           VALE = 10.))
                          )

#

CONDLIM=AFFE_CHAR_MECA(  MODELE=MODELE,
                           FORCE_NODALE=_F(  NOEUD = 'N2',  FX = 5.),  
                           DDL_IMPO=_F(  NOEUD = 'N1', DX = 0., DY = 0., DZ = 0.)
                        )

#

RIGIELEM=CALC_MATR_ELEM(  MODELE=MODELE,  OPTION='RIGI_MECA',
                             CARA_ELEM=ELEMNT,   CHARGE=CONDLIM )

MASSELEM=CALC_MATR_ELEM(  MODELE=MODELE,  OPTION='MASS_MECA',
                             CARA_ELEM=ELEMNT,   CHARGE=CONDLIM )

AMORELEM=CALC_MATR_ELEM(  MODELE=MODELE,  OPTION='AMOR_MECA',
                             CARA_ELEM=ELEMNT  )

EFFOELEM=CALC_VECT_ELEM(  CHARGE=CONDLIM,  OPTION='CHAR_MECA',
                             CARA_ELEM=ELEMNT                  )

#
#

NUMEROTA=NUME_DDL(  MATR_RIGI=RIGIELEM  )

#

MATRRIGI=ASSE_MATRICE(  MATR_ELEM=RIGIELEM,  NUME_DDL=NUMEROTA  )

MATRMASS=ASSE_MATRICE(  MATR_ELEM=MASSELEM,  NUME_DDL=NUMEROTA  )

MATRAMOR=ASSE_MATRICE(  MATR_ELEM=AMORELEM,  NUME_DDL=NUMEROTA  )

VECTASS=ASSE_VECTEUR(  VECT_ELEM=EFFOELEM,  NUME_DDL=NUMEROTA  )

#
#
# CALCUL DE LA BASE MODALE COMPLETE
# ---------------------------------
#
#

MODES=MODE_ITER_SIMULT(  MATR_A=MATRRIGI,  MATR_B=MATRMASS,
                         CALC_FREQ=_F(  OPTION = 'CENTRE',
                                     FREQ = (10.,), 
                                     NMAX_FREQ = 3)
                      )

#
#
# PROJECTION DANS LA BASE MODALE
# ------------------------------
#
#
MACRO_PROJ_BASE(  BASE=MODES,
                 PROFIL = 'PLEIN',
                  MATR_ASSE_GENE=(
                   _F( 
                                   MATRICE = CO("MASSEGEN"),
                                   MATR_ASSE = MATRMASS), 
                   _F( 
                                   MATRICE = CO("RIGIDGEN"),
                                   MATR_ASSE = MATRRIGI),
                   _F( 
                                   MATRICE = CO("AMORTGEN"), 
                                   MATR_ASSE = MATRAMOR,)),
                   VECT_ASSE_GENE=_F( 
                                   VECTEUR = CO("EFFOGENE"),
                                   VECT_ASSE = VECTASS) )
MACRO_PROJ_BASE(  BASE=MODES,
                 PROFIL = 'DIAG',
                  MATR_ASSE_GENE=(
                   _F( 
                                   MATRICE = CO("MASSEGE2"),
                                   MATR_ASSE = MATRMASS), 
                   _F( 
                                   MATRICE = CO("RIGIDGE2"),
                                   MATR_ASSE = MATRRIGI),),
                   VECT_ASSE_GENE=_F( 
                                   VECTEUR = CO("EFFOGEN2"),
                                   VECT_ASSE = VECTASS) )
#
# DEFINITION DE L EXCITATION SINUSOIDALE
# --------------------------------------
#
SINOMEGT = FORMULE(NOM_PARA='INST',VALE='sin(50.*INST) ')
#
LIEXCIT=DEFI_LIST_REEL(    DEBUT=0.,
                            INTERVALLE=_F(  JUSQU_A = 5., PAS = 0.01) )

#

FONCMULT=CALC_FONC_INTERP(   FONCTION=SINOMEGT, 
                                LIST_PARA=LIEXCIT,
                               NOM_RESU='ALPHA',
                               NOM_PARA='INST',
                               INTERPOL='LIN',
                               TITRE='SINUS OMEGA T'
                            )

#
# 1- SCHEMA NEWMARK
#

DYNMODNE=DYNA_TRAN_MODAL(  METHODE='NEWMARK',
                              MASS_GENE=MASSEGEN,  RIGI_GENE=RIGIDGEN,
                              AMOR_GENE=AMORTGEN,
                             EXCIT=_F(  VECT_GENE = EFFOGENE,
#                                     FONC_MULT = FONCMULT),
                                     FONC_MULT = SINOMEGT),
                             INCREMENT=_F( 

                             INST_INIT = 0.,  INST_FIN = 0.5,
                             PAS = 0.001)                )

#
# 2- SCHEMA EULER
#

DYNMODEU=DYNA_TRAN_MODAL(  METHODE='EULER',
                              MASS_GENE=MASSEGEN,  RIGI_GENE=RIGIDGEN,
                              AMOR_GENE=AMORTGEN,
                             EXCIT=_F(  VECT_GENE = EFFOGENE,
#                                     FONC_MULT = FONCMULT),
                                    FONC_MULT = SINOMEGT),
                             INCREMENT=_F( 
                             INST_INIT = 0.,  INST_FIN = 0.5,
                             PAS = 0.001)                   )
#
# 3- SCHEMA NEWMARK AVEC AMORTISSEMENT MODAL
#

DYNMONE2=DYNA_TRAN_MODAL(  METHODE='NEWMARK',
                              MASS_GENE=MASSEGEN,  RIGI_GENE=RIGIDGEN,
                              AMOR_REDUIT=1.00,
                             EXCIT=_F(  VECT_GENE = EFFOGENE,
#                                     FONC_MULT = FONCMULT),
                                     FONC_MULT = SINOMEGT),
                             INCREMENT=_F( 

                             INST_INIT = 0.,  INST_FIN = 0.5,
                             PAS = 0.001) 
                                               )
#
# 3- SCHEMA NEWMARK AVEC AMORTISSEMENT MODAL ET STOCKAGE REDUIT
#

DYNMONE3=DYNA_TRAN_MODAL(  METHODE='NEWMARK',
                              MASS_GENE=MASSEGE2,  RIGI_GENE=RIGIDGE2,
                              AMOR_REDUIT=1.00,
                             EXCIT=_F(  VECT_GENE = EFFOGEN2,
#                                     FONC_MULT = FONCMULT),
                                     FONC_MULT = SINOMEGT),
                             INCREMENT=_F( 

                             INST_INIT = 0.,  INST_FIN = 0.5,
                             PAS = 0.001)                   )                             
# 
# DEFINITION DES INSTANTS DE CALCUL DE LA SOLUTION
#-------------------------------------------------
L_REELD=( 0.06, 0.12, 0.19, 0.25, 0.31, 0.38, 0.44, )

LISTRD=DEFI_LIST_REEL(  VALE=L_REELD )

L_REELV=( 0.03, 0.09, 0.16, 0.22, 0.28, 0.35, 0.41, 0.47, )

LISTRV=DEFI_LIST_REEL(  VALE=L_REELV )

#
# RETOUR DANS L ESPACE PHYSIQUE
# -----------------------------
#
#
DYTRANED=REST_GENE_PHYS(  RESU_GENE=DYNMODNE,    NOM_CHAM='DEPL',
                            LIST_INST=LISTRD,   INTERPOL='LIN'    )

DYTRAEUD=REST_GENE_PHYS(  RESU_GENE=DYNMODEU,    NOM_CHAM='DEPL',
                            LIST_INST=LISTRD,   INTERPOL='LIN'    )

DYTRANEV=REST_GENE_PHYS(  RESU_GENE=DYNMODNE,    NOM_CHAM='VITE',
                            LIST_INST=LISTRV,   INTERPOL='LIN'    )

DYTRAEUV=REST_GENE_PHYS(  RESU_GENE=DYNMODEU,    NOM_CHAM='VITE',
                            LIST_INST=LISTRV,   INTERPOL='LIN'    )
                            
DYTRANE2=REST_GENE_PHYS(  RESU_GENE=DYNMONE2,    NOM_CHAM='DEPL',
                            LIST_INST=LISTRD,   INTERPOL='LIN'    )
                            
DYTRANE3=REST_GENE_PHYS(  RESU_GENE=DYNMONE3,    NOM_CHAM='DEPL',
                            LIST_INST=LISTRD,   INTERPOL='LIN'    )
#
# TESTS PAR RAPPORT A SOLUTION DE REFERENCE
#
#
#DEPLACEMENTS
#
TEST_RESU( RESU=_F(  RESULTAT = DYTRANED,  NUME_ORDRE = 1,
                  NOM_CHAM = 'DEPL', PRECISION = 0.005,
                  NOEUD = 'N2',NOM_CMP = 'DX', VALE = 1.18914E-4)  )

TEST_RESU( RESU=_F(  RESULTAT = DYTRANED,  NUME_ORDRE = 2,
                  NOM_CHAM = 'DEPL', PRECISION = 0.005,
                  NOEUD = 'N2',NOM_CMP = 'DX', VALE = -9.42819E-5)  )

TEST_RESU( RESU=_F(  RESULTAT = DYTRANED,  NUME_ORDRE = 3,
                  NOM_CHAM = 'DEPL', PRECISION = 0.005,
                  NOEUD = 'N2',NOM_CMP = 'DX', VALE = 9.97958E-5)  )

TEST_RESU( RESU=_F(  RESULTAT = DYTRANED,  NUME_ORDRE = 4,
                  NOM_CHAM = 'DEPL', PRECISION = 0.005,
                  NOEUD = 'N2',NOM_CMP = 'DX', VALE = -9.97748E-5)  )

TEST_RESU( RESU=_F(  RESULTAT = DYTRANED,  NUME_ORDRE = 5,
                  NOM_CHAM = 'DEPL', PRECISION = 0.005,
                  NOEUD = 'N2',NOM_CMP = 'DX', VALE = 9.78457E-5)  )

TEST_RESU( RESU=_F(  RESULTAT = DYTRANED,  NUME_ORDRE = 6,
                  NOM_CHAM = 'DEPL', PRECISION = 0.005,
                  NOEUD = 'N2',NOM_CMP = 'DX', VALE = -9.88705E-5)  )

TEST_RESU( RESU=_F(  RESULTAT = DYTRANED,  NUME_ORDRE = 7,
                  NOM_CHAM = 'DEPL', PRECISION = 0.005,
                  NOEUD = 'N2',NOM_CMP = 'DX', VALE = 9.99961E-5)  )

TEST_RESU( RESU=_F(  RESULTAT = DYTRAEUD,  NUME_ORDRE = 1,
                  NOM_CHAM = 'DEPL', PRECISION = 0.005,
                  NOEUD = 'N2',NOM_CMP = 'DX', VALE = 1.18914E-4)  )

TEST_RESU( RESU=_F(  RESULTAT = DYTRAEUD,  NUME_ORDRE = 2,
                  NOM_CHAM = 'DEPL', PRECISION = 0.006,
                  NOEUD = 'N2',NOM_CMP = 'DX', VALE = -9.42819E-5)  )

TEST_RESU( RESU=_F(  RESULTAT = DYTRAEUD,  NUME_ORDRE = 3,
                  NOM_CHAM = 'DEPL', PRECISION = 0.005,
                  NOEUD = 'N2',NOM_CMP = 'DX', VALE = 9.97958E-5)  )

TEST_RESU( RESU=_F(  RESULTAT = DYTRAEUD,  NUME_ORDRE = 4,
                  NOM_CHAM = 'DEPL', PRECISION = 0.005,
                  NOEUD = 'N2',NOM_CMP = 'DX', VALE = -9.97748E-5)  )

TEST_RESU( RESU=_F(  RESULTAT = DYTRAEUD,  NUME_ORDRE = 5,
                  NOM_CHAM = 'DEPL', PRECISION = 0.006,
                  NOEUD = 'N2',NOM_CMP = 'DX', VALE = 9.78457E-5)  )

TEST_RESU( RESU=_F(  RESULTAT = DYTRAEUD,  NUME_ORDRE = 6,
                  NOM_CHAM = 'DEPL', PRECISION = 0.005,
                  NOEUD = 'N2',NOM_CMP = 'DX', VALE = -9.88705E-5)  )

TEST_RESU( RESU=_F(  RESULTAT = DYTRAEUD,  NUME_ORDRE = 7,
                  NOM_CHAM = 'DEPL', PRECISION = 0.005,
                  NOEUD = 'N2',NOM_CMP = 'DX', VALE = 9.99961E-5)  )

TEST_RESU( RESU=_F(  RESULTAT = DYTRANE2,  NUME_ORDRE = 1,
                  REFERENCE = 'AUTRE_ASTER',
                  NOM_CHAM = 'DEPL', PRECISION = 0.005,
                  NOEUD = 'N2',NOM_CMP = 'DX', VALE = 1.18914E-4)  )

TEST_RESU( RESU=_F(  RESULTAT = DYTRANE2,  NUME_ORDRE = 2,
                  REFERENCE = 'AUTRE_ASTER',
                  NOM_CHAM = 'DEPL', PRECISION = 0.005,
                  NOEUD = 'N2',NOM_CMP = 'DX', VALE = -9.42819E-5)  )

TEST_RESU( RESU=_F(  RESULTAT = DYTRANE2,  NUME_ORDRE = 3,
                  REFERENCE = 'AUTRE_ASTER',
                  NOM_CHAM = 'DEPL', PRECISION = 0.005,
                  NOEUD = 'N2',NOM_CMP = 'DX', VALE = 9.97958E-5)  )

TEST_RESU( RESU=_F(  RESULTAT = DYTRANE2,  NUME_ORDRE = 4,
                  REFERENCE = 'AUTRE_ASTER',
                  NOM_CHAM = 'DEPL', PRECISION = 0.005,
                  NOEUD = 'N2',NOM_CMP = 'DX', VALE = -9.97748E-5)  )

TEST_RESU( RESU=_F(  RESULTAT = DYTRANE2,  NUME_ORDRE = 5,
                  REFERENCE = 'AUTRE_ASTER',
                  NOM_CHAM = 'DEPL', PRECISION = 0.005,
                  NOEUD = 'N2',NOM_CMP = 'DX', VALE = 9.78457E-5)  )

TEST_RESU( RESU=_F(  RESULTAT = DYTRANE2,  NUME_ORDRE = 6,
                  REFERENCE = 'AUTRE_ASTER',
                  NOM_CHAM = 'DEPL', PRECISION = 0.005,
                  NOEUD = 'N2',NOM_CMP = 'DX', VALE = -9.88705E-5)  )

TEST_RESU( RESU=_F(  RESULTAT = DYTRANE2,  NUME_ORDRE = 7,
                  REFERENCE = 'AUTRE_ASTER',
                  NOM_CHAM = 'DEPL', PRECISION = 0.005,
                  NOEUD = 'N2',NOM_CMP = 'DX', VALE = 9.99961E-5)  )
                  
TEST_RESU( RESU=_F(  RESULTAT = DYTRANE3,  NUME_ORDRE = 1,
                  REFERENCE = 'AUTRE_ASTER',
                  NOM_CHAM = 'DEPL', PRECISION = 0.005,
                  NOEUD = 'N2',NOM_CMP = 'DX', VALE = 1.18914E-4)  )

TEST_RESU( RESU=_F(  RESULTAT = DYTRANE3,  NUME_ORDRE = 2,
                  REFERENCE = 'AUTRE_ASTER',
                  NOM_CHAM = 'DEPL', PRECISION = 0.005,
                  NOEUD = 'N2',NOM_CMP = 'DX', VALE = -9.42819E-5)  )

TEST_RESU( RESU=_F(  RESULTAT = DYTRANE3,  NUME_ORDRE = 3,
                  REFERENCE = 'AUTRE_ASTER',
                  NOM_CHAM = 'DEPL', PRECISION = 0.005,
                  NOEUD = 'N2',NOM_CMP = 'DX', VALE = 9.97958E-5)  )

TEST_RESU( RESU=_F(  RESULTAT = DYTRANE3,  NUME_ORDRE = 4,
                  REFERENCE = 'AUTRE_ASTER',
                  NOM_CHAM = 'DEPL', PRECISION = 0.005,
                  NOEUD = 'N2',NOM_CMP = 'DX', VALE = -9.97748E-5)  )

TEST_RESU( RESU=_F(  RESULTAT = DYTRANE3,  NUME_ORDRE = 5,
                  REFERENCE = 'AUTRE_ASTER',
                  NOM_CHAM = 'DEPL', PRECISION = 0.005,
                  NOEUD = 'N2',NOM_CMP = 'DX', VALE = 9.78457E-5)  )

TEST_RESU( RESU=_F(  RESULTAT = DYTRANE3,  NUME_ORDRE = 6,
                  REFERENCE = 'AUTRE_ASTER',
                  NOM_CHAM = 'DEPL', PRECISION = 0.005,
                  NOEUD = 'N2',NOM_CMP = 'DX', VALE = -9.88705E-5)  )

TEST_RESU( RESU=_F(  RESULTAT = DYTRANE3,  NUME_ORDRE = 7,
                  REFERENCE = 'AUTRE_ASTER',
                  NOM_CHAM = 'DEPL', PRECISION = 0.005,
                  NOEUD = 'N2',NOM_CMP = 'DX', VALE = 9.99961E-5)  )
#
#VITESSES
#
TEST_RESU( RESU=_F(  RESULTAT = DYTRANEV,  NUME_ORDRE = 1,
                  NOM_CHAM = 'VITE', PRECISION = 0.005,
                  NOEUD = 'N2',NOM_CMP = 'DX', VALE = 3.31400E-3)  )

TEST_RESU( RESU=_F(  RESULTAT = DYTRANEV,  NUME_ORDRE = 2,
                  NOM_CHAM = 'VITE', PRECISION = 0.005,
                  NOEUD = 'N2',NOM_CMP = 'DX', VALE = -5.13760E-3)  )

TEST_RESU( RESU=_F(  RESULTAT = DYTRANEV,  NUME_ORDRE = 3,
                  NOM_CHAM = 'VITE', PRECISION = 0.005,
                  NOEUD = 'N2',NOM_CMP = 'DX', VALE = 4.93337E-3)  )

TEST_RESU( RESU=_F(  RESULTAT = DYTRANEV,  NUME_ORDRE = 4,
                  NOM_CHAM = 'VITE', PRECISION = 0.005,
                  NOEUD = 'N2',NOM_CMP = 'DX', VALE = -5.00087E-3)  )

TEST_RESU( RESU=_F(  RESULTAT = DYTRANEV,  NUME_ORDRE = 5,
                  NOM_CHAM = 'VITE', PRECISION = 0.005,
                  NOEUD = 'N2',NOM_CMP = 'DX', VALE = 4.95298E-3)  )

TEST_RESU( RESU=_F(  RESULTAT = DYTRANEV,  NUME_ORDRE = 6,
                  NOM_CHAM = 'VITE', PRECISION = 0.005,
                  NOEUD = 'N2',NOM_CMP = 'DX', VALE = -4.87813E-3)  )

TEST_RESU( RESU=_F(  RESULTAT = DYTRANEV,  NUME_ORDRE = 7,
                  NOM_CHAM = 'VITE', PRECISION = 0.005,
                  NOEUD = 'N2',NOM_CMP = 'DX', VALE = 4.98415E-3)  )

TEST_RESU( RESU=_F(  RESULTAT = DYTRANEV,  NUME_ORDRE = 8,
                  NOM_CHAM = 'VITE', PRECISION = 0.005,
                  NOEUD = 'N2',NOM_CMP = 'DX', VALE = -4.99041E-3)  )

TEST_RESU( RESU=_F(  RESULTAT = DYTRAEUV,  NUME_ORDRE = 1,
                  NOM_CHAM = 'VITE', PRECISION = 0.005,
                  NOEUD = 'N2',NOM_CMP = 'DX', VALE = 3.31400E-3)  )

TEST_RESU( RESU=_F(  RESULTAT = DYTRAEUV,  NUME_ORDRE = 2,
                  NOM_CHAM = 'VITE', PRECISION = 0.005,
                  NOEUD = 'N2',NOM_CMP = 'DX', VALE = -5.13760E-3)  )

TEST_RESU( RESU=_F(  RESULTAT = DYTRAEUV,  NUME_ORDRE = 3,
                  NOM_CHAM = 'VITE', PRECISION = 0.005,
                  NOEUD = 'N2',NOM_CMP = 'DX', VALE = 4.93337E-3)  )

TEST_RESU( RESU=_F(  RESULTAT = DYTRAEUV,  NUME_ORDRE = 4,
                  NOM_CHAM = 'VITE', PRECISION = 0.005,
                  NOEUD = 'N2',NOM_CMP = 'DX', VALE = -5.00087E-3)  )

TEST_RESU( RESU=_F(  RESULTAT = DYTRAEUV,  NUME_ORDRE = 5,
                  NOM_CHAM = 'VITE', PRECISION = 0.005,
                  NOEUD = 'N2',NOM_CMP = 'DX', VALE = 4.95298E-3)  )

TEST_RESU( RESU=_F(  RESULTAT = DYTRAEUV,  NUME_ORDRE = 6,
                  NOM_CHAM = 'VITE', PRECISION = 0.005,
                  NOEUD = 'N2',NOM_CMP = 'DX', VALE = -4.87813E-3)  )

TEST_RESU( RESU=_F(  RESULTAT = DYTRAEUV,  NUME_ORDRE = 7,
                  NOM_CHAM = 'VITE', PRECISION = 0.005,
                  NOEUD = 'N2',NOM_CMP = 'DX', VALE = 4.98415E-3)  )

TEST_RESU( RESU=_F(  RESULTAT = DYTRAEUV,  NUME_ORDRE = 8,
                  NOM_CHAM = 'VITE', PRECISION = 0.005,
                  NOEUD = 'N2',NOM_CMP = 'DX', VALE = -4.99041E-3)  )

FIN( )
#
#
