# MODIF  DATE 10/10/2012   AUTEUR COURTOIS M.COURTOIS 
# TITRE SOUS-STRUCT. TRANSITOIRE : SYSTEME MASSES-RESSORTS AMORTI
# sdld102c.para = tps_job 120 mem_job 512Mo ncpus 1 liste_test S
#            CONFIGURATION MANAGEMENT OF EDF VERSION
# ======================================================================
# COPYRIGHT (C) 1991 - 2012  EDF R&D                  WWW.CODE-ASTER.ORG
# THIS PROGRAM IS FREE SOFTWARE; YOU CAN REDISTRIBUTE IT AND/OR MODIFY
# IT UNDER THE TERMS OF THE GNU GENERAL PUBLIC LICENSE AS PUBLISHED BY
# THE FREE SOFTWARE FOUNDATION; EITHER VERSION 2 OF THE LICENSE, OR
# (AT YOUR OPTION) ANY LATER VERSION.
#
# THIS PROGRAM IS DISTRIBUTED IN THE HOPE THAT IT WILL BE USEFUL, BUT
# WITHOUT ANY WARRANTY; WITHOUT EVEN THE IMPLIED WARRANTY OF
# MERCHANTABILITY OR FITNESS FOR A PARTICULAR PURPOSE. SEE THE GNU
# GENERAL PUBLIC LICENSE FOR MORE DETAILS.
#
# YOU SHOULD HAVE RECEIVED A COPY OF THE GNU GENERAL PUBLIC LICENSE
# ALONG WITH THIS PROGRAM; IF NOT, WRITE TO EDF R&D CODE_ASTER,
#    1 AVENUE DU GENERAL DE GAULLE, 92141 CLAMART CEDEX, FRANCE.
# ======================================================================
# CAS_TEST__: SDLD102C
#
# CE FICHIER DE COMMANDES CONTIENT LES INSTRUCTIONS POUR CALCULER LA
# REPONSE TRANSITOIRE PAR SOUS-STRUCTURATION D'UN SYSTEME COMPOSE DE
# 3 MASSES ET 4 RESSORTS SOUMIS A UNE FORCE CONSTANTE ET AMORTI.
#
# L'AMORTISSEMENT CONSIDERE EST UN AMORTISSEMENT REDUIT ASSOCIE AUX
# MODES DYNAMIQUES DES BASES DE PROJECTION DES SOUS-STRUCTURES.
#
# LA BASE DE PROJECTION DES SOUS-STRUCTURES EST DE TYPE 'CRAIGB'.
#
# 3 SCHEMAS D'INTEGRATION DE DYNA_VIBRA ('EULER', 'NEWMARK'
# ET 'ADAPT') SONT TESTES (LE SCHEME 'DEVOGE' NE SUPPORTANT PAS LA
# PRISE EN COMPTE DE L'AMORTISSEMENT).
#
# A PARTIR DU NUME_DDL_GENE, ON DUPLIQUE LE CALCUL (L'UN BASE SUR LES
# MODES CALCULES PAR MODE_ITER_SIMULT ET L'AUTRE BASE SUR MODE_ITER_INV)
# POUR TESTER L'ISOFONCTIONNALITE DES 2 OPERATEURS EN CAS DE
# NUME_DDL_GENE. D'AUTRE PART ON CHOISIT (A TORT) L'USAGE DU SOLVEUR
# LINEAIRE MULT_FRONT POUR FORCER LE CHANGEMENT EN INTERNE OPERATEUR
# POUR MUMPS.
# ON TESTE AUSSI DS CETTE CONFIGURATION L'OPERATEUR INFO_MODE
#
DEBUT(CODE=_F( NOM = 'SDLD102C',NIV_PUB_WEB='INTERNET'),DEBUG=_F(SDVERI='OUI'))

#
MAILLA=LIRE_MAILLAGE( )

#
MODELE=AFFE_MODELE(  MAILLAGE=MAILLA,AFFE=(
                            _F( GROUP_MA = 'RESSORT',
                                  PHENOMENE = 'MECANIQUE',
                                  MODELISATION = 'DIS_TR'),
                            _F( GROUP_NO = 'MASSE',
                                  PHENOMENE = 'MECANIQUE',
                                  MODELISATION = 'DIS_T')))

#
PARAM=AFFE_CARA_ELEM(    MODELE=MODELE,DISCRET=(
                            _F( GROUP_MA = 'RESSORT',
                                     CARA = 'K_TR_D_L',
                                     VALE = (1., 0., 0., 0., 0., 0., )),
                               _F(CARA='M_TR_L',
                                  GROUP_MA='RESSORT',
                                  VALE=(0.,0.,0.,0.,0.,0.,0.,0.,0.,0.,0.,0.,0.,0.,0.,0.,0.,0.,0.,0.,
                                        0.,0.,0.,0.,0.,0.,0.,0.,0.,0.,0.,0.,0.,0.,0.,0.,0.,0.,0.,0.,
                                        0.,0.,0.,0.,0.,0.,0.,0.,0.,0.,0.,0.,0.,0.,0.,0.,0.,0.,0.,0.,
                                        0.,0.,0.,0.,0.,0.,0.,0.,0.,0.,0.,0.,0.,0.,0.,0.,0.,0.,),),
                            _F( GROUP_NO = 'MASSE',
                                     CARA = 'M_T_D_N',
                                     VALE = (1., ))))

#  DEFINITION DU CHARGEMENT
#------------------------------------------------------------------

CHARGE=AFFE_CHAR_MECA(  MODELE=MODELE,DDL_IMPO=(
         _F( TOUT = 'OUI', DY = 0.0,  DZ = 0.0, DRX = 0., DRY = 0., DRZ = 0.),
         _F( NOEUD = 'NO1',  DX = 0.0),
         _F( NOEUD = 'NO3',  DX = 0.0)))

#
CHARTRAN=AFFE_CHAR_MECA(        MODELE=MODELE,
                           FORCE_NODALE=_F( NOEUD = 'NO2',  FX = 1.))

#  MATRICES ET VECTEURS ELEMENTS FINIS
#------------------------------------------------------------------

K_ELEM=CALC_MATR_ELEM(      MODELE=MODELE,
                                CHARGE=CHARGE,
                             CARA_ELEM=PARAM,
                               OPTION='RIGI_MECA')

#
M_ELEM=CALC_MATR_ELEM(      MODELE=MODELE,
                                CHARGE=CHARGE,
                             CARA_ELEM=PARAM,
                               OPTION='MASS_MECA')

#
V_ELEM=CALC_VECT_ELEM( OPTION='CHAR_MECA',
                            CHARGE=CHARTRAN)

#  NUMEROTATION DU PROBLEME ELEMENTS FINIS
#------------------------------------------------------------------

NUMDDL=NUME_DDL(  MATR_RIGI=K_ELEM)

#  ASSEMBLAGE DES MATRICES ET VECTEURS
#------------------------------------------------------------------

K_ASSE=ASSE_MATRICE(  MATR_ELEM=K_ELEM,
                           NUME_DDL=NUMDDL)

#
M_ASSE=ASSE_MATRICE(  MATR_ELEM=M_ELEM,
                           NUME_DDL=NUMDDL)

#
V_ASSE=ASSE_VECTEUR(  VECT_ELEM=V_ELEM,
                           NUME_DDL=NUMDDL)

#  CALCUL DES MODES PROPRES DES SOUS-STRUCTURES
#------------------------------------------------------------------

MODES=MODE_ITER_SIMULT(     MATR_RIGI=K_ASSE,
                                 MATR_MASS=M_ASSE, INFO=2,
                          SOLVEUR=_F(METHODE='MUMPS',),
                             CALC_FREQ=_F( NMAX_FREQ = 1))

#  DEFINITION DES INTERFACES
#------------------------------------------------------------------

LINT1=DEFI_INTERF_DYNA(   NUME_DDL=NUMDDL,
                             INTERFACE=_F( NOM = 'DROITE',
                                        TYPE = 'CRAIGB',
                                        NOEUD = 'NO3',
                         MASQUE = ('DY', 'DZ', 'DRX', 'DRY', 'DRZ',)))

#
LINT2=DEFI_INTERF_DYNA(   NUME_DDL=NUMDDL,
                             INTERFACE=_F( NOM = 'GAUCHE',
                                        TYPE = 'CRAIGB',
                                        NOEUD = 'NO1',
                         MASQUE = ('DY', 'DZ', 'DRX', 'DRY', 'DRZ',)))

#  CALCUL DE LA BASE MODALE DES SOUS-STRUCTURES
#------------------------------------------------------------------

BAMO1=DEFI_BASE_MODALE( CLASSIQUE=_F( INTERF_DYNA = LINT1,
                                        MODE_MECA = MODES,
                                        NMAX_MODE = 1))

#
BAMO2=DEFI_BASE_MODALE( CLASSIQUE=_F( INTERF_DYNA = LINT2,
                                        MODE_MECA = MODES,
                                        NMAX_MODE = 1))

#  CALCUL DU MACRO-ELEMENT
#------------------------------------------------------------------

MACEL1=MACR_ELEM_DYNA(  BASE_MODALE=BAMO1,
                       AMOR_REDUIT=(0.01,))

MACEL2=MACR_ELEM_DYNA(  BASE_MODALE=BAMO2,
                        AMOR_REDUIT=(0.01,))

#  DEFINITION DU MODELE GENERALISE
#------------------------------------------------------------------

MODEGE=DEFI_MODELE_GENE(SOUS_STRUC=(_F(NOM='COTE1',
                                       MACR_ELEM_DYNA=MACEL1,
                                       ANGL_NAUT = (0., 0., 0.,),
                                       TRANS=(0.,0.,0.),),
                                    _F(NOM='COTE2',
                                       MACR_ELEM_DYNA=MACEL2,
                                       ANGL_NAUT = (0., 0., 0.,),
                                       TRANS=(0.2,0.,0.),),),
                             LIAISON=_F( SOUS_STRUC_1 = 'COTE1',
                                      SOUS_STRUC_2 = 'COTE2',
                                      INTERFACE_1 = 'DROITE',
                                      INTERFACE_2 = 'GAUCHE'),
                               VERIF=_F( STOP_ERREUR = 'OUI',
                                      PRECISION = 1.E-6,
                                      CRITERE = 'RELATIF'))

#  NUMEROTATION DU PROBLEME GENERALISE
#------------------------------------------------------------------

NUMEGE=NUME_DDL_GENE(  MODELE_GENE=MODEGE)

#  ASSEMBLAGE DES MATRICES ET VECTEURS
#------------------------------------------------------------------

MASGEN=ASSE_MATR_GENE(  NUME_DDL_GENE=NUMEGE,
                                  OPTION='MASS_GENE')

#
RIGGEN=ASSE_MATR_GENE(  NUME_DDL_GENE=NUMEGE,
                                  OPTION='RIGI_GENE')

#
AMOGEN=ASSE_MATR_GENE(  NUME_DDL_GENE=NUMEGE,
                                  OPTION='AMOR_GENE')

#
FGEN=ASSE_VECT_GENE(    NUME_DDL_GENE=NUMEGE,
                         CHAR_SOUS_STRUC=_F( SOUS_STRUC = 'COTE1',
                                          VECT_ASSE = V_ASSE))

#  CALCUL DES MODES PROPRES DE LA STRUCTURE GLOBALE (SUIVANT  2 SOLVEURS
#  MODAUX DISTINCTS)
#------------------------------------------------------------------
# ON CHOISIT (A TORT) L'USAGE DU SOLVEUR LINEAIRE MULT_FRONT POUR FORCER
# LE CHANGEMENT EN INTERNE OPERATEUR POUR MUMPS
NB_MODES=INFO_MODE(MATR_RIGI=RIGGEN,MATR_MASS=MASGEN,FREQ_MAX=3.E-1,
           SOLVEUR=_F(METHODE='MULT_FRONT'))


TEST_TABLE(REFERENCE='ANALYTIQUE',
           VALE_CALC_I=3,
           VALE_REFE_I=3,
           NOM_PARA='NB_MODE',
           TABLE=NB_MODES,)

# CAS 1
RESGEN=MODE_ITER_SIMULT(MATR_RIGI=RIGGEN, MATR_MASS=MASGEN,INFO=2,
                        CALC_FREQ=_F(OPTION = 'PLUS_PETITE',
                                     NMAX_FREQ = 3),
                        SOLVEUR=_F(METHODE='MULT_FRONT',),)


MODGLO=REST_SOUS_STRUC(   RESU_GENE=RESGEN,
                           SOUS_STRUC='COTE1',
                           TOUT_ORDRE='OUI')
# CAS 2
RESGEN2=MODE_ITER_INV(MATR_RIGI=RIGGEN,MATR_MASS=MASGEN,
                        SOLVEUR=_F(METHODE='MULT_FRONT',),
                 CALC_FREQ=_F( OPTION = 'PROCHE',
               FREQ = ( 1.21E-1,  2.25E-1, 2.94E-1,)) )

MODGLO2=REST_SOUS_STRUC(   RESU_GENE=RESGEN2,
                           SOUS_STRUC='COTE1',
                           TOUT_ORDRE='OUI')

#  NUMEROTATION DU PROBLEME GENERALISE
#------------------------------------------------------------------

NUMEMODE=NUME_DDL_GENE(BASE=RESGEN,STOCKAGE='PLEIN')
NUMEMOD2=NUME_DDL_GENE(BASE=RESGEN2,STOCKAGE='PLEIN')

#  MATRICES ET VECTEURS GENERALISES
#------------------------------------------------------------------

MASPRO=PROJ_MATR_BASE( BASE=RESGEN,NUME_DDL_GENE=NUMEMODE,
                       MATR_ASSE_GENE=MASGEN)
RIGPRO=PROJ_MATR_BASE( BASE=RESGEN,NUME_DDL_GENE=NUMEMODE,
                       MATR_ASSE_GENE=RIGGEN)
AMOPRO=PROJ_MATR_BASE( BASE=RESGEN,NUME_DDL_GENE=NUMEMODE,
                       MATR_ASSE_GENE=AMOGEN)
VECPRO=PROJ_VECT_BASE( BASE=RESGEN,NUME_DDL_GENE=NUMEMODE,
                       VECT_ASSE_GENE=FGEN)

MASPRO2=PROJ_MATR_BASE( BASE=RESGEN2,NUME_DDL_GENE=NUMEMOD2,
                       MATR_ASSE_GENE=MASGEN)
RIGPRO2=PROJ_MATR_BASE( BASE=RESGEN2,NUME_DDL_GENE=NUMEMOD2,
                       MATR_ASSE_GENE=RIGGEN)
AMOPRO2=PROJ_MATR_BASE( BASE=RESGEN2,NUME_DDL_GENE=NUMEMOD2,
                       MATR_ASSE_GENE=AMOGEN)
VECPRO2=PROJ_VECT_BASE( BASE=RESGEN2,NUME_DDL_GENE=NUMEMOD2,
                       VECT_ASSE_GENE=FGEN)

LIST_R=DEFI_LIST_REEL(       DEBUT=0.,
                           INTERVALLE=_F( JUSQU_A = 80.,
                                       NOMBRE = 10))

#  CALCULS TRANSITOIRES
#-----------------------------------------------------------------

# CAS 1
TRANGEN1=DYNA_VIBRA(TYPE_CALCUL='TRAN',BASE_CALCUL='GENE',
                             SCHEMA_TEMPS=_F(SCHEMA='EULER',),
                             MATR_MASS=MASPRO,
                             MATR_RIGI=RIGPRO,
                             MATR_AMOR=AMOPRO,
                                EXCIT=_F( VECT_ASSE_GENE = VECPRO,
                                       COEF_MULT = 1.),
                            INCREMENT=_F( INST_INIT = 0.,
                                       INST_FIN = 82.,
                                       PAS = 0.01),
                            ARCHIVAGE=_F( PAS_ARCH = 10)
                            )
TRANGEN2=DYNA_VIBRA(TYPE_CALCUL='TRAN',BASE_CALCUL='GENE',
                             SCHEMA_TEMPS=_F(SCHEMA='NEWMARK',
                                            BETA=0.27,GAMMA=0.52),
                             MATR_MASS=MASPRO,
                             MATR_RIGI=RIGPRO,
                             MATR_AMOR=AMOPRO,
                                EXCIT=_F( VECT_ASSE_GENE = VECPRO,
                                       COEF_MULT = 1.),
                            INCREMENT=_F( INST_INIT = 0.,
                                       INST_FIN = 82.,
                                       PAS = 0.01),
                            ARCHIVAGE=_F( PAS_ARCH = 10)
                            )
TRANGEN3=DYNA_VIBRA(TYPE_CALCUL='TRAN',BASE_CALCUL='GENE',
                             SCHEMA_TEMPS=_F(SCHEMA='ADAPT_ORDRE2',),
                             MATR_MASS=MASPRO,
                             MATR_RIGI=RIGPRO,
                             MATR_AMOR=AMOPRO,
                                EXCIT=_F( VECT_ASSE_GENE = VECPRO,
                                       COEF_MULT = 1.),
                            INCREMENT=_F( INST_INIT = 0.,
                                       INST_FIN = 82.,
# POUR AMELIORER LE TEMPS CPU ON A IMPOSE UN PAS_MAXI PLUS GRAND QUE PAS
                                       PAS_MAXI = 0.1,
                                       PAS = 0.01,
                                       NB_POIN_PERIODE = 300,
                                       VITE_MIN = 'MAXI'),
                            ARCHIVAGE=_F( PAS_ARCH = 10)
                            )
# CAS 2
TRANGEN4=DYNA_VIBRA(TYPE_CALCUL='TRAN',BASE_CALCUL='GENE',
                             SCHEMA_TEMPS=_F(SCHEMA='EULER',),
                             MATR_MASS=MASPRO2,
                             MATR_RIGI=RIGPRO2,
                             MATR_AMOR=AMOPRO2,
                                EXCIT=_F( VECT_ASSE_GENE = VECPRO2,
                                       COEF_MULT = 1.),
                            INCREMENT=_F( INST_INIT = 0.,
                                       INST_FIN = 82.,
                                       PAS = 0.01),
                            ARCHIVAGE=_F( PAS_ARCH = 10)
                            )
TRANGEN5=DYNA_VIBRA(TYPE_CALCUL='TRAN',BASE_CALCUL='GENE',
                             SCHEMA_TEMPS=_F(SCHEMA='NEWMARK',),
                             MATR_MASS=MASPRO2,
                             MATR_RIGI=RIGPRO2,
                             MATR_AMOR=AMOPRO2,
                                EXCIT=_F( VECT_ASSE_GENE = VECPRO2,
                                       COEF_MULT = 1.),
                            INCREMENT=_F( INST_INIT = 0.,
                                       INST_FIN = 82.,
                                       PAS = 0.01),
                            ARCHIVAGE=_F( PAS_ARCH = 10)
                            )
TRANGEN6=DYNA_VIBRA(TYPE_CALCUL='TRAN',BASE_CALCUL='GENE',
                             SCHEMA_TEMPS=_F(SCHEMA='ADAPT_ORDRE2',),
                             MATR_MASS=MASPRO2,
                             MATR_RIGI=RIGPRO2,
                             MATR_AMOR=AMOPRO2,
                                EXCIT=_F( VECT_ASSE_GENE = VECPRO2,
                                       COEF_MULT = 1.),
                            INCREMENT=_F( INST_INIT = 0.,
                                       INST_FIN = 82.,
                                       PAS_MAXI = 0.1,
                                       PAS = 0.01,
                                       NB_POIN_PERIODE = 300,
                                       VITE_MIN = 'MAXI'),
                            ARCHIVAGE=_F( PAS_ARCH = 10)
                            )
#  RESTITUTIONS
#------------------------------------------------------------------

# CAS 1
TRAN1=REST_GENE_PHYS(   RESU_GENE=TRANGEN1,
                        TOUT_CHAM='OUI',
                        LIST_INST=LIST_R,
                        INTERPOL='LIN',
                        MODE_MECA=MODGLO )
TRAN2=REST_GENE_PHYS(   RESU_GENE=TRANGEN2,
                        TOUT_CHAM='OUI',
                        LIST_INST=LIST_R,
                        INTERPOL='LIN',
                        MODE_MECA=MODGLO )
TRAN3=REST_GENE_PHYS(   RESU_GENE=TRANGEN3,
                        TOUT_CHAM='OUI',
                        LIST_INST=LIST_R,
                        INTERPOL='LIN',
                        MODE_MECA=MODGLO )
TEST_RESU(RESU=_F(INST=80.0,
                  RESULTAT=TRAN1,
                  NOM_CHAM='DEPL',
                  NOEUD='NO3',
                  NOM_CMP='DX',
                  VALE_CALC=0.496371220,
                  VALE_REFE=0.49867,
                  REFERENCE='NON_DEFINI',
                  CRITERE='RELATIF',
                  PRECISION=1.E-2,),
          )

TEST_RESU(RESU=_F(INST=80.0,
                  RESULTAT=TRAN2,
                  NOM_CHAM='DEPL',
                  NOEUD='NO3',
                  NOM_CMP='DX',
                  VALE_CALC=0.499329924,
                  VALE_REFE=0.49867,
                  REFERENCE='NON_DEFINI',
                  CRITERE='RELATIF',
                  PRECISION=1.E-2,),
          )

TEST_RESU(RESU=_F(INST=80.0,
                  RESULTAT=TRAN3,
                  NOM_CHAM='DEPL',
                  NOEUD='NO3',
                  NOM_CMP='DX',
                  VALE_CALC=0.498697649,
                  VALE_REFE=0.49867,
                  REFERENCE='NON_DEFINI',
                  CRITERE='RELATIF',
                  PRECISION=1.E-2,),
          )

# CAS 2
TRAN4=REST_GENE_PHYS(   RESU_GENE=TRANGEN4,
                        TOUT_CHAM='OUI',
                        LIST_INST=LIST_R,
                        INTERPOL='LIN',
                        MODE_MECA=MODGLO2 )
TRAN5=REST_GENE_PHYS(   RESU_GENE=TRANGEN5,
                        TOUT_CHAM='OUI',
                        LIST_INST=LIST_R,
                        INTERPOL='LIN',
                        MODE_MECA=MODGLO2 )
TRAN6=REST_GENE_PHYS(   RESU_GENE=TRANGEN6,
                        TOUT_CHAM='OUI',
                        LIST_INST=LIST_R,
                        INTERPOL='LIN',
                        MODE_MECA=MODGLO2 )
TEST_RESU(RESU=_F(INST=80.0,
                  RESULTAT=TRAN4,
                  NOM_CHAM='DEPL',
                  NOEUD='NO3',
                  NOM_CMP='DX',
                  VALE_CALC=0.496371220,
                  VALE_REFE=0.49867,
                  REFERENCE='NON_DEFINI',
                  CRITERE='RELATIF',
                  PRECISION=1.E-2,),
          )

TEST_RESU(RESU=_F(INST=80.0,
                  RESULTAT=TRAN5,
                  NOM_CHAM='DEPL',
                  NOEUD='NO3',
                  NOM_CMP='DX',
                  VALE_CALC=0.498828772,
                  VALE_REFE=0.49867,
                  REFERENCE='NON_DEFINI',
                  CRITERE='RELATIF',
                  PRECISION=1.E-2,),
          )

TEST_RESU(RESU=_F(INST=80.0,
                  RESULTAT=TRAN6,
                  NOM_CHAM='DEPL',
                  NOEUD='NO3',
                  NOM_CMP='DX',
                  VALE_CALC=0.498697649,
                  VALE_REFE=0.49867,
                  REFERENCE='NON_DEFINI',
                  CRITERE='RELATIF',
                  PRECISION=1.E-2,),
          )

#
FIN()
#
