# MODIF  DATE 19/09/2005   AUTEUR DURAND C.DURAND 
# TITRE SYSTEME MASSE-RESSORT A 8 DDL AVEC AMORTISSEMENT VISQUEUX
#            CONFIGURATION MANAGEMENT OF EDF VERSION
# ======================================================================
# COPYRIGHT (C) 1991 - 2001  EDF R&D                  WWW.CODE-ASTER.ORG
# THIS PROGRAM IS FREE SOFTWARE; YOU CAN REDISTRIBUTE IT AND/OR MODIFY
# IT UNDER THE TERMS OF THE GNU GENERAL PUBLIC LICENSE AS PUBLISHED BY
# THE FREE SOFTWARE FOUNDATION; EITHER VERSION 2 OF THE LICENSE, OR   
# (AT YOUR OPTION) ANY LATER VERSION.                                 
#
# THIS PROGRAM IS DISTRIBUTED IN THE HOPE THAT IT WILL BE USEFUL, BUT 
# WITHOUT ANY WARRANTY; WITHOUT EVEN THE IMPLIED WARRANTY OF          
# MERCHANTABILITY OR FITNESS FOR A PARTICULAR PURPOSE. SEE THE GNU    
# GENERAL PUBLIC LICENSE FOR MORE DETAILS.                            
#
# YOU SHOULD HAVE RECEIVED A COPY OF THE GNU GENERAL PUBLIC LICENSE   
# ALONG WITH THIS PROGRAM; IF NOT, WRITE TO EDF R&D CODE_ASTER,       
#    1 AVENUE DU GENERAL DE GAULLE, 92141 CLAMART CEDEX, FRANCE.      
# ======================================================================
# ----------------------------------------------------------------------
# SYSTEME MASSE-RESSORT A 8 DEGRES DE LIBERTE AVEC AMORTISSEMENT
# VISQUEUX PROPORTIONNEL (REPONSE HARMONIQUE)
# 9 RESSORTS  8 MASSES  -- K =1.E+5    M =10 --
#                                                 REF: SFM.VPCS SDLD21
# ----------------------------------------------------------------------

DEBUT( CODE=_F(  NOM = 'SDLD21A',NIV_PUB_WEB='INTERNET') )

MA=LIRE_MAILLAGE( )

MO=AFFE_MODELE(  MAILLAGE=MA,AFFE=( 
            _F( TOUT = 'OUI',PHENOMENE = 'MECANIQUE',MODELISATION = 'DIS_T'),
      _F( GROUP_NO = 'MASSE',PHENOMENE = 'MECANIQUE', MODELISATION = 'DIS_T'))  )

MATER=DEFI_MATERIAU( ELAS=_F(  E = 2.E+11,  NU = 0.3) )

CHMATER=AFFE_MATERIAU(  MAILLAGE=MA,
                           AFFE=_F(  TOUT = 'OUI', MATER = MATER)  )

CARELEM=AFFE_CARA_ELEM(   MODELE=MO,DISCRET=( 
       _F( GROUP_MA = 'RESSORT',CARA = 'K_T_D_L',VALE = (1.E+5,1., 1.,)),
               _F( GROUP_NO = 'MASSE',  CARA = 'M_T_D_N',VALE = 10.),
               _F( GROUP_MA = 'AMORTIS',CARA = 'A_T_D_L',VALE = (50.,1.,1.,))))

CH=AFFE_CHAR_MECA( MODELE=MO,DDL_IMPO=(
                   _F( GROUP_NO = 'A_ET_B', DX = 0.,DY = 0.,DZ = 0.),
                            _F( GROUP_NO = 'MASSE',         DY = 0.,DZ = 0.)),
                   FORCE_NODALE=_F(  NOEUD = 'NO5',   FX = 1.)   )

# --------------------------------------------------------------------

MACRO_MATR_ASSE(  MODELE=MO,     CHARGE=CH,      CARA_ELEM=CARELEM,
                     NUME_DDL=CO("NUM"),MATR_ASSE=(
                     _F(  MATRICE = CO("MATASSR"),  OPTION = 'RIGI_MECA'),
                               _F(  MATRICE = CO("MATASSM"),  OPTION = 'MASS_MECA'),
                               _F(  MATRICE = CO("MATASSC"),  OPTION = 'AMOR_MECA'))
                  )

# --------------------------------------------------------------------

VECT=CALC_VECT_ELEM(  CHARGE=CH,         OPTION='CHAR_MECA' )

VECTASS=ASSE_VECTEUR(  VECT_ELEM=VECT,   NUME_DDL=NUM  )

# --------------------------------------------------------------------


LIFREQ=DEFI_LIST_REEL(DEBUT=5., INTERVALLE=_F( JUSQU_A = 40., NOMBRE = 70))

DYNAHARM=DYNA_LINE_HARM( MATR_MASS=MATASSM, MATR_RIGI=MATASSR,
                             MATR_AMOR=MATASSC,   LIST_FREQ=LIFREQ,
                              TOUT_CHAM='OUI',
                             EXCIT=_F(  COEF_MULT = 1.,VECT_ASSE = VECTASS))

#----------------------------------------------------------
# TEST DE IMPR_RESU
#----------------------------------------------------------
#

IMPR_RESU( FORMAT = 'IDEAS', UNITE = 38 , 
           RESU=_F( RESULTAT = DYNAHARM,
                    TOUT_ORDRE = 'OUI', ))

#
#----------------------------------------------------------
#

F1=RECU_FONCTION(  RESULTAT=DYNAHARM,    NOM_CHAM='DEPL',
                     LIST_FREQ=LIFREQ,     NOEUD='NO5',   NOM_CMP='DX'  )

TEST_FONCTION(VALEUR=( _F(  FONCTION = F1,   VALE_PARA = 5.,
                          VALE_REFE_C = 1.0237E-04-8.5187E-06j),
                        _F(  FONCTION = F1,   VALE_PARA = 40.,
                          VALE_REFE_C = -2.5696E-06-2.7554E-07j))
               )

TEST_RESU(RESU=(  
     _F( RESULTAT = DYNAHARM,NUME_ORDRE = 1,PARA = 'FREQ',VALE = 5.),
     _F( RESULTAT = DYNAHARM,NUME_ORDRE = 1,NOM_CHAM = 'DEPL',
           NOEUD = 'NO5',NOM_CMP = 'DX',VALE_C = 1.0237E-04-8.5187E-06j),
     _F( RESULTAT = DYNAHARM,NUME_ORDRE = 2,PARA = 'FREQ',VALE = 5.5),
     _F( RESULTAT = DYNAHARM,NUME_ORDRE = 2,NOM_CHAM = 'DEPL',
         NOEUD = 'NO5',NOM_CMP = 'DX',VALE_C = 4.5066E-04-7.7914E-04j),
     _F( RESULTAT = DYNAHARM,NUME_ORDRE = 3,PARA = 'FREQ',VALE = 6.),
     _F( RESULTAT = DYNAHARM,NUME_ORDRE = 3,NOM_CHAM = 'DEPL',
         NOEUD = 'NO5',NOM_CMP = 'DX',VALE_C = -9.4101E-05-1.0585E-05j),
     _F( RESULTAT = DYNAHARM,NUME_ORDRE = 4,PARA = 'FREQ',VALE = 6.5),
     _F( RESULTAT = DYNAHARM,NUME_ORDRE = 4,NOM_CHAM = 'DEPL',
         NOEUD = 'NO5',NOM_CMP = 'DX',VALE_C = -4.1390E-05-2.6083E-06j),
     _F( RESULTAT = DYNAHARM,NUME_ORDRE = 5,PARA = 'FREQ',VALE = 7.),
     _F( RESULTAT = DYNAHARM,NUME_ORDRE = 5,NOM_CHAM = 'DEPL',
         NOEUD = 'NO5',NOM_CMP = 'DX',VALE_C = -2.4232E-05-1.2233E-06j),
     _F( RESULTAT = DYNAHARM,NUME_ORDRE = 6,PARA = 'FREQ',VALE = 7.5),
     _F( RESULTAT = DYNAHARM,NUME_ORDRE = 6,NOM_CHAM = 'DEPL',
         NOEUD = 'NO5',NOM_CMP = 'DX',VALE_C = -1.5691E-05-7.6742E-07j),
     _F( RESULTAT = DYNAHARM,NUME_ORDRE = 7,PARA = 'FREQ',VALE = 8.),
     _F( RESULTAT = DYNAHARM,NUME_ORDRE = 7,NOM_CHAM = 'DEPL',
         NOEUD = 'NO5',NOM_CMP = 'DX',VALE_C = -1.0509E-05-5.8171E-07j),
     _F( RESULTAT = DYNAHARM,NUME_ORDRE = 8,PARA = 'FREQ',VALE = 8.5),
     _F( RESULTAT = DYNAHARM,NUME_ORDRE = 8,NOM_CHAM = 'DEPL',
         NOEUD = 'NO5',NOM_CMP = 'DX',VALE_C = -6.9343E-06-5.1279E-07j),
     _F( RESULTAT = DYNAHARM,NUME_ORDRE = 9,PARA = 'FREQ',VALE = 9.),
     _F( RESULTAT = DYNAHARM,NUME_ORDRE = 9,NOM_CHAM = 'DEPL',
         NOEUD = 'NO5',NOM_CMP = 'DX',VALE_C = -4.1841E-06-5.2213E-07j),
     _F( RESULTAT = DYNAHARM,NUME_ORDRE = 10,PARA = 'FREQ',VALE = 9.5),
     _F( RESULTAT = DYNAHARM,NUME_ORDRE = 10,NOM_CHAM = 'DEPL',
         NOEUD = 'NO5',NOM_CMP = 'DX',VALE_C = -1.7756E-06-6.3356E-07j),
     _F( RESULTAT = DYNAHARM,NUME_ORDRE = 11,PARA = 'FREQ',VALE = 10.),
     _F( RESULTAT = DYNAHARM,NUME_ORDRE = 11,NOM_CHAM = 'DEPL',
         NOEUD = 'NO5',NOM_CMP = 'DX',VALE_C = 8.4143E-07-1.0335E-06j),
     _F( RESULTAT = DYNAHARM,NUME_ORDRE = 12,PARA = 'FREQ',VALE = 10.5),
     _F( RESULTAT = DYNAHARM,NUME_ORDRE = 12,NOM_CHAM = 'DEPL',
         NOEUD = 'NO5',NOM_CMP = 'DX',VALE_C = 5.1880E-06-3.4375E-06j),
     _F( RESULTAT = DYNAHARM,NUME_ORDRE = 13,PARA = 'FREQ',VALE = 11.),
     _F( RESULTAT = DYNAHARM,NUME_ORDRE = 13,NOM_CHAM = 'DEPL',
         NOEUD = 'NO5',NOM_CMP = 'DX',VALE_C = -7.3293E-06-1.2167E-05j),
     _F( RESULTAT = DYNAHARM,NUME_ORDRE = 14,PARA = 'FREQ',VALE = 11.5),
     _F( RESULTAT = DYNAHARM,NUME_ORDRE = 14,NOM_CHAM = 'DEPL',
         NOEUD = 'NO5',NOM_CMP = 'DX',VALE_C = -3.5611E-06-1.8100E-06j),
     _F( RESULTAT = DYNAHARM,NUME_ORDRE = 15,PARA = 'FREQ',VALE = 12.),
     _F( RESULTAT = DYNAHARM,NUME_ORDRE = 15,NOM_CHAM = 'DEPL',
         NOEUD = 'NO5',NOM_CMP = 'DX',VALE_C = -7.0575E-07-9.6206E-07j),
     _F( RESULTAT = DYNAHARM,NUME_ORDRE = 16,PARA = 'FREQ',VALE = 12.5),
     _F( RESULTAT = DYNAHARM,NUME_ORDRE = 16,NOM_CHAM = 'DEPL',
         NOEUD = 'NO5',NOM_CMP = 'DX',VALE_C = 1.1006E-06-8.4775E-07j),
     _F( RESULTAT = DYNAHARM,NUME_ORDRE = 17,PARA = 'FREQ',VALE = 13.),
     _F( RESULTAT = DYNAHARM,NUME_ORDRE = 17,NOM_CHAM = 'DEPL',
         NOEUD = 'NO5',NOM_CMP = 'DX',VALE_C = 2.6424E-06-9.3448E-07j),
     _F( RESULTAT = DYNAHARM,NUME_ORDRE = 18,PARA = 'FREQ',VALE = 13.5),
     _F( RESULTAT = DYNAHARM,NUME_ORDRE = 18,NOM_CHAM = 'DEPL',
         NOEUD = 'NO5',NOM_CMP = 'DX',VALE_C = 4.2248E-06-1.1788E-06j),
     _F( RESULTAT = DYNAHARM,NUME_ORDRE = 19,PARA = 'FREQ',VALE = 14.),
     _F( RESULTAT = DYNAHARM,NUME_ORDRE = 19,NOM_CHAM = 'DEPL',
         NOEUD = 'NO5',NOM_CMP = 'DX',VALE_C = 6.1040E-06-1.6754E-06j),
     _F( RESULTAT = DYNAHARM,NUME_ORDRE = 20,PARA = 'FREQ',VALE = 14.5),
     _F( RESULTAT = DYNAHARM,NUME_ORDRE = 20,NOM_CHAM = 'DEPL',
         NOEUD = 'NO5',NOM_CMP = 'DX',VALE_C = 8.6698E-06-2.7560E-06j),
# ... 152 like lines cut
         NOEUD = 'NO5',NOM_CMP = 'DX',VALE_C = -2.5696E-06-2.7554E-07j))
     )

FONCONST=DEFI_CONSTANTE(  VALE=1. )

LIFRE2=DEFI_LIST_REEL(  DEBUT=5.,INTERVALLE=(
                           _F(  JUSQU_A = 6.,    PAS = 0.5),
                                      _F(  JUSQU_A = 10.,   PAS = 4.),
                                      _F(  JUSQU_A = 35.,   NOMBRE = 5),
                                      _F(  JUSQU_A = 39.5,  NOMBRE = 1)) )

DYNAHAR2=DYNA_LINE_HARM(  MATR_MASS=MATASSM,  MATR_RIGI=MATASSR,
                              MATR_AMOR=MATASSC,  LIST_FREQ=LIFRE2,
                              NOM_CHAM=( 'VITE',  'ACCE', ),
                             EXCIT=_F(  FONC_MULT = FONCONST,
                                     VECT_ASSE = VECTASS)  )

F2=RECU_FONCTION(  RESULTAT=DYNAHAR2,   NOM_CHAM='VITE',
                      FREQ=(5., 15., 39.5,),   NOEUD='NO5',   NOM_CMP='DX' )

F3=RECU_FONCTION(  RESULTAT=DYNAHAR2,   NOM_CHAM='ACCE',
                      FREQ=(5., 15., 39.5,),   NOEUD='NO5',   NOM_CMP='DX' )

TEST_FONCTION(VALEUR=( _F(  FONCTION = F2,   VALE_PARA = 5.,
                          VALE_REFE_C = 2.67623E-04+3.21605E-03j),
                        _F(  FONCTION = F2,   VALE_PARA = 15.,
                          VALE_REFE_C = 5.33932E-04+1.19280E-03j),
                        _F(  FONCTION = F2,   VALE_PARA = 39.5,
                          VALE_REFE_C = 7.57091E-05-6.67496E-04j))
               )

TEST_FONCTION(VALEUR=( _F(  FONCTION = F3,   VALE_PARA = 5.,
                          VALE_REFE_C = -1.01035E-01+8.40762E-03j),
                        _F(  FONCTION = F3,   VALE_PARA = 15.,
                          VALE_REFE_C = -1.12419E-01+5.03219E-02j),
                        _F(  FONCTION = F3,   VALE_PARA = 39.5,
                          VALE_REFE_C = 1.65663E-01+1.87899E-02j))
               )

TEST_RESU(RESU=( 
      _F(  RESULTAT = DYNAHAR2, NUME_ORDRE = 1,  PARA = 'FREQ', VALE = 5.),
      _F(  RESULTAT = DYNAHAR2, NUME_ORDRE = 1,  NOM_CHAM = 'VITE',
       NOEUD = 'NO5', NOM_CMP = 'DX', VALE_C = 2.67623E-04+3.21605E-03j),
      _F(  RESULTAT = DYNAHAR2, NUME_ORDRE = 1,  NOM_CHAM = 'ACCE',
       NOEUD = 'NO5', NOM_CMP = 'DX', VALE_C = -1.01035E-01+8.40762E-03j),

      _F(  RESULTAT = DYNAHAR2, NUME_ORDRE = 2,  PARA = 'FREQ', VALE = 5.5),
      _F(  RESULTAT = DYNAHAR2, NUME_ORDRE = 2,  NOM_CHAM = 'VITE',
       NOEUD = 'NO5', NOM_CMP = 'DX', VALE_C = 2.69251E-02+1.55737E-02j),
      _F(  RESULTAT = DYNAHAR2, NUME_ORDRE = 2,  NOM_CHAM = 'ACCE',
       NOEUD = 'NO5', NOM_CMP = 'DX', VALE_C = -5.38188E-01+9.30466E-01j),

      _F(  RESULTAT = DYNAHAR2, NUME_ORDRE = 3,  PARA = 'FREQ', VALE = 6.),
      _F(  RESULTAT = DYNAHAR2, NUME_ORDRE = 3,  NOM_CHAM = 'VITE',
       NOEUD = 'NO5', NOM_CMP = 'DX', VALE_C = 3.99045E-04-3.54752E-03j),
      _F(  RESULTAT = DYNAHAR2, NUME_ORDRE = 3,  NOM_CHAM = 'ACCE',
       NOEUD = 'NO5', NOM_CMP = 'DX', VALE_C = 1.33738E-01+1.50436E-02j),

      _F(  RESULTAT = DYNAHAR2, NUME_ORDRE = 4,  PARA = 'FREQ', VALE = 10.),
      _F(  RESULTAT = DYNAHAR2, NUME_ORDRE = 4,  NOM_CHAM = 'VITE',
       NOEUD = 'NO5', NOM_CMP = 'DX', VALE_C = 6.49367E-05+5.28686E-05j),
      _F(  RESULTAT = DYNAHAR2, NUME_ORDRE = 4,  NOM_CHAM = 'ACCE',
       NOEUD = 'NO5', NOM_CMP = 'DX', VALE_C = -3.32183E-03+4.08009E-03j),

      _F(  RESULTAT = DYNAHAR2, NUME_ORDRE = 5,  PARA = 'FREQ', VALE = 15.),
      _F(  RESULTAT = DYNAHAR2, NUME_ORDRE = 5,  NOM_CHAM = 'VITE',
       NOEUD = 'NO5', NOM_CMP = 'DX', VALE_C = 5.33932E-04+1.19280E-03j),
      _F(  RESULTAT = DYNAHAR2, NUME_ORDRE = 5,  NOM_CHAM = 'ACCE',
       NOEUD = 'NO5', NOM_CMP = 'DX', VALE_C = -1.12419E-01+5.03219E-02j),

      _F(  RESULTAT = DYNAHAR2, NUME_ORDRE = 6,  PARA = 'FREQ', VALE = 20.),
      _F(  RESULTAT = DYNAHAR2, NUME_ORDRE = 6,  NOM_CHAM = 'VITE',
       NOEUD = 'NO5', NOM_CMP = 'DX', VALE_C = 8.41570E-04+3.74277E-04j),
      _F(  RESULTAT = DYNAHAR2, NUME_ORDRE = 6,  NOM_CHAM = 'ACCE',
       NOEUD = 'NO5', NOM_CMP = 'DX', VALE_C = -4.70330E-02+1.05755E-01j),

      _F(  RESULTAT = DYNAHAR2, NUME_ORDRE = 7,  PARA = 'FREQ', VALE = 25.),
      _F(  RESULTAT = DYNAHAR2, NUME_ORDRE = 7,  NOM_CHAM = 'VITE',
       NOEUD = 'NO5', NOM_CMP = 'DX', VALE_C = 8.27857E-04-1.96915E-04j),
      _F(  RESULTAT = DYNAHAR2, NUME_ORDRE = 7,  NOM_CHAM = 'ACCE',
       NOEUD = 'NO5', NOM_CMP = 'DX', VALE_C = 3.09313E-02+1.30040E-01j),

      _F(  RESULTAT = DYNAHAR2, NUME_ORDRE = 8,  PARA = 'FREQ', VALE = 30.),
      _F(  RESULTAT = DYNAHAR2, NUME_ORDRE = 8,  NOM_CHAM = 'VITE',
       NOEUD = 'NO5', NOM_CMP = 'DX', VALE_C = 1.03335E-03-3.94031E-04j),
      _F(  RESULTAT = DYNAHAR2, NUME_ORDRE = 8,  NOM_CHAM = 'ACCE',
       NOEUD = 'NO5', NOM_CMP = 'DX', VALE_C = 7.42731E-02+1.94782E-01j),

      _F(  RESULTAT = DYNAHAR2, NUME_ORDRE = 9,  PARA = 'FREQ', VALE = 35.),
      _F(  RESULTAT = DYNAHAR2, NUME_ORDRE = 9,  NOM_CHAM = 'VITE',
       NOEUD = 'NO5', NOM_CMP = 'DX', VALE_C = 2.46081E-04-9.99431E-04j),
      _F(  RESULTAT = DYNAHAR2, NUME_ORDRE = 9,  NOM_CHAM = 'ACCE',
       NOEUD = 'NO5', NOM_CMP = 'DX', VALE_C = 2.19786E-01+5.41160E-02j),

      _F(  RESULTAT = DYNAHAR2, NUME_ORDRE = 10, PARA = 'FREQ', VALE = 39.5),
      _F(  RESULTAT = DYNAHAR2, NUME_ORDRE = 10, NOM_CHAM = 'VITE',
       NOEUD = 'NO5', NOM_CMP = 'DX', VALE_C = 7.57091E-05-6.67496E-04j),
      _F(  RESULTAT = DYNAHAR2, NUME_ORDRE = 10, NOM_CHAM = 'ACCE',
       NOEUD = 'NO5', NOM_CMP = 'DX', VALE_C = 1.65663E-01+1.87899E-02j))
       )

# --------------------------------------------------------------------

DYNAHARM=CALC_ELEM(reuse=DYNAHARM,    RESULTAT=DYNAHARM,
                         NUME_ORDRE=1,
                             MODELE=MO,
                          CARA_ELEM=CARELEM,
                         CHAM_MATER=CHMATER,
                             OPTION='EFGE_ELNO_DEPL'  )

TEST_RESU(RESU=( 
     _F(  RESULTAT = DYNAHARM,  NUME_ORDRE = 1,   NOM_CHAM = 'EFGE_ELNO_DEPL',
       MAILLE = 'MA4',       NOEUD = 'NO5',
       NOM_CMP = 'N',       VALE_C = 1.52080E+00-1.07148E-01j),
     _F(  RESULTAT = DYNAHARM,  NUME_ORDRE = 1,   NOM_CHAM = 'EFGE_ELNO_DEPL',
       MAILLE = 'MA9',       NOEUD = 'NO10',
       NOM_CMP = 'N',       VALE_C = -3.17360E+00+2.88826E-01j)),
           )

#
#----------------------------------------------------------
#
#----------------------------------------------------------
# TEST DE LIRE_RESU
#----------------------------------------------------------
#


HARM=LIRE_RESU(      MAILLAGE=MA,
                               UNITE=38,
                              FORMAT='IDEAS',
                           TYPE_RESU='DYNA_HARMO',
                            NOM_CHAM=('DEPL','VITE','ACCE',),
                          TOUT_ORDRE='OUI',FORMAT_IDEAS=(
                        _F(     NOM_CHAM = 'DEPL',
                             NUME_DATASET = 55,
                                       RECORD_6 = ( 1, 5, 3, 8, 5, 6, ),
                             POSI_ORDRE = ( 7, 4,),
                             POSI_FREQ = ( 8, 1,),
                             NOM_CMP = ('DX', 'DY', 'DZ',)),
                        _F(     NOM_CHAM = 'VITE',
                             NUME_DATASET = 55,
                                       RECORD_6 = ( 1, 5, 3, 11, 5, 6, ),
                             POSI_ORDRE = ( 7, 4,),
                             POSI_FREQ = ( 8, 1,),
                             NOM_CMP = ('DX', 'DY', 'DZ',)),
                        _F(     NOM_CHAM = 'ACCE',
                             NUME_DATASET = 55,
                                       RECORD_6 = ( 1, 5, 3, 12, 5, 6, ),
                             POSI_ORDRE = ( 7, 4,),
                             POSI_FREQ = ( 8, 1,),
                             NOM_CMP = ('DX', 'DY', 'DZ',)))
                      )

TEST_RESU(RESU=(  
     _F( RESULTAT = HARM,NUME_ORDRE = 1,PARA = 'FREQ',VALE = 5.,
           REFERENCE = 'AUTRE_ASTER'),
     _F( RESULTAT = HARM,NUME_ORDRE = 1,NOM_CHAM = 'DEPL',
           NOEUD = 'NO5',NOM_CMP = 'DX',VALE_C = 1.0237E-04-8.5187E-06j,
           REFERENCE = 'AUTRE_ASTER'),
     _F( RESULTAT = HARM,NUME_ORDRE = 2,PARA = 'FREQ',VALE = 5.5,
           REFERENCE = 'AUTRE_ASTER'),
     _F( RESULTAT = HARM,NUME_ORDRE = 2,NOM_CHAM = 'DEPL',
         NOEUD = 'NO5',NOM_CMP = 'DX',VALE_C = 4.5066E-04-7.7914E-04j,
         REFERENCE = 'AUTRE_ASTER'),
     _F( RESULTAT = HARM,NUME_ORDRE = 3,PARA = 'FREQ',VALE = 6.,
         REFERENCE = 'AUTRE_ASTER'),
     _F( RESULTAT = HARM,NUME_ORDRE = 3,NOM_CHAM = 'DEPL',
         NOEUD = 'NO5',NOM_CMP = 'DX',VALE_C = -9.4101E-05-1.0585E-05j,
         REFERENCE = 'AUTRE_ASTER'),
     _F( RESULTAT = HARM,NUME_ORDRE = 4,PARA = 'FREQ',VALE = 6.5,
         REFERENCE = 'AUTRE_ASTER'),
     _F( RESULTAT = HARM,NUME_ORDRE = 4,NOM_CHAM = 'DEPL',
         NOEUD = 'NO5',NOM_CMP = 'DX',VALE_C = -4.1390E-05-2.6083E-06j,
         REFERENCE = 'AUTRE_ASTER'),
     _F( RESULTAT = HARM,NUME_ORDRE = 5,PARA = 'FREQ',VALE = 7.,
         REFERENCE = 'AUTRE_ASTER'),
     _F( RESULTAT = HARM,NUME_ORDRE = 5,NOM_CHAM = 'DEPL',
         NOEUD = 'NO5',NOM_CMP = 'DX',VALE_C = -2.4232E-05-1.2233E-06j,
         REFERENCE = 'AUTRE_ASTER'),
     _F( RESULTAT = HARM,NUME_ORDRE = 6,PARA = 'FREQ',VALE = 7.5,
         REFERENCE = 'AUTRE_ASTER'),
     _F( RESULTAT = HARM,NUME_ORDRE = 6,NOM_CHAM = 'DEPL',
         NOEUD = 'NO5',NOM_CMP = 'DX',VALE_C = -1.5691E-05-7.6742E-07j,
         REFERENCE = 'AUTRE_ASTER'),
     _F( RESULTAT = HARM,NUME_ORDRE = 7,PARA = 'FREQ',VALE = 8.,
         REFERENCE = 'AUTRE_ASTER'),
     _F( RESULTAT = HARM,NUME_ORDRE = 7,NOM_CHAM = 'DEPL',
         NOEUD = 'NO5',NOM_CMP = 'DX',VALE_C = -1.0509E-05-5.8171E-07j,
         REFERENCE = 'AUTRE_ASTER'),
     _F( RESULTAT = HARM,NUME_ORDRE = 8,PARA = 'FREQ',VALE = 8.5,
         REFERENCE = 'AUTRE_ASTER'),
     _F( RESULTAT = HARM,NUME_ORDRE = 8,NOM_CHAM = 'DEPL',
         NOEUD = 'NO5',NOM_CMP = 'DX',VALE_C = -6.9343E-06-5.1279E-07j,
         REFERENCE = 'AUTRE_ASTER'),
     _F( RESULTAT = HARM,NUME_ORDRE = 9,PARA = 'FREQ',VALE = 9.,
         REFERENCE = 'AUTRE_ASTER'),
     _F( RESULTAT = HARM,NUME_ORDRE = 9,NOM_CHAM = 'DEPL',
         NOEUD = 'NO5',NOM_CMP = 'DX',VALE_C = -4.1841E-06-5.2213E-07j,
         REFERENCE = 'AUTRE_ASTER'),
     _F( RESULTAT = HARM,NUME_ORDRE = 10,PARA = 'FREQ',VALE = 9.5,
         REFERENCE = 'AUTRE_ASTER'),
     _F( RESULTAT = HARM,NUME_ORDRE = 10,NOM_CHAM = 'DEPL',
         NOEUD = 'NO5',NOM_CMP = 'DX',VALE_C = -1.7756E-06-6.3356E-07j,
         REFERENCE = 'AUTRE_ASTER'),
     _F( RESULTAT = HARM,NUME_ORDRE = 11,PARA = 'FREQ',VALE = 10.,
         REFERENCE = 'AUTRE_ASTER'),
     _F( RESULTAT = HARM,NUME_ORDRE = 11,NOM_CHAM = 'DEPL',
         NOEUD = 'NO5',NOM_CMP = 'DX',VALE_C = 8.4143E-07-1.0335E-06j,
         REFERENCE = 'AUTRE_ASTER'),
     _F( RESULTAT = HARM,NUME_ORDRE = 12,PARA = 'FREQ',VALE = 10.5,
         REFERENCE = 'AUTRE_ASTER'),
     _F( RESULTAT = HARM,NUME_ORDRE = 12,NOM_CHAM = 'DEPL',
         NOEUD = 'NO5',NOM_CMP = 'DX',VALE_C = 5.1880E-06-3.4375E-06j,
         REFERENCE = 'AUTRE_ASTER'),
     _F( RESULTAT = HARM,NUME_ORDRE = 13,PARA = 'FREQ',VALE = 11.,
         REFERENCE = 'AUTRE_ASTER'),
     _F( RESULTAT = HARM,NUME_ORDRE = 13,NOM_CHAM = 'DEPL',
         NOEUD = 'NO5',NOM_CMP = 'DX',VALE_C = -7.3293E-06-1.2167E-05j,
         REFERENCE = 'AUTRE_ASTER'),
     _F( RESULTAT = HARM,NUME_ORDRE = 14,PARA = 'FREQ',VALE = 11.5,
         REFERENCE = 'AUTRE_ASTER'),
     _F( RESULTAT = HARM,NUME_ORDRE = 14,NOM_CHAM = 'DEPL',
         NOEUD = 'NO5',NOM_CMP = 'DX',VALE_C = -3.5611E-06-1.8100E-06j,
         REFERENCE = 'AUTRE_ASTER'),
     _F( RESULTAT = HARM,NUME_ORDRE = 15,PARA = 'FREQ',VALE = 12.,
         REFERENCE = 'AUTRE_ASTER'),
     _F( RESULTAT = HARM,NUME_ORDRE = 15,NOM_CHAM = 'DEPL',
         NOEUD = 'NO5',NOM_CMP = 'DX',VALE_C = -7.0575E-07-9.6206E-07j,
         REFERENCE = 'AUTRE_ASTER'),
     _F( RESULTAT = HARM,NUME_ORDRE = 16,PARA = 'FREQ',VALE = 12.5,
         REFERENCE = 'AUTRE_ASTER'),
     _F( RESULTAT = HARM,NUME_ORDRE = 16,NOM_CHAM = 'DEPL',
         NOEUD = 'NO5',NOM_CMP = 'DX',VALE_C = 1.1006E-06-8.4775E-07j,
         REFERENCE = 'AUTRE_ASTER'),
     _F( RESULTAT = HARM,NUME_ORDRE = 17,PARA = 'FREQ',VALE = 13.,
         REFERENCE = 'AUTRE_ASTER'),
     _F( RESULTAT = HARM,NUME_ORDRE = 17,NOM_CHAM = 'DEPL',
         NOEUD = 'NO5',NOM_CMP = 'DX',VALE_C = 2.6424E-06-9.3448E-07j,
         REFERENCE = 'AUTRE_ASTER'),
     _F( RESULTAT = HARM,NUME_ORDRE = 18,PARA = 'FREQ',VALE = 13.5,
         REFERENCE = 'AUTRE_ASTER'),
     _F( RESULTAT = HARM,NUME_ORDRE = 18,NOM_CHAM = 'DEPL',
         NOEUD = 'NO5',NOM_CMP = 'DX',VALE_C = 4.2248E-06-1.1788E-06j,
         REFERENCE = 'AUTRE_ASTER'),
     _F( RESULTAT = HARM,NUME_ORDRE = 19,PARA = 'FREQ',VALE = 14.,
         REFERENCE = 'AUTRE_ASTER'),
     _F( RESULTAT = HARM,NUME_ORDRE = 19,NOM_CHAM = 'DEPL',
         NOEUD = 'NO5',NOM_CMP = 'DX',VALE_C = 6.1040E-06-1.6754E-06j,
         REFERENCE = 'AUTRE_ASTER'),
     _F( RESULTAT = HARM,NUME_ORDRE = 20,PARA = 'FREQ',VALE = 14.5,
         REFERENCE = 'AUTRE_ASTER'),
     _F( RESULTAT = HARM,NUME_ORDRE = 20,NOM_CHAM = 'DEPL',
         NOEUD = 'NO5',NOM_CMP = 'DX',VALE_C = 8.6698E-06-2.7560E-06j,
         REFERENCE = 'AUTRE_ASTER'),
     _F( RESULTAT = HARM,NUME_ORDRE = 21,PARA = 'FREQ',VALE = 15.,
         REFERENCE = 'AUTRE_ASTER'),
     _F( RESULTAT = HARM,NUME_ORDRE = 21,NOM_CHAM = 'DEPL',
         NOEUD = 'NO5',NOM_CMP = 'DX',VALE_C = 1.2656E-05-5.6652E-06j,
         REFERENCE = 'AUTRE_ASTER'),
     _F( RESULTAT = HARM,NUME_ORDRE = 22,PARA = 'FREQ',VALE = 15.5,
         REFERENCE = 'AUTRE_ASTER'),
     _F( RESULTAT = HARM,NUME_ORDRE = 22,NOM_CHAM = 'DEPL',
         NOEUD = 'NO5',NOM_CMP = 'DX',VALE_C = 1.7523E-05-1.6501E-05j,
         REFERENCE = 'AUTRE_ASTER'),
     _F( RESULTAT = HARM,NUME_ORDRE = 23,PARA = 'FREQ',VALE = 16.,
         REFERENCE = 'AUTRE_ASTER'),
     _F( RESULTAT = HARM,NUME_ORDRE = 23,NOM_CHAM = 'DEPL',
         NOEUD = 'NO5',NOM_CMP = 'DX',VALE_C = -5.8499E-06-3.2134E-05j,
         REFERENCE = 'AUTRE_ASTER'),
     _F( RESULTAT = HARM,NUME_ORDRE = 24,PARA = 'FREQ',VALE = 16.5,
         REFERENCE = 'AUTRE_ASTER'),
     _F( RESULTAT = HARM,NUME_ORDRE = 24,NOM_CHAM = 'DEPL',
         NOEUD = 'NO5',NOM_CMP = 'DX',VALE_C = -1.3739E-05-1.0894E-05j,
         REFERENCE = 'AUTRE_ASTER'),
     _F( RESULTAT = HARM,NUME_ORDRE = 25,PARA = 'FREQ',VALE = 17.,
         REFERENCE = 'AUTRE_ASTER'),
     _F( RESULTAT = HARM,NUME_ORDRE = 25,NOM_CHAM = 'DEPL',
         NOEUD = 'NO5',NOM_CMP = 'DX',VALE_C = -8.5635E-06-4.4699E-06j,
         REFERENCE = 'AUTRE_ASTER'),
     _F( RESULTAT = HARM,NUME_ORDRE = 26,PARA = 'FREQ',VALE = 17.5,
         REFERENCE = 'AUTRE_ASTER'),
     _F( RESULTAT = HARM,NUME_ORDRE = 26,NOM_CHAM = 'DEPL',
         NOEUD = 'NO5',NOM_CMP = 'DX',VALE_C = -5.1696E-06-2.6411E-06j,
         REFERENCE = 'AUTRE_ASTER'),
     _F( RESULTAT = HARM,NUME_ORDRE = 27, PARA = 'FREQ',VALE = 18.,
         REFERENCE = 'AUTRE_ASTER'),
     _F( RESULTAT = HARM,NUME_ORDRE = 27,NOM_CHAM = 'DEPL',
         NOEUD = 'NO5',NOM_CMP = 'DX',VALE_C = -2.8605E-06-2.0415E-06j,
         REFERENCE = 'AUTRE_ASTER'),
     _F( RESULTAT = HARM,NUME_ORDRE = 28,PARA = 'FREQ',VALE = 18.5,
         REFERENCE = 'AUTRE_ASTER'),
     _F( RESULTAT = HARM,NUME_ORDRE = 28,NOM_CHAM = 'DEPL',
         NOEUD = 'NO5',NOM_CMP = 'DX',VALE_C = -1.0326E-06-1.9803E-06j,
         REFERENCE = 'AUTRE_ASTER'),
     _F( RESULTAT = HARM,NUME_ORDRE = 29,PARA = 'FREQ',VALE = 19.,
         REFERENCE = 'AUTRE_ASTER'),
     _F( RESULTAT = HARM,NUME_ORDRE = 29,NOM_CHAM = 'DEPL',
         NOEUD = 'NO5',NOM_CMP = 'DX',VALE_C = 6.3986E-07-2.3905E-06j,
         REFERENCE = 'AUTRE_ASTER'),
     _F( RESULTAT = HARM,NUME_ORDRE = 30,PARA = 'FREQ',VALE = 19.5,
         REFERENCE = 'AUTRE_ASTER'),
     _F( RESULTAT = HARM,NUME_ORDRE = 30,NOM_CHAM = 'DEPL',
         NOEUD = 'NO5',NOM_CMP = 'DX',VALE_C = 2.2740E-06-3.6314E-06j,
         REFERENCE = 'AUTRE_ASTER'),
     _F( RESULTAT = HARM,NUME_ORDRE = 31,PARA = 'FREQ',VALE = 20.,
         REFERENCE = 'AUTRE_ASTER'),
     _F( RESULTAT = HARM,NUME_ORDRE = 31,NOM_CHAM = 'DEPL',
         NOEUD = 'NO5',NOM_CMP = 'DX',VALE_C = 2.9784E-06-6.6970E-06j,
         REFERENCE = 'AUTRE_ASTER'),
     _F( RESULTAT = HARM,NUME_ORDRE = 32,PARA = 'FREQ',VALE = 20.5,
         REFERENCE = 'AUTRE_ASTER'),
     _F( RESULTAT = HARM,NUME_ORDRE = 32,NOM_CHAM = 'DEPL',
         NOEUD = 'NO5',NOM_CMP = 'DX',VALE_C = -1.0531E-06-9.4323E-06j,
         REFERENCE = 'AUTRE_ASTER'),
     _F( RESULTAT = HARM,NUME_ORDRE = 33,PARA = 'FREQ',VALE = 21.,
         REFERENCE = 'AUTRE_ASTER'),
     _F( RESULTAT = HARM,NUME_ORDRE = 33,NOM_CHAM = 'DEPL',
         NOEUD = 'NO5',NOM_CMP = 'DX',VALE_C = -4.0342E-06-5.9997E-06j,
         REFERENCE = 'AUTRE_ASTER'),
     _F( RESULTAT = HARM,NUME_ORDRE = 34,PARA = 'FREQ',VALE = 21.5,
         REFERENCE = 'AUTRE_ASTER'),
     _F( RESULTAT = HARM,NUME_ORDRE = 34,NOM_CHAM = 'DEPL',
         NOEUD = 'NO5',NOM_CMP = 'DX',VALE_C = -3.0492E-06-3.4873E-06j,
         REFERENCE = 'AUTRE_ASTER'),
     _F( RESULTAT = HARM,NUME_ORDRE = 35,PARA = 'FREQ',VALE = 22.,
         REFERENCE = 'AUTRE_ASTER'),
     _F( RESULTAT = HARM,NUME_ORDRE = 35,NOM_CHAM = 'DEPL',
         NOEUD = 'NO5',NOM_CMP = 'DX',VALE_C = -1.6224E-06-2.6025E-06j,
         REFERENCE = 'AUTRE_ASTER'),
     _F( RESULTAT = HARM,NUME_ORDRE = 36,PARA = 'FREQ',VALE = 22.5,
         REFERENCE = 'AUTRE_ASTER'),
     _F( RESULTAT = HARM,NUME_ORDRE = 36,NOM_CHAM = 'DEPL',
         NOEUD = 'NO5',NOM_CMP = 'DX',VALE_C = -3.3364E-07-2.4806E-06j,
         REFERENCE = 'AUTRE_ASTER'),
     _F( RESULTAT = HARM,NUME_ORDRE = 37,PARA = 'FREQ',VALE = 23.,
         REFERENCE = 'AUTRE_ASTER'),
     _F( RESULTAT = HARM,NUME_ORDRE = 37,NOM_CHAM = 'DEPL',
         NOEUD = 'NO5',NOM_CMP = 'DX',VALE_C = 8.2095E-07-2.8986E-06j,
         REFERENCE = 'AUTRE_ASTER'),
     _F( RESULTAT = HARM,NUME_ORDRE = 38,PARA = 'FREQ',VALE = 23.5,
         REFERENCE = 'AUTRE_ASTER'),
     _F( RESULTAT = HARM,NUME_ORDRE = 38,NOM_CHAM = 'DEPL',
         NOEUD = 'NO5',NOM_CMP = 'DX',VALE_C = 1.7038E-06-3.9788E-06j,
         REFERENCE = 'AUTRE_ASTER'),
     _F( RESULTAT = HARM,NUME_ORDRE = 39,PARA = 'FREQ',VALE = 24.,
         REFERENCE = 'AUTRE_ASTER'),
     _F( RESULTAT = HARM,NUME_ORDRE = 39,NOM_CHAM = 'DEPL',
         NOEUD = 'NO5',NOM_CMP = 'DX',VALE_C = 1.5551E-06-5.7273E-06j,
         REFERENCE = 'AUTRE_ASTER'),
     _F( RESULTAT = HARM,NUME_ORDRE = 40,PARA = 'FREQ',VALE = 24.5,
         REFERENCE = 'AUTRE_ASTER'),
     _F( RESULTAT = HARM,NUME_ORDRE = 40,NOM_CHAM = 'DEPL',
         NOEUD = 'NO5',NOM_CMP = 'DX',VALE_C = -2.5261E-07-6.4755E-06j,
         REFERENCE = 'AUTRE_ASTER'),
     _F( RESULTAT = HARM,NUME_ORDRE = 41,PARA = 'FREQ',VALE = 25.,
         REFERENCE = 'AUTRE_ASTER'),
     _F( RESULTAT = HARM,NUME_ORDRE = 41,NOM_CHAM = 'DEPL',
         NOEUD = 'NO5',NOM_CMP = 'DX',VALE_C = -1.2536E-06-5.2703E-06j,
         REFERENCE = 'AUTRE_ASTER'),
     _F( RESULTAT = HARM,NUME_ORDRE = 42,PARA = 'FREQ',VALE = 25.5,
         REFERENCE = 'AUTRE_ASTER'),
     _F( RESULTAT = HARM,NUME_ORDRE = 42,NOM_CHAM = 'DEPL',
         NOEUD = 'NO5',NOM_CMP = 'DX',VALE_C = -7.1495E-07-4.3407E-06j,
         REFERENCE = 'AUTRE_ASTER'),
     _F( RESULTAT = HARM,NUME_ORDRE = 43,PARA = 'FREQ',VALE = 26.,
         REFERENCE = 'AUTRE_ASTER'),
     _F( RESULTAT = HARM,NUME_ORDRE = 43,NOM_CHAM = 'DEPL',
         NOEUD = 'NO5',NOM_CMP = 'DX',VALE_C = 2.3372E-07-4.3608E-06j,
         REFERENCE = 'AUTRE_ASTER'),
     _F( RESULTAT = HARM,NUME_ORDRE = 44,PARA = 'FREQ',VALE = 26.5,
         REFERENCE = 'AUTRE_ASTER'),
     _F( RESULTAT = HARM,NUME_ORDRE = 44,NOM_CHAM = 'DEPL',
         NOEUD = 'NO5',NOM_CMP = 'DX',VALE_C = 9.5923E-07-5.2520E-06j,
         REFERENCE = 'AUTRE_ASTER'),
     _F( RESULTAT = HARM,NUME_ORDRE = 45,PARA = 'FREQ',VALE = 27.,
         REFERENCE = 'AUTRE_ASTER'),
     _F( RESULTAT = HARM,NUME_ORDRE = 45,NOM_CHAM = 'DEPL',
         NOEUD = 'NO5',NOM_CMP = 'DX',VALE_C = 7.9298E-07-6.8122E-06j,
         REFERENCE = 'AUTRE_ASTER'),
     _F( RESULTAT = HARM,NUME_ORDRE = 46,PARA = 'FREQ',VALE = 27.5,
         REFERENCE = 'AUTRE_ASTER'),
     _F( RESULTAT = HARM,NUME_ORDRE = 46,NOM_CHAM = 'DEPL',
         NOEUD = 'NO5',NOM_CMP = 'DX',VALE_C = -8.4714E-07-7.9347E-06j,
         REFERENCE = 'AUTRE_ASTER'),
     _F( RESULTAT = HARM,NUME_ORDRE = 47,PARA = 'FREQ',VALE = 28.,
         REFERENCE = 'AUTRE_ASTER'),
     _F( RESULTAT = HARM,NUME_ORDRE = 47,NOM_CHAM = 'DEPL',
         NOEUD = 'NO5',NOM_CMP = 'DX',VALE_C = -2.6974E-06-7.2919E-06j,
         REFERENCE = 'AUTRE_ASTER'),
     _F( RESULTAT = HARM,NUME_ORDRE = 48,PARA = 'FREQ',VALE = 28.5,
         REFERENCE = 'AUTRE_ASTER'),
     _F( RESULTAT = HARM,NUME_ORDRE = 48,NOM_CHAM = 'DEPL',
         NOEUD = 'NO5',NOM_CMP = 'DX',VALE_C = -3.1996E-06-5.9399E-06j,
         REFERENCE = 'AUTRE_ASTER'),
     _F( RESULTAT = HARM,NUME_ORDRE = 49,PARA = 'FREQ',VALE = 29.,
         REFERENCE = 'AUTRE_ASTER'),
     _F( RESULTAT = HARM,NUME_ORDRE = 49,NOM_CHAM = 'DEPL',
         NOEUD = 'NO5',NOM_CMP = 'DX',VALE_C = -2.8147E-06-5.1537E-06j,
         REFERENCE = 'AUTRE_ASTER'),
     _F( RESULTAT = HARM,NUME_ORDRE = 50,PARA = 'FREQ',VALE = 29.5,
         REFERENCE = 'AUTRE_ASTER'),
     _F( RESULTAT = HARM,NUME_ORDRE = 50,NOM_CHAM = 'DEPL',
         NOEUD = 'NO5',NOM_CMP = 'DX',VALE_C = -2.3147E-06-5.0768E-06j,
         REFERENCE = 'AUTRE_ASTER'),
     _F( RESULTAT = HARM,NUME_ORDRE = 51,PARA = 'FREQ',VALE = 30.,
         REFERENCE = 'AUTRE_ASTER'),
     _F( RESULTAT = HARM,NUME_ORDRE = 51,NOM_CHAM = 'DEPL',
         NOEUD = 'NO5',NOM_CMP = 'DX',VALE_C = -2.0904E-06-5.4821E-06j,
         REFERENCE = 'AUTRE_ASTER'),
     _F( RESULTAT = HARM,NUME_ORDRE = 52,PARA = 'FREQ',VALE = 30.5,
         REFERENCE = 'AUTRE_ASTER'),
     _F( RESULTAT = HARM,NUME_ORDRE = 52,NOM_CHAM = 'DEPL',
         NOEUD = 'NO5',NOM_CMP = 'DX',VALE_C = -2.3394E-06-6.1528E-06j,
         REFERENCE = 'AUTRE_ASTER'),
     _F( RESULTAT = HARM,NUME_ORDRE = 53,PARA = 'FREQ',VALE = 31.,
         REFERENCE = 'AUTRE_ASTER'),
     _F( RESULTAT = HARM,NUME_ORDRE = 53,NOM_CHAM = 'DEPL',
         NOEUD = 'NO5',NOM_CMP = 'DX',VALE_C = -3.2913E-06-6.7391E-06j,
         REFERENCE = 'AUTRE_ASTER'),
     _F( RESULTAT = HARM,NUME_ORDRE = 54,PARA = 'FREQ',VALE = 31.5,
         REFERENCE = 'AUTRE_ASTER'),
     _F( RESULTAT = HARM,NUME_ORDRE = 54,NOM_CHAM = 'DEPL',
         NOEUD = 'NO5',NOM_CMP = 'DX',VALE_C = -4.7525E-06-6.5640E-06j,
         REFERENCE = 'AUTRE_ASTER'),
     _F( RESULTAT = HARM,NUME_ORDRE = 55,PARA = 'FREQ',VALE = 32.,
         REFERENCE = 'AUTRE_ASTER'),
     _F( RESULTAT = HARM,NUME_ORDRE = 55,NOM_CHAM = 'DEPL',
         NOEUD = 'NO5',NOM_CMP = 'DX',VALE_C = -5.8693E-06-5.4894E-06j,
         REFERENCE = 'AUTRE_ASTER'),
     _F( RESULTAT = HARM,NUME_ORDRE = 56,PARA = 'FREQ',VALE = 32.5,
         REFERENCE = 'AUTRE_ASTER'),
     _F( RESULTAT = HARM,NUME_ORDRE = 56,NOM_CHAM = 'DEPL',
         NOEUD = 'NO5',NOM_CMP = 'DX',VALE_C = -6.2230E-06-4.1705E-06j,
         REFERENCE = 'AUTRE_ASTER'),
     _F( RESULTAT = HARM,NUME_ORDRE = 57,PARA = 'FREQ',VALE = 33.,
         REFERENCE = 'AUTRE_ASTER'),
     _F( RESULTAT = HARM,NUME_ORDRE = 57,NOM_CHAM = 'DEPL',
         NOEUD = 'NO5',NOM_CMP = 'DX',VALE_C = -6.0632E-06-3.0851E-06j,
         REFERENCE = 'AUTRE_ASTER'),
     _F( RESULTAT = HARM,NUME_ORDRE = 58,PARA = 'FREQ',VALE = 33.5,
         REFERENCE = 'AUTRE_ASTER'),
     _F( RESULTAT = HARM,NUME_ORDRE = 58,NOM_CHAM = 'DEPL',
         NOEUD = 'NO5',NOM_CMP = 'DX',VALE_C = -5.6980E-06-2.3075E-06j,
         REFERENCE = 'AUTRE_ASTER'),
     _F( RESULTAT = HARM,NUME_ORDRE = 59,PARA = 'FREQ',VALE = 34.,
         REFERENCE = 'AUTRE_ASTER'),
     _F( RESULTAT = HARM,NUME_ORDRE = 59,NOM_CHAM = 'DEPL',
         NOEUD = 'NO5',NOM_CMP = 'DX',VALE_C = -5.2887E-06-1.7678E-06j,
         REFERENCE = 'AUTRE_ASTER'),
     _F( RESULTAT = HARM,NUME_ORDRE = 60,PARA = 'FREQ',VALE = 34.5,
         REFERENCE = 'AUTRE_ASTER'),
     _F( RESULTAT = HARM,NUME_ORDRE = 60,NOM_CHAM = 'DEPL',
         NOEUD = 'NO5',NOM_CMP = 'DX',VALE_C = -4.8980E-06-1.3899E-06j,
         REFERENCE = 'AUTRE_ASTER'),
     _F( RESULTAT = HARM,NUME_ORDRE = 61,PARA = 'FREQ',VALE = 35.,
         REFERENCE = 'AUTRE_ASTER'),
     _F( RESULTAT = HARM,NUME_ORDRE = 61,NOM_CHAM = 'DEPL',
         NOEUD = 'NO5',NOM_CMP = 'DX',VALE_C = -4.5447E-06-1.1190E-06j,
         REFERENCE = 'AUTRE_ASTER'),
     _F( RESULTAT = HARM,NUME_ORDRE = 62,PARA = 'FREQ',VALE = 35.5,
         REFERENCE = 'AUTRE_ASTER'),
     _F( RESULTAT = HARM,NUME_ORDRE = 62,NOM_CHAM = 'DEPL',
         NOEUD = 'NO5',NOM_CMP = 'DX',VALE_C = -4.2313E-06-9.1982E-07j,
         REFERENCE = 'AUTRE_ASTER'),
     _F( RESULTAT = HARM,NUME_ORDRE = 63,PARA = 'FREQ',VALE = 36.,
         REFERENCE = 'AUTRE_ASTER'),
     _F( RESULTAT = HARM,NUME_ORDRE = 63,NOM_CHAM = 'DEPL',
         NOEUD = 'NO5',NOM_CMP = 'DX',VALE_C = -3.9544E-06-7.6957E-07j,
         REFERENCE = 'AUTRE_ASTER'),
     _F( RESULTAT = HARM,NUME_ORDRE = 64,PARA = 'FREQ',VALE = 36.5,
         REFERENCE = 'AUTRE_ASTER'),
     _F( RESULTAT = HARM,NUME_ORDRE = 64,NOM_CHAM = 'DEPL',
         NOEUD = 'NO5',NOM_CMP = 'DX',VALE_C = -3.7093E-06-6.5366E-07j,
         REFERENCE = 'AUTRE_ASTER'),
     _F( RESULTAT = HARM,NUME_ORDRE = 65,PARA = 'FREQ',VALE = 37.,
         REFERENCE = 'AUTRE_ASTER'),
     _F( RESULTAT = HARM,NUME_ORDRE = 65,NOM_CHAM = 'DEPL',
         NOEUD = 'NO5',NOM_CMP = 'DX',VALE_C = -3.4915E-06-5.6241E-07j,
         REFERENCE = 'AUTRE_ASTER'),
     _F( RESULTAT = HARM,NUME_ORDRE = 66,PARA = 'FREQ',VALE = 37.5,
         REFERENCE = 'AUTRE_ASTER'),
     _F( RESULTAT = HARM,NUME_ORDRE = 66,NOM_CHAM = 'DEPL',
         NOEUD = 'NO5',NOM_CMP = 'DX',VALE_C = -3.2968E-06-4.8930E-07j,
         REFERENCE = 'AUTRE_ASTER'),
     _F( RESULTAT = HARM,NUME_ORDRE = 67,PARA = 'FREQ',VALE = 38.,
         REFERENCE = 'AUTRE_ASTER'),
     _F( RESULTAT = HARM,NUME_ORDRE = 67,NOM_CHAM = 'DEPL',
         NOEUD = 'NO5',NOM_CMP = 'DX',VALE_C = -3.1219E-06-4.2979E-07j,
         REFERENCE = 'AUTRE_ASTER'),
     _F( RESULTAT = HARM,NUME_ORDRE = 68,PARA = 'FREQ',VALE = 38.5,
         REFERENCE = 'AUTRE_ASTER'),
     _F( RESULTAT = HARM,NUME_ORDRE = 68,NOM_CHAM = 'DEPL',
         NOEUD = 'NO5',NOM_CMP = 'DX',VALE_C = -2.9638E-06-3.8068E-07j),
     _F( RESULTAT = HARM,NUME_ORDRE = 69,PARA = 'FREQ',VALE = 39.),
     _F( RESULTAT = HARM,NUME_ORDRE = 69,NOM_CHAM = 'DEPL',
         NOEUD = 'NO5',NOM_CMP = 'DX',VALE_C = -2.8204E-06-3.3967E-07j),
     _F( RESULTAT = HARM,NUME_ORDRE = 70,PARA = 'FREQ',VALE = 39.5),
     _F( RESULTAT = HARM,NUME_ORDRE = 70,NOM_CHAM = 'DEPL',
         NOEUD = 'NO5',NOM_CMP = 'DX',VALE_C = -2.6895E-06-3.0505E-07j),
     _F( RESULTAT = HARM,NUME_ORDRE = 71,PARA = 'FREQ',VALE = 40.,
         REFERENCE = 'AUTRE_ASTER'),
     _F( RESULTAT = HARM,NUME_ORDRE = 71,NOM_CHAM = 'DEPL',
         NOEUD = 'NO5',NOM_CMP = 'DX',VALE_C = -2.5696E-06-2.7554E-07j,
         REFERENCE = 'AUTRE_ASTER'))
     )

FIN( )
#
