# TITRE SYSTEME MASSES-RESSORTS LINEAIRE MULTI-SUPPORTE (TRANSLATION)
#            CONFIGURATION MANAGEMENT OF EDF VERSION
# ======================================================================
# COPYRIGHT (C) 1991 - 2013  EDF R&D                  WWW.CODE-ASTER.ORG
# THIS PROGRAM IS FREE SOFTWARE; YOU CAN REDISTRIBUTE IT AND/OR MODIFY
# IT UNDER THE TERMS OF THE GNU GENERAL PUBLIC LICENSE AS PUBLISHED BY
# THE FREE SOFTWARE FOUNDATION; EITHER VERSION 2 OF THE LICENSE, OR
# (AT YOUR OPTION) ANY LATER VERSION.
#
# THIS PROGRAM IS DISTRIBUTED IN THE HOPE THAT IT WILL BE USEFUL, BUT
# WITHOUT ANY WARRANTY; WITHOUT EVEN THE IMPLIED WARRANTY OF
# MERCHANTABILITY OR FITNESS FOR A PARTICULAR PURPOSE. SEE THE GNU
# GENERAL PUBLIC LICENSE FOR MORE DETAILS.
#
# YOU SHOULD HAVE RECEIVED A COPY OF THE GNU GENERAL PUBLIC LICENSE
# ALONG WITH THIS PROGRAM; IF NOT, WRITE TO EDF R&D CODE_ASTER,
#    1 AVENUE DU GENERAL DE GAULLE, 92141 CLAMART CEDEX, FRANCE.
# ======================================================================
# ----------------------------------------------------------------------
# SYSTEME 3 MASSES, 4 RESSORTS ENCASTRES-ENCASTRES SOUMIS A DES
# ACCE_IMPO DIFFERENTES (STRUCTURE MULTI-SUPPORTEE)
#    ACCE_IMPO = ACCELER1 (A.T*T) EN Z=0 (NO1) ET
#    ACCE_IMPO = ACCELER2 (0) EN Z=4 (NO5)
# ----------------------------------------------------------------------
# REF: PAS DE REF BIBLIO MAIS CALCUL ANALYTIQUE
# ----------------------------------------------------------------------

DEBUT(CODE=_F(NOM='SDLD103A',NIV_PUB_WEB='INTERNET'),DEBUG=_F(SDVERI='OUI'),
          BASE=_F( FICHIER = 'GLOBALE',  LONG_REPE = 20000)
        )

MAILLAGE=LIRE_MAILLAGE( )

MAILLAGE=DEFI_GROUP(reuse=MAILLAGE,
                    MAILLAGE=MAILLAGE,
                    CREA_GROUP_NO=_F( NOM='GROUP_NO_GN5',
                                      NOEUD=('NO5',),),);

MODELE=AFFE_MODELE(  MAILLAGE=MAILLAGE,AFFE=(
         _F(  PHENOMENE = 'MECANIQUE', MODELISATION = 'DIS_T',
                GROUP_MA = 'GROUP_MA_RESSORT'),
              _F(  PHENOMENE = 'MECANIQUE', MODELISATION = 'DIS_T',
                GROUP_NO = 'GROUP_NO_MASSES'))
                    )

#
CARA_ELE=AFFE_CARA_ELEM(  MODELE=MODELE,DISCRET=(
                _F(  CARA = 'K_T_D_L',  REPERE = 'GLOBAL',
                          GROUP_MA = 'GROUP_MA_RESSORT',
                          VALE = (10000., 0., 10000., )),
                _F(  CARA = 'M_T_L',  REPERE = 'GLOBAL',
                          GROUP_MA = 'GROUP_MA_RESSORT',
                          VALE = (0., 0., 0., 0., 0., 0., 0., 0., 0.,
                          0., 0., 0., 0., 0., 0., 0., 0., 0., 0., 0., 0., )),
                        _F(  CARA = 'M_T_D_N',  GROUP_NO = 'GROUP_NO_MASSES',  VALE = 10.))
                         )

#
CON_LIM=AFFE_CHAR_MECA(  MODELE=MODELE,DDL_IMPO=(
# ------------ LES DEPL_IMPO SONT DEFINIS DANS LE REPERE GLOBAL
               _F(  GROUP_NO = 'GROUP_NO_ENCASTRE',  DX = 0.,  DY = 0.,  DZ = 0.),
               _F(  GROUP_NO = 'GROUP_NO_MASSES',    DY = 0.,  DZ = 0.))
                        )

#
ASSEMBLAGE(  MODELE=MODELE,   CHARGE=CON_LIM,   CARA_ELEM=CARA_ELE,
                   NUME_DDL=CO("NUMEDDL"),MATR_ASSE=(
                 _F(  MATRICE = CO("RIGIDITE"),  OPTION = 'RIGI_MECA'),
                           _F(  MATRICE = CO("MASSE"),     OPTION = 'MASS_MECA'))
               )

#
# CALCUL DES MODES AVEC BLOCAGE DES ANCRAGES:
#---------------------------------------------
MODE_MEC=MODE_ITER_INV(  MATR_RIGI=RIGIDITE,   MATR_MASS=MASSE,
                 CALC_FREQ=_F(  OPTION = 'AJUSTE',  FREQ = (3.8,  7.,  9.3, ))
                         )

MODE_MEC=NORM_MODE(reuse=MODE_MEC,  MODE=MODE_MEC,   NORME='MASS_GENE' )

#
# CALCUL DES MODES STATIQUES AUX POINTS D ANCRAGE:
#-------------------------------------------------
MODE_STA=MODE_STATIQUE(  MATR_RIGI=RIGIDITE,   MATR_MASS=MASSE,
                         MODE_STAT=_F(  TOUT = 'OUI', AVEC_CMP = 'DX') )

#
# DESCRIPTION DES PAS DES FONCTIONS:
#-----------------------------------
L_INST=DEFI_LIST_REEL(  DEBUT=0.,
                        INTERVALLE=_F(  JUSQU_A = 1., PAS = 0.0001) )


#
# DEFINITION DES PAS DE CALCUL AVEC UNE LISTE D'INSTANTS
# (ceci n'est pas la forme canonique de definir la liste d'instants
# mais permet de couvrir cette maniere d'utiliser DEFI_LIST_REEL)
#------------------------------

list_py=[0.001*ii for ii in range(1001)]

L_INST2=DEFI_LIST_REEL(VALE=(list_py))
L_INST3=DEFI_LIST_REEL(VALE=(3.,4.,6.))
IMPR_CO(CONCEPT=_F(NOM=L_INST3))
#
# DESCRIPTION DES ACCELEROGRAMMES:
#---------------------------------
ACCE1 = FORMULE(NOM_PARA='INST',VALE='2.E+05*INST**2')
ACCELER1=CALC_FONC_INTERP( FONCTION=ACCE1, LIST_PARA=L_INST,
                       NOM_PARA = 'INST',
                       PROL_DROITE='LINEAIRE',
                      PROL_GAUCHE='LINEAIRE',
                      NOM_RESU='ACCE'
                     )

ACCE2 = FORMULE(NOM_PARA='INST',VALE='0.*INST ')
ACCELER2=CALC_FONC_INTERP( FONCTION=ACCE2, LIST_PARA=L_INST,
                      NOM_PARA = 'INST',
                       PROL_DROITE='LINEAIRE',
                      PROL_GAUCHE='LINEAIRE',
                      NOM_RESU='ACCE'
                     )

#
# INTEGRATION DES ACCELEROGRAMMES:
#---------------------------------
VITE1 = FORMULE(NOM_PARA='INST',VALE='(2.E+05*INST**3)/3.')
VITESSE1=CALC_FONC_INTERP( FONCTION=VITE1, LIST_PARA=L_INST,
                       NOM_PARA = 'INST',
                       PROL_DROITE='LINEAIRE',
                      PROL_GAUCHE='LINEAIRE',
                      NOM_RESU='VITE'
                     )

DEPL1 = FORMULE(NOM_PARA='INST',VALE='(2.E+05*INST**4)/12.')
DEPLACE1=CALC_FONC_INTERP( FONCTION=DEPL1, LIST_PARA=L_INST,
                       NOM_PARA = 'INST',
                       PROL_DROITE='LINEAIRE',
                      PROL_GAUCHE='LINEAIRE',
                      NOM_RESU='DEPL'
                     )

VITE2 = FORMULE(NOM_PARA='INST',VALE='0.*INST')
VITESSE2=CALC_FONC_INTERP( FONCTION=VITE2, LIST_PARA=L_INST,
                     NOM_PARA = 'INST',
                       PROL_DROITE='LINEAIRE',
                      PROL_GAUCHE='LINEAIRE',
                      NOM_RESU='VITE'
                     )

DEPL2 = FORMULE(NOM_PARA='INST',VALE='0.*INST')
DEPLACE2=CALC_FONC_INTERP( FONCTION=DEPL2, LIST_PARA=L_INST,
                     NOM_PARA = 'INST',
                       PROL_DROITE='LINEAIRE',
                      PROL_GAUCHE='LINEAIRE',
                      NOM_RESU='DEPL'
                     )

#
# ON ETUDIE LA STRUCTURE EN VRAI MULTI-APPUI:
#    ACCE_IMPO = ACCELER1 (A.T*T) EN Z=0 (NO1) ET
#    ACCE_IMPO = ACCELER2 (0) EN Z=4 (NO5)
#----------------------------------------------------------
#
MULT_X1=CALC_CHAR_SEISME(  MATR_MASS=MASSE,   DIRECTION=( 1., 0., 0.,),
                            MODE_STAT=MODE_STA,   NOEUD='NO1' )

MULT_X2=CALC_CHAR_SEISME(  MATR_MASS=MASSE,   DIRECTION=( 1., 0., 0.,),
                            MODE_STAT=MODE_STA,   NOEUD='NO5' )

#
# PROJECTION DES MATRICES M ET K SUR LA BASE MODALE
#---------------------------------------------------
PROJ_BASE(BASE=MODE_MEC,
          STOCKAGE='DIAG',
          MATR_ASSE_GENE=(
           _F( MATRICE = CO("MASS_GEN"), MATR_ASSE = MASSE),
           _F( MATRICE = CO("RIGI_GEN"), MATR_ASSE = RIGIDITE)),VECT_ASSE_GENE=(
           _F( VECTEUR = CO("VECT_X1"), VECT_ASSE = MULT_X1),
           _F( VECTEUR = CO("VECT_X2"), VECT_ASSE = MULT_X2))
                          )

#
# CALCUL TRANSITOIRE SUR BASE PHYSIQUE
# -------------------------------------------
TRAN_PHY=DYNA_VIBRA(TYPE_CALCUL='TRAN',BASE_CALCUL='PHYS',
                     MATR_MASS=MASSE,   MATR_RIGI=RIGIDITE,
                     SCHEMA_TEMPS=_F(SCHEMA='NEWMARK',),
                     MODE_STAT=MODE_STA,
                     EXCIT=(
                     _F( VECT_ASSE = MULT_X1,  ACCE = ACCELER1,
                           MULT_APPUI = 'OUI',
                           DIRECTION = ( 1., 0., 0.,), NOEUD = 'NO1',
                           VITE = VITESSE1, DEPL = DEPLACE1),
                     _F( VECT_ASSE = MULT_X2,  ACCE = ACCELER2,
                           MULT_APPUI = 'OUI',
                           DIRECTION = ( 1., 0., 0.,), GROUP_NO = 'GROUP_NO_GN5',
                           VITE = VITESSE2, DEPL = DEPLACE2),),
                     ARCHIVAGE=_F(  PAS_ARCH = 100, CHAM_EXCLU=('VITE','ACCE',),),
                     INCREMENT=_F(  LIST_INST=L_INST2,),
                    )

#
# CALCUL TRANSITOIRE PAR SUPERPOSITION MODALE
# -------------------------------------------
TRAN_GEE=DYNA_VIBRA(TYPE_CALCUL='TRAN',BASE_CALCUL='GENE',
                 MATR_MASS=MASS_GEN,   MATR_RIGI=RIGI_GEN,
                 SCHEMA_TEMPS=_F(SCHEMA='EULER',),
                 MODE_STAT=MODE_STA,
                 EXCIT=(
                _F( VECT_ASSE_GENE = VECT_X1,  ACCE = ACCELER1,
                        MULT_APPUI = 'OUI',
                        DIRECTION = ( 1., 0., 0.,), NOEUD = 'NO1',
                        VITE = VITESSE1, DEPL = DEPLACE1),
                _F( VECT_ASSE_GENE = VECT_X2,  ACCE = ACCELER2,
                        MULT_APPUI = 'OUI',
                        DIRECTION = ( 1., 0., 0.,), NOEUD = 'NO5',
                        VITE = VITESSE2, DEPL = DEPLACE2)),
                 ARCHIVAGE=_F(  PAS_ARCH = 1),
                 INCREMENT=_F(  LIST_INST=L_INST2,),

                )

#
TRAN_GED=DYNA_VIBRA(TYPE_CALCUL='TRAN',BASE_CALCUL='GENE',
                 MATR_MASS=MASS_GEN,   MATR_RIGI=RIGI_GEN,
                 SCHEMA_TEMPS=_F(SCHEMA='DEVOGE',),
                 MODE_STAT=MODE_STA,
                 EXCIT=(
                _F( VECT_ASSE_GENE = VECT_X1,  ACCE = ACCELER1,
                        MULT_APPUI = 'OUI',
                        DIRECTION = ( 1., 0., 0.,), NOEUD = 'NO1',
                        VITE = VITESSE1, DEPL = DEPLACE1),
                _F( VECT_ASSE_GENE = VECT_X2,  ACCE = ACCELER2,
                        MULT_APPUI = 'OUI',
                        DIRECTION = ( 1., 0., 0.,), NOEUD = 'NO5',
                        VITE = VITESSE2, DEPL = DEPLACE2)),
                 ARCHIVAGE=_F(  PAS_ARCH = 1),
                 INCREMENT=_F(  LIST_INST=L_INST2,),
                )

#
TRAN_GEA=DYNA_VIBRA(TYPE_CALCUL='TRAN',BASE_CALCUL='GENE',
                MATR_MASS=MASS_GEN,   MATR_RIGI=RIGI_GEN,
                SCHEMA_TEMPS=_F(SCHEMA='ADAPT_ORDRE2',),
                MODE_STAT=MODE_STA,
                EXCIT=(
                _F( VECT_ASSE_GENE = VECT_X1,  ACCE = ACCELER1,
                        MULT_APPUI = 'OUI',
                        DIRECTION = ( 1., 0., 0.,), NOEUD = 'NO1',
                        VITE = VITESSE1, DEPL = DEPLACE1),
                _F( VECT_ASSE_GENE = VECT_X2,  ACCE = ACCELER2,
                        MULT_APPUI = 'OUI',
                        DIRECTION = ( 1., 0., 0.,), NOEUD = 'NO5',
                        VITE = VITESSE2, DEPL = DEPLACE2)),
                 ARCHIVAGE=_F(  PAS_ARCH = 1),
# POUR AMELIORER LE TEMPS CPU ON A IMPOSE UN PAS_MAXI PLUS GRAND QUE PAS
                 INCREMENT=_F(  INST_INIT = 0., INST_FIN = 1.0, PAS = 0.0001, PAS_MAXI = 0.001,
                             VITE_MIN = 'MAXI', NMAX_ITER_PAS=50,)
                )
#
TRA_RK54=DYNA_VIBRA(TYPE_CALCUL='TRAN',BASE_CALCUL='GENE',
                MATR_MASS=MASS_GEN,   MATR_RIGI=RIGI_GEN,
                SCHEMA_TEMPS=_F(SCHEMA='RUNGE_KUTTA_54',TOLERANCE=1.E-6),
                MODE_STAT=MODE_STA,
                EXCIT=(
                _F( VECT_ASSE_GENE = VECT_X1,  ACCE = ACCELER1,
                        MULT_APPUI = 'OUI',
                        DIRECTION = ( 1., 0., 0.,), NOEUD = 'NO1',
                        VITE = VITESSE1, DEPL = DEPLACE1),
                _F( VECT_ASSE_GENE = VECT_X2,  ACCE = ACCELER2,
                        MULT_APPUI = 'OUI',
                        DIRECTION = ( 1., 0., 0.,), NOEUD = 'NO5',
                        VITE = VITESSE2, DEPL = DEPLACE2)),
                 ARCHIVAGE=_F( PAS_ARCH = 1),
                 INCREMENT=_F( INST_INIT = 0., INST_FIN = 1.0, PAS = 0.0001,PAS_MAXI = 0.001))
#
TRA_RK32=DYNA_VIBRA(TYPE_CALCUL='TRAN',BASE_CALCUL='GENE',
                MATR_MASS=MASS_GEN,   MATR_RIGI=RIGI_GEN,
                SCHEMA_TEMPS=_F(SCHEMA='RUNGE_KUTTA_32',TOLERANCE=1.E-5),
                MODE_STAT=MODE_STA,
                EXCIT=(
                _F( VECT_ASSE_GENE = VECT_X1,  ACCE = ACCELER1,
                        MULT_APPUI = 'OUI',
                        DIRECTION = ( 1., 0., 0.,), NOEUD = 'NO1',
                        VITE = VITESSE1, DEPL = DEPLACE1),
                _F( VECT_ASSE_GENE = VECT_X2,  ACCE = ACCELER2,
                        MULT_APPUI = 'OUI',
                        DIRECTION = ( 1., 0., 0.,), NOEUD = 'NO5',
                        VITE = VITESSE2, DEPL = DEPLACE2)),
                 ARCHIVAGE=_F( PAS_ARCH = 1),
                 INCREMENT=_F( INST_INIT = 0., INST_FIN = 1.0, PAS = 0.0001,PAS_MAXI = 0.001))

#
L_RECU=DEFI_LIST_REEL(  DEBUT=0.,
                      INTERVALLE=_F(  JUSQU_A = 1.0,  NOMBRE = 20) )

# RESTITUTION DU DEPLACEMENT ABSOLU
# ---------------------------------
RESUAD=REST_GENE_PHYS(  RESU_GENE=TRAN_GED,
                         INTERPOL='LIN',
                         LIST_INST=L_RECU,
                        TOUT_CHAM='OUI',
                        MULT_APPUI='OUI'
                       )

RESUAA=REST_GENE_PHYS(  RESU_GENE=TRAN_GEA,
                         INTERPOL='LIN',
                         PRECISION=4.E-3,
                         LIST_INST=L_RECU,
                        TOUT_CHAM='OUI',
                        MULT_APPUI='OUI'
                       )

RESARK54=REST_GENE_PHYS(  RESU_GENE=TRA_RK54,
                         INTERPOL='LIN',
                         PRECISION=4.E-3,
                         LIST_INST=L_RECU,
                        TOUT_CHAM='OUI',
                        MULT_APPUI='OUI'
                       )

RESARK32=REST_GENE_PHYS(  RESU_GENE=TRA_RK54,
                         INTERPOL='LIN',
                         PRECISION=4.E-3,
                         LIST_INST=L_RECU,
                        TOUT_CHAM='OUI',
                        MULT_APPUI='OUI'
                       )

# RESTITUTION DU DEPLACEMENT RELATIF
# ----------------------------------
RESURD=REST_GENE_PHYS(  RESU_GENE=TRAN_GED,
                         INTERPOL='LIN',
                         LIST_INST=L_RECU,
                        TOUT_CHAM='OUI',
                       )

RESURA=REST_GENE_PHYS(  RESU_GENE=TRAN_GEA,
                         INTERPOL='LIN',
                         PRECISION=4.E-3,
                         LIST_INST=L_RECU,
                        TOUT_CHAM='OUI',
                       )

RESRRK54=REST_GENE_PHYS(  RESU_GENE=TRA_RK54,
                         INTERPOL='LIN',
                         PRECISION=4.E-3,
                         LIST_INST=L_RECU,
                        TOUT_CHAM='OUI',)

RESRRK32=REST_GENE_PHYS(  RESU_GENE=TRA_RK32,
                         INTERPOL='LIN',
                         PRECISION=4.E-3,
                         LIST_INST=L_RECU,
                        TOUT_CHAM='OUI',)
#
# CALCUL ANALYTIQUE DES DEPLACEMENTS
# ----------------------------------

OMEGA1=sqrt(2000./(2.+sqrt(2.)))

OMEGA2=sqrt(2000.)

OMEGA3=sqrt(2000./(2.-sqrt(2.)))

F1 = FORMULE(NOM_PARA='INST',VALE='cos(OMEGA1*INST)-1. ')
F2 = FORMULE(NOM_PARA='INST',VALE='cos(OMEGA2*INST)-1. ')
F3 = FORMULE(NOM_PARA='INST',VALE='cos(OMEGA3*INST)-1. ')

# CALCUL DU DEPLACEMENT RELATIF AU NOEUD 2 : XRNO2
# ------------------------------------------------

XRNO2a = FORMULE(NOM_PARA='INST',VALE='''
-25.*(7*INST**2+((10.+7.*sqrt(2.))*F1(INST) +F2(INST)
                        +(10.-7.*sqrt(2.))*F3(INST))*0.001)
        ''')

XR2='XRNO2'

XRNO2=CALC_FONC_INTERP(     FONCTION=XRNO2a,
                            NOM_RESU=XR2,    LIST_PARA=L_RECU,
                            NOM_PARA = 'INST', )

# CALCUL DU DEPLACEMENT RELATIF AU NOEUD 3 : XRNO3
# ------------------------------------------------

XRNO3a = FORMULE(NOM_PARA='INST',VALE='''
-25.*(8*INST**2+((10.*sqrt(2.)+14.)*F1(INST)
                        +(-10.*sqrt(2.)+14.)*F3(INST))*0.001)
         ''')

XR3='XRNO3'

XRNO3=CALC_FONC_INTERP(     FONCTION=XRNO3a,
                            NOM_RESU=XR3,    LIST_PARA=L_RECU,
                            NOM_PARA = 'INST', )

# CALCUL DU DEPLACEMENT RELATIF AU NOEUD 4 : XRNO4
# ------------------------------------------------

XRNO4a = FORMULE(NOM_PARA='INST',VALE='''
-25.*(5*INST**2+((10.+7.*sqrt(2.))*F1(INST) -F2(INST)
                        +(10.-7.*sqrt(2.))*F3(INST))*0.001)
        ''')

XR4='XRNO4'

XRNO4=CALC_FONC_INTERP(     FONCTION=XRNO4a,
                            NOM_RESU=XR4,    LIST_PARA=L_RECU,
                            NOM_PARA = 'INST', )

# CALCUL ANALYTIQUE DU DEPLACEMENT D ENTRAINEMENT AU NOEUD 2 : XRNOE2
# -------------------------------------------------------------------

XRNOE2a = FORMULE(NOM_PARA='INST',VALE='(300000.*INST**4)/24.')
XRE2='XRNOE2'

XRNOE2=CALC_FONC_INTERP(     FONCTION=XRNOE2a,
                             NOM_RESU=XRE2,    LIST_PARA=L_RECU,
                             NOM_PARA = 'INST', )

# CALCUL ANALYTIQUE DU DEPLACEMENT D ENTRAINEMENT AU NOEUD 3 : XRNOE3
# -------------------------------------------------------------------

XRNOE3a = FORMULE(NOM_PARA='INST',VALE='(100000.*INST**4)/12.')
XRE3='XRNOE3'

XRNOE3=CALC_FONC_INTERP(     FONCTION=XRNOE3a,
                             NOM_RESU=XRE3,    LIST_PARA=L_RECU,
                             NOM_PARA = 'INST', )

# CALCUL ANALYTIQUE DU DEPLACEMENT D ENTRAINEMENT AU NOEUD 4 : XRNOE4
# -------------------------------------------------------------------

XRNOE4a = FORMULE(NOM_PARA='INST',VALE='(100000.*INST**4)/24.')
XRE4='XRNOE4'

XRNOE4=CALC_FONC_INTERP(     FONCTION=XRNOE4a,
                             NOM_RESU=XRE4,    LIST_PARA=L_RECU,
                             NOM_PARA = 'INST', )

# CALCUL ANALYTIQUE DU DEPLACEMENT ABSOLU AU NOEUD 2 : XRNOA2
# -----------------------------------------------------------
# CALCUL ANALYTIQUE DU DEPLACEMENT ABSOLU AU NOEUD 3 : XRNOA3
# -----------------------------------------------------------
# CALCUL ANALYTIQUE DU DEPLACEMENT ABSOLU AU NOEUD 4 : XRNOA4
# -----------------------------------------------------------

# RECUPERATION DES DEPLACEMENTS RELATIFS CALCULES
# -----------------------------------------------
NO2DXR_P=RECU_FONCTION(  NOEUD='NO2',  NOM_CMP='DX',   NOM_CHAM='DEPL',
                             RESULTAT=TRAN_PHY,
                           INTERP_NUME='LIN',      INTERPOL='LIN',
                             LIST_INST=L_RECU    )

NO2DXR_E=RECU_FONCTION(  NOEUD='NO2',  NOM_CMP='DX',   NOM_CHAM='DEPL',
                             RESU_GENE=TRAN_GEE,
                           INTERP_NUME='LIN',      INTERPOL='LIN',
                             LIST_INST=L_RECU    )

NO3DXR_E=RECU_FONCTION(  NOEUD='NO3',  NOM_CMP='DX',   NOM_CHAM='DEPL',
                             RESU_GENE=TRAN_GEE,
                           INTERP_NUME='LIN',      INTERPOL='LIN',
                             LIST_INST=L_RECU    )

NO4DXR_E=RECU_FONCTION(  NOEUD='NO4',  NOM_CMP='DX',   NOM_CHAM='DEPL',
                             RESU_GENE=TRAN_GEE,
                           INTERP_NUME='LIN',      INTERPOL='LIN',
                             LIST_INST=L_RECU    )

NO2DXR_D=RECU_FONCTION(  NOEUD='NO2',  NOM_CMP='DX',   NOM_CHAM='DEPL',
                             RESU_GENE=TRAN_GED,
                           INTERP_NUME='LIN',      INTERPOL='LIN',
                             LIST_INST=L_RECU    )

NO3DXR_D=RECU_FONCTION(  NOEUD='NO3',  NOM_CMP='DX',   NOM_CHAM='DEPL',
                             RESU_GENE=TRAN_GED,
                           INTERP_NUME='LIN',      INTERPOL='LIN',
                             LIST_INST=L_RECU    )

NO4DXR_D=RECU_FONCTION(  NOEUD='NO4',  NOM_CMP='DX',   NOM_CHAM='DEPL',
                         RESU_GENE=TRAN_GED,
                         INTERP_NUME='LIN',      INTERPOL='LIN',
                         LIST_INST=L_RECU    )

NO2DXR_A=RECU_FONCTION(  NOEUD='NO2',  NOM_CMP='DX',   NOM_CHAM='DEPL',
                             RESU_GENE=TRAN_GEA,
                           INTERP_NUME='LIN',      INTERPOL='LIN',
                             LIST_INST=L_RECU    )

NO3DXR_A=RECU_FONCTION(  NOEUD='NO3',  NOM_CMP='DX',   NOM_CHAM='DEPL',
                             RESU_GENE=TRAN_GEA,
                           INTERP_NUME='LIN',      INTERPOL='LIN',
                             LIST_INST=L_RECU    )

NO4DXR_A=RECU_FONCTION(  NOEUD='NO4',  NOM_CMP='DX',   NOM_CHAM='DEPL',
                             RESU_GENE=TRAN_GEA,
                           INTERP_NUME='LIN',      INTERPOL='LIN',
                             LIST_INST=L_RECU    )

NO2DXR_5=RECU_FONCTION(  NOEUD='NO2',  NOM_CMP='DX',   NOM_CHAM='DEPL',
                         RESU_GENE=TRA_RK54,
                         INTERP_NUME='LIN', INTERPOL='LIN',
                         LIST_INST=L_RECU )

NO3DXR_5=RECU_FONCTION(  NOEUD='NO3',  NOM_CMP='DX',   NOM_CHAM='DEPL',
                         RESU_GENE=TRA_RK54,
                         INTERP_NUME='LIN', INTERPOL='LIN',
                         LIST_INST=L_RECU )

NO4DXR_5=RECU_FONCTION(  NOEUD='NO4',  NOM_CMP='DX',   NOM_CHAM='DEPL',
                         RESU_GENE=TRA_RK54,
                         INTERP_NUME='LIN', INTERPOL='LIN',
                         LIST_INST=L_RECU )

NO2DXR_3=RECU_FONCTION(  NOEUD='NO2',  NOM_CMP='DX',   NOM_CHAM='DEPL',
                         RESU_GENE=TRA_RK32,
                         INTERP_NUME='LIN', INTERPOL='LIN',
                         LIST_INST=L_RECU )

NO3DXR_3=RECU_FONCTION(  NOEUD='NO3',  NOM_CMP='DX',   NOM_CHAM='DEPL',
                         RESU_GENE=TRA_RK32,
                         INTERP_NUME='LIN', INTERPOL='LIN',
                         LIST_INST=L_RECU )

NO4DXR_3=RECU_FONCTION(  NOEUD='NO4',  NOM_CMP='DX',   NOM_CHAM='DEPL',
                         RESU_GENE=TRA_RK32,
                         INTERP_NUME='LIN', INTERPOL='LIN',
                         LIST_INST=L_RECU )

#
# RECUPERATION DES DEPLACEMENTS ABSOLUS CALCULES
# ----------------------------------------------

NO2DXA_E=RECU_FONCTION(  NOEUD='NO2',  NOM_CMP='DX',   NOM_CHAM='DEPL',
                         RESU_GENE=TRAN_GEE,
                         MULT_APPUI='OUI',         INTERP_NUME='LIN',
                         LIST_INST=L_RECU,     INTERPOL='LIN'
                        )

NO3DXA_E=RECU_FONCTION(  NOEUD='NO3',  NOM_CMP='DX',   NOM_CHAM='DEPL',
                            RESU_GENE=TRAN_GEE,
                          MULT_APPUI='OUI',         INTERP_NUME='LIN',
                             LIST_INST=L_RECU,     INTERPOL='LIN'
                        )

NO4DXA_E=RECU_FONCTION( NOEUD='NO4',  NOM_CMP='DX',   NOM_CHAM='DEPL',
                        RESU_GENE=TRAN_GEE,
                        MULT_APPUI='OUI',         INTERP_NUME='LIN',
                        LIST_INST=L_RECU,     INTERPOL='LIN'
                        )

NO2DXA_D=RECU_FONCTION(  NOEUD='NO2',  NOM_CMP='DX',   NOM_CHAM='DEPL',
                         RESULTAT=RESUAD,
                         INTERP_NUME='LIN', INTERPOL='LIN',
                        LIST_INST=L_RECU    )

NO3DXA_D=RECU_FONCTION(  NOEUD='NO3',  NOM_CMP='DX',   NOM_CHAM='DEPL',
                              RESULTAT=RESUAD,
                           INTERP_NUME='LIN',      INTERPOL='LIN',
                             LIST_INST=L_RECU    )

NO4DXA_D=RECU_FONCTION(  NOEUD='NO4',  NOM_CMP='DX',   NOM_CHAM='DEPL',
                              RESULTAT=RESUAD,
                           INTERP_NUME='LIN',      INTERPOL='LIN',
                             LIST_INST=L_RECU    )

NO2DXA_A=RECU_FONCTION(  NOEUD='NO2',  NOM_CMP='DX',   NOM_CHAM='DEPL',
                              RESULTAT=RESUAA,
                           INTERP_NUME='LIN',      INTERPOL='LIN',
                             LIST_INST=L_RECU    )

NO3DXA_A=RECU_FONCTION(  NOEUD='NO3',  NOM_CMP='DX',   NOM_CHAM='DEPL',
                              RESULTAT=RESUAA,
                           INTERP_NUME='LIN',      INTERPOL='LIN',
                             LIST_INST=L_RECU    )
#
NO4DXA_A=RECU_FONCTION(  NOEUD='NO4',  NOM_CMP='DX',   NOM_CHAM='DEPL',
                              RESULTAT=RESUAA,
                           INTERP_NUME='LIN',      INTERPOL='LIN',
                             LIST_INST=L_RECU    )

N2DXA_54=RECU_FONCTION(  NOEUD='NO2',  NOM_CMP='DX',   NOM_CHAM='DEPL',
                              RESULTAT=RESARK54,
                           INTERP_NUME='LIN',      INTERPOL='LIN',
                             LIST_INST=L_RECU    )

N3DXA_54=RECU_FONCTION(  NOEUD='NO3',  NOM_CMP='DX',   NOM_CHAM='DEPL',
                              RESULTAT=RESARK54,
                           INTERP_NUME='LIN',      INTERPOL='LIN',
                             LIST_INST=L_RECU    )
#
N4DXA_54=RECU_FONCTION(  NOEUD='NO4',  NOM_CMP='DX',   NOM_CHAM='DEPL',
                              RESULTAT=RESARK54,
                           INTERP_NUME='LIN',      INTERPOL='LIN',
                             LIST_INST=L_RECU    )
#
N2DXA_32=RECU_FONCTION(  NOEUD='NO2',  NOM_CMP='DX',   NOM_CHAM='DEPL',
                         RESULTAT=RESARK32,
                         INTERP_NUME='LIN',      INTERPOL='LIN',
                         LIST_INST=L_RECU    )

N3DXA_32=RECU_FONCTION(  NOEUD='NO3',  NOM_CMP='DX',   NOM_CHAM='DEPL',
                         RESULTAT=RESARK32,
                         INTERP_NUME='LIN',      INTERPOL='LIN',
                         LIST_INST=L_RECU    )
#
N4DXA_32=RECU_FONCTION(  NOEUD='NO4',  NOM_CMP='DX',   NOM_CHAM='DEPL',
                         RESULTAT=RESARK32,
                         INTERP_NUME='LIN',      INTERPOL='LIN',
                         LIST_INST=L_RECU    )
#
# COMPARAISON DES RESULTATS NUMERIQUES/ RESULTATS ANALYTIQUES
# -----------------------------------------------------------

TEST_FONCTION(VALEUR=(_F(VALE_CALC=-0.84775313,
                         PRECISION=1.E-3,
                         REFERENCE='ANALYTIQUE',
                         VALE_REFE= XRNO2a(0.10),
                         VALE_PARA=0.10000000000000001,
                         FONCTION=NO2DXR_P,),
                      _F(VALE_CALC=-15.52035,
                         PRECISION=1.E-3,
                         REFERENCE='ANALYTIQUE',
                         VALE_REFE= XRNO2a(0.30),
                         VALE_PARA=0.29999999999999999,
                         FONCTION=NO2DXR_P,),
                      _F(VALE_CALC=-43.64472,
                         PRECISION=1.E-3,
                         REFERENCE='ANALYTIQUE',
                         VALE_REFE= XRNO2a(0.50),
                         VALE_PARA=0.5,
                         FONCTION=NO2DXR_P,),
                      _F(VALE_CALC=-85.08260,
                         PRECISION=1.E-3,
                         REFERENCE='ANALYTIQUE',
                         VALE_REFE= XRNO2a(0.70),
                         VALE_PARA=0.69999999999999996,
                         FONCTION=NO2DXR_P,),
                      _F(VALE_CALC=-174.7899,
                         PRECISION=1.E-3,
                         REFERENCE='ANALYTIQUE',
                         VALE_REFE= XRNO2a(1.),
                         VALE_PARA=1.0,
                         FONCTION=NO2DXR_P,),
                      _F(VALE_CALC=-0.84772467,
                         PRECISION=1.E-3,
                         REFERENCE='ANALYTIQUE',
                         VALE_REFE= XRNO2a(0.10),
                         VALE_PARA=0.10000000000000001,
                         FONCTION=NO2DXR_E,),
                      _F(VALE_CALC=-15.52009,
                         PRECISION=1.E-3,
                         REFERENCE='ANALYTIQUE',
                         VALE_REFE= XRNO2a(0.30),
                         VALE_PARA=0.29999999999999999,
                         FONCTION=NO2DXR_E,),
                      _F(VALE_CALC=-43.64499,
                         PRECISION=1.E-3,
                         REFERENCE='ANALYTIQUE',
                         VALE_REFE= XRNO2a(0.50),
                         VALE_PARA=0.5,
                         FONCTION=NO2DXR_E,),
                      _F(VALE_CALC=-85.08321,
                         PRECISION=1.E-3,
                         REFERENCE='ANALYTIQUE',
                         VALE_REFE= XRNO2a(0.70),
                         VALE_PARA=0.69999999999999996,
                         FONCTION=NO2DXR_E,),
                      _F(VALE_CALC=-174.7904,
                         PRECISION=1.E-3,
                         REFERENCE='ANALYTIQUE',
                         VALE_REFE= XRNO2a(1.),
                         VALE_PARA=1.0,
                         FONCTION=NO2DXR_E,),
                      _F(VALE_CALC=-0.84773413,
                         PRECISION=1.E-3,
                         REFERENCE='ANALYTIQUE',
                         VALE_REFE= XRNO2a(0.10),
                         VALE_PARA=0.10000000000000001,
                         FONCTION=NO2DXR_D,),
                      _F(VALE_CALC=-15.52017,
                         PRECISION=1.E-3,
                         REFERENCE='ANALYTIQUE',
                         VALE_REFE= XRNO2a(0.30),
                         VALE_PARA=0.29999999999999999,
                         FONCTION=NO2DXR_D,),
                      _F(VALE_CALC=-43.64490,
                         PRECISION=1.E-3,
                         REFERENCE='ANALYTIQUE',
                         VALE_REFE= XRNO2a(0.50),
                         VALE_PARA=0.5,
                         FONCTION=NO2DXR_D,),
                      _F(VALE_CALC=-85.08301,
                         PRECISION=1.E-3,
                         REFERENCE='ANALYTIQUE',
                         VALE_REFE= XRNO2a(0.70),
                         VALE_PARA=0.69999999999999996,
                         FONCTION=NO2DXR_D,),
                      _F(VALE_CALC=-174.7902,
                         PRECISION=1.E-3,
                         REFERENCE='ANALYTIQUE',
                         VALE_REFE= XRNO2a(1.),
                         VALE_PARA=1.0,
                         FONCTION=NO2DXR_D,),
                      _F(VALE_CALC=-0.84778550,
                         PRECISION=1.E-3,
                         REFERENCE='ANALYTIQUE',
                         VALE_REFE= XRNO2a(0.10),
                         VALE_PARA=0.10000000000000001,
                         FONCTION=NO2DXR_A,),
                      _F(VALE_CALC=-15.52010,
                         PRECISION=1.E-3,
                         REFERENCE='ANALYTIQUE',
                         VALE_REFE= XRNO2a(0.30),
                         VALE_PARA=0.29999999999999999,
                         FONCTION=NO2DXR_A,),
                      _F(VALE_CALC=-43.64502,
                         PRECISION=1.E-3,
                         REFERENCE='ANALYTIQUE',
                         VALE_REFE= XRNO2a(0.50),
                         VALE_PARA=0.5,
                         FONCTION=NO2DXR_A,),
                      _F(VALE_CALC=-85.08327,
                         PRECISION=1.E-3,
                         REFERENCE='ANALYTIQUE',
                         VALE_REFE= XRNO2a(0.70),
                         VALE_PARA=0.69999999999999996,
                         FONCTION=NO2DXR_A,),
                      _F(VALE_CALC=-174.7904,
                         PRECISION=1.E-3,
                         REFERENCE='ANALYTIQUE',
                         VALE_REFE= XRNO2a(1.),
                         VALE_PARA=1.0,
                         FONCTION=NO2DXR_A,),
                      _F(VALE_CALC=-15.52018,
                         PRECISION=1.E-3,
                         REFERENCE='ANALYTIQUE',
                         VALE_REFE= XRNO2a(0.30),
                         VALE_PARA=0.29999999999999999,
                         FONCTION=NO2DXR_5,),
                      _F(VALE_CALC=-43.64491,
                         PRECISION=1.E-3,
                         REFERENCE='ANALYTIQUE',
                         VALE_REFE= XRNO2a(0.50),
                         VALE_PARA=0.5,
                         FONCTION=NO2DXR_5,),
                      _F(VALE_CALC=-85.08301,
                         PRECISION=1.E-3,
                         REFERENCE='ANALYTIQUE',
                         VALE_REFE= XRNO2a(0.70),
                         VALE_PARA=0.69999999999999996,
                         FONCTION=NO2DXR_5,),
                      _F(VALE_CALC=-174.7902,
                         PRECISION=1.E-3,
                         REFERENCE='ANALYTIQUE',
                         VALE_REFE= XRNO2a(1.),
                         VALE_PARA=1.0,
                         FONCTION=NO2DXR_5,),
                      _F(VALE_CALC=-15.52018,
                         PRECISION=1.E-3,
                         REFERENCE='ANALYTIQUE',
                         VALE_REFE= XRNO2a(0.30),
                         VALE_PARA=0.29999999999999999,
                         FONCTION=NO2DXR_3,),
                      _F(VALE_CALC=-43.64491,
                         PRECISION=1.E-3,
                         REFERENCE='ANALYTIQUE',
                         VALE_REFE= XRNO2a(0.50),
                         VALE_PARA=0.5,
                         FONCTION=NO2DXR_3,),
                      _F(VALE_CALC=-85.08304,
                         PRECISION=1.E-3,
                         REFERENCE='ANALYTIQUE',
                         VALE_REFE= XRNO2a(0.70),
                         VALE_PARA=0.69999999999999996,
                         FONCTION=NO2DXR_3,),
                      _F(VALE_CALC=-174.7902,
                         PRECISION=1.E-3,
                         REFERENCE='ANALYTIQUE',
                         VALE_REFE= XRNO2a(1.),
                         VALE_PARA=1.0,
                         FONCTION=NO2DXR_3,),
                      ),
              )

TEST_FONCTION(VALEUR=(_F(VALE_CALC=-0.76841992,
                         PRECISION=1.E-3,
                         REFERENCE='ANALYTIQUE',
                         VALE_REFE= XRNO3a(0.10),
                         VALE_PARA=0.10000000000000001,
                         FONCTION=NO3DXR_E,),
                      _F(VALE_CALC=-17.69223,
                         PRECISION=1.E-3,
                         REFERENCE='ANALYTIQUE',
                         VALE_REFE= XRNO3a(0.30),
                         VALE_PARA=0.29999999999999999,
                         FONCTION=NO3DXR_E,),
                      _F(VALE_CALC=-49.93107,
                         PRECISION=1.E-3,
                         REFERENCE='ANALYTIQUE',
                         VALE_REFE= XRNO3a(0.50),
                         VALE_PARA=0.5,
                         FONCTION=NO3DXR_E,),
                      _F(VALE_CALC=-97.07142,
                         PRECISION=1.E-3,
                         REFERENCE='ANALYTIQUE',
                         VALE_REFE= XRNO3a(0.70),
                         VALE_PARA=0.69999999999999996,
                         FONCTION=NO3DXR_E,),
                      _F(VALE_CALC=-199.7222,
                         PRECISION=1.E-3,
                         REFERENCE='ANALYTIQUE',
                         VALE_REFE= XRNO3a(1.),
                         VALE_PARA=1.0,
                         FONCTION=NO3DXR_E,),
                      _F(VALE_CALC=-0.76844862,
                         PRECISION=1.E-3,
                         REFERENCE='ANALYTIQUE',
                         VALE_REFE= XRNO3a(0.10),
                         VALE_PARA=0.10000000000000001,
                         FONCTION=NO3DXR_D,),
                      _F(VALE_CALC=-17.69234,
                         PRECISION=1.E-3,
                         REFERENCE='ANALYTIQUE',
                         VALE_REFE= XRNO3a(0.30),
                         VALE_PARA=0.29999999999999999,
                         FONCTION=NO3DXR_D,),
                      _F(VALE_CALC=-49.93099,
                         PRECISION=1.E-3,
                         REFERENCE='ANALYTIQUE',
                         VALE_REFE= XRNO3a(0.50),
                         VALE_PARA=0.5,
                         FONCTION=NO3DXR_D,),
                      _F(VALE_CALC=-97.07115,
                         PRECISION=1.E-3,
                         REFERENCE='ANALYTIQUE',
                         VALE_REFE= XRNO3a(0.70),
                         VALE_PARA=0.69999999999999996,
                         FONCTION=NO3DXR_D,),
                      _F(VALE_CALC=-199.7219,
                         PRECISION=1.E-3,
                         REFERENCE='ANALYTIQUE',
                         VALE_REFE= XRNO3a(1.),
                         VALE_PARA=1.0,
                         FONCTION=NO3DXR_D,),
                      _F(VALE_CALC=-0.76849268,
                         PRECISION=1.E-3,
                         REFERENCE='ANALYTIQUE',
                         VALE_REFE= XRNO3a(0.10),
                         VALE_PARA=0.10000000000000001,
                         FONCTION=NO3DXR_A,),
                      _F(VALE_CALC=-17.69225,
                         PRECISION=1.E-3,
                         REFERENCE='ANALYTIQUE',
                         VALE_REFE= XRNO3a(0.30),
                         VALE_PARA=0.29999999999999999,
                         FONCTION=NO3DXR_A,),
                      _F(VALE_CALC=-49.93109,
                         PRECISION=1.E-3,
                         REFERENCE='ANALYTIQUE',
                         VALE_REFE= XRNO3a(0.50),
                         VALE_PARA=0.5,
                         FONCTION=NO3DXR_A,),
                      _F(VALE_CALC=-97.07150,
                         PRECISION=1.E-3,
                         REFERENCE='ANALYTIQUE',
                         VALE_REFE= XRNO3a(0.70),
                         VALE_PARA=0.69999999999999996,
                         FONCTION=NO3DXR_A,),
                      _F(VALE_CALC=-199.7222,
                         PRECISION=1.E-3,
                         REFERENCE='ANALYTIQUE',
                         VALE_REFE= XRNO3a(1.),
                         VALE_PARA=1.0,
                         FONCTION=NO3DXR_A,),
                      _F(VALE_CALC=-17.69235,
                         PRECISION=1.E-3,
                         REFERENCE='ANALYTIQUE',
                         VALE_REFE= XRNO3a(0.30),
                         VALE_PARA=0.29999999999999999,
                         FONCTION=NO3DXR_5,),
                      _F(VALE_CALC=-49.93099,
                         PRECISION=1.E-3,
                         REFERENCE='ANALYTIQUE',
                         VALE_REFE= XRNO3a(0.50),
                         VALE_PARA=0.5,
                         FONCTION=NO3DXR_5,),
                      _F(VALE_CALC=-97.07116,
                         PRECISION=1.E-3,
                         REFERENCE='ANALYTIQUE',
                         VALE_REFE= XRNO3a(0.70),
                         VALE_PARA=0.69999999999999996,
                         FONCTION=NO3DXR_5,),
                      _F(VALE_CALC=-199.7219,
                         PRECISION=1.E-3,
                         REFERENCE='ANALYTIQUE',
                         VALE_REFE= XRNO3a(1.),
                         VALE_PARA=1.0,
                         FONCTION=NO3DXR_5,),
                      _F(VALE_CALC=-17.69236,
                         PRECISION=1.E-3,
                         REFERENCE='ANALYTIQUE',
                         VALE_REFE= XRNO3a(0.30),
                         VALE_PARA=0.29999999999999999,
                         FONCTION=NO3DXR_3,),
                      _F(VALE_CALC=-49.93098,
                         PRECISION=1.E-3,
                         REFERENCE='ANALYTIQUE',
                         VALE_REFE= XRNO3a(0.50),
                         VALE_PARA=0.5,
                         FONCTION=NO3DXR_3,),
                      _F(VALE_CALC=-97.07119,
                         PRECISION=1.E-3,
                         REFERENCE='ANALYTIQUE',
                         VALE_REFE= XRNO3a(0.70),
                         VALE_PARA=0.69999999999999996,
                         FONCTION=NO3DXR_3,),
                      _F(VALE_CALC=-199.7219,
                         PRECISION=1.E-3,
                         REFERENCE='ANALYTIQUE',
                         VALE_REFE= XRNO3a(1.),
                         VALE_PARA=1.0,
                         FONCTION=NO3DXR_3,),
                      ),
              )

TEST_FONCTION(VALEUR=(_F(VALE_CALC=-0.40960406,
                         PRECISION=1.E-3,
                         REFERENCE='ANALYTIQUE',
                         VALE_REFE= XRNO4a(0.10),
                         VALE_PARA=0.10000000000000001,
                         FONCTION=NO4DXR_E,),
                      _F(VALE_CALC=-11.03713,
                         PRECISION=1.E-3,
                         REFERENCE='ANALYTIQUE',
                         VALE_REFE= XRNO4a(0.30),
                         VALE_PARA=0.29999999999999999,
                         FONCTION=NO4DXR_E,),
                      _F(VALE_CALC=-31.24159,
                         PRECISION=1.E-3,
                         REFERENCE='ANALYTIQUE',
                         VALE_REFE= XRNO4a(0.50),
                         VALE_PARA=0.5,
                         FONCTION=NO4DXR_E,),
                      _F(VALE_CALC=-60.58351,
                         PRECISION=1.E-3,
                         REFERENCE='ANALYTIQUE',
                         VALE_REFE= XRNO4a(0.70),
                         VALE_PARA=0.69999999999999996,
                         FONCTION=NO4DXR_E,),
                      _F(VALE_CALC=-124.8036,
                         PRECISION=1.E-3,
                         REFERENCE='ANALYTIQUE',
                         VALE_REFE= XRNO4a(1.),
                         VALE_PARA=1.0,
                         FONCTION=NO4DXR_E,),
                      _F(VALE_CALC=-0.40963163,
                         PRECISION=1.E-3,
                         REFERENCE='ANALYTIQUE',
                         VALE_REFE= XRNO4a(0.10),
                         VALE_PARA=0.10000000000000001,
                         FONCTION=NO4DXR_D,),
                      _F(VALE_CALC=-11.03718,
                         PRECISION=1.E-3,
                         REFERENCE='ANALYTIQUE',
                         VALE_REFE= XRNO4a(0.30),
                         VALE_PARA=0.29999999999999999,
                         FONCTION=NO4DXR_D,),
                      _F(VALE_CALC=-31.24153,
                         PRECISION=1.E-3,
                         REFERENCE='ANALYTIQUE',
                         VALE_REFE= XRNO4a(0.50),
                         VALE_PARA=0.5,
                         FONCTION=NO4DXR_D,),
                      _F(VALE_CALC=-60.58332,
                         PRECISION=1.E-3,
                         REFERENCE='ANALYTIQUE',
                         VALE_REFE= XRNO4a(0.70),
                         VALE_PARA=0.69999999999999996,
                         FONCTION=NO4DXR_D,),
                      _F(VALE_CALC=-124.8033,
                         PRECISION=1.E-3,
                         REFERENCE='ANALYTIQUE',
                         VALE_REFE= XRNO4a(1.),
                         VALE_PARA=1.0,
                         FONCTION=NO4DXR_D,),
                      _F(VALE_CALC=-0.40964925,
                         PRECISION=1.E-3,
                         REFERENCE='ANALYTIQUE',
                         VALE_REFE= XRNO4a(0.10),
                         VALE_PARA=0.10000000000000001,
                         FONCTION=NO4DXR_A,),
                      _F(VALE_CALC=-11.03714,
                         PRECISION=1.E-3,
                         REFERENCE='ANALYTIQUE',
                         VALE_REFE= XRNO4a(0.30),
                         VALE_PARA=0.29999999999999999,
                         FONCTION=NO4DXR_A,),
                      _F(VALE_CALC=-31.24159,
                         PRECISION=1.E-3,
                         REFERENCE='ANALYTIQUE',
                         VALE_REFE= XRNO4a(0.50),
                         VALE_PARA=0.5,
                         FONCTION=NO4DXR_A,),
                      _F(VALE_CALC=-60.58356,
                         PRECISION=1.E-3,
                         REFERENCE='ANALYTIQUE',
                         VALE_REFE= XRNO4a(0.70),
                         VALE_PARA=0.69999999999999996,
                         FONCTION=NO4DXR_A,),
                      _F(VALE_CALC=-124.8036,
                         PRECISION=1.E-3,
                         REFERENCE='ANALYTIQUE',
                         VALE_REFE= XRNO4a(1.),
                         VALE_PARA=1.0,
                         FONCTION=NO4DXR_A,),
                      _F(VALE_CALC=-11.03718,
                         PRECISION=1.E-3,
                         REFERENCE='ANALYTIQUE',
                         VALE_REFE= XRNO4a(0.30),
                         VALE_PARA=0.29999999999999999,
                         FONCTION=NO4DXR_5,),
                      _F(VALE_CALC=-31.24153,
                         PRECISION=1.E-3,
                         REFERENCE='ANALYTIQUE',
                         VALE_REFE= XRNO4a(0.50),
                         VALE_PARA=0.5,
                         FONCTION=NO4DXR_5,),
                      _F(VALE_CALC=-60.58333,
                         PRECISION=1.E-3,
                         REFERENCE='ANALYTIQUE',
                         VALE_REFE= XRNO4a(0.70),
                         VALE_PARA=0.69999999999999996,
                         FONCTION=NO4DXR_5,),
                      _F(VALE_CALC=-124.8033,
                         PRECISION=1.E-3,
                         REFERENCE='ANALYTIQUE',
                         VALE_REFE= XRNO4a(1.),
                         VALE_PARA=1.0,
                         FONCTION=NO4DXR_5,),
                      _F(VALE_CALC=-11.03719,
                         PRECISION=1.E-3,
                         REFERENCE='ANALYTIQUE',
                         VALE_REFE= XRNO4a(0.30),
                         VALE_PARA=0.29999999999999999,
                         FONCTION=NO4DXR_3,),
                      _F(VALE_CALC=-31.24152,
                         PRECISION=1.E-3,
                         REFERENCE='ANALYTIQUE',
                         VALE_REFE= XRNO4a(0.50),
                         VALE_PARA=0.5,
                         FONCTION=NO4DXR_3,),
                      _F(VALE_CALC=-60.58335,
                         PRECISION=1.E-3,
                         REFERENCE='ANALYTIQUE',
                         VALE_REFE= XRNO4a(0.70),
                         VALE_PARA=0.69999999999999996,
                         FONCTION=NO4DXR_3,),
                      _F(VALE_CALC=-124.8033,
                         PRECISION=1.E-3,
                         REFERENCE='ANALYTIQUE',
                         VALE_REFE= XRNO4a(1.),
                         VALE_PARA=1.0,
                         FONCTION=NO4DXR_3,),
                      ),
              )

val01=XRNO2a(0.10)+XRNOE2a(0.10)
val02=XRNO2a(0.30)+XRNOE2a(0.30)
val03=XRNO2a(0.50)+XRNOE2a(0.50)
val04=XRNO2a(0.70)+XRNOE2a(0.70)
val05=XRNO2a(1.)+XRNOE2a(1.)
val06=XRNO2a(0.10)+XRNOE2a(0.10)
val07=XRNO2a(0.30)+XRNOE2a(0.30)
val08=XRNO2a(0.50)+XRNOE2a(0.50)
val09=XRNO2a(0.70)+XRNOE2a(0.70)
val10=XRNO2a(1.)+XRNOE2a(1.)
val11=XRNO2a(0.10)+XRNOE2a(0.10)
val12=XRNO2a(0.30)+XRNOE2a(0.30)
val13=XRNO2a(0.50)+XRNOE2a(0.50)
val14=XRNO2a(0.70)+XRNOE2a(0.70)
val15=XRNO2a(1.)+XRNOE2a(1.)
TEST_FONCTION(VALEUR=(_F(VALE_CALC=0.40227533,
                         PRECISION=1.E-3,
                         REFERENCE='ANALYTIQUE',
                         VALE_REFE= val01,
                         VALE_PARA=0.10000000000000001,
                         FONCTION=NO2DXA_E,),
                      _F(VALE_CALC=85.72991,
                         PRECISION=1.E-3,
                         REFERENCE='ANALYTIQUE',
                         VALE_REFE= val02,
                         VALE_PARA=0.29999999999999999,
                         FONCTION=NO2DXA_E,),
                      _F(VALE_CALC=737.6050,
                         PRECISION=1.E-3,
                         REFERENCE='ANALYTIQUE',
                         VALE_REFE= val03,
                         VALE_PARA=0.5,
                         FONCTION=NO2DXA_E,),
                      _F(VALE_CALC=2916.167,
                         PRECISION=1.E-3,
                         REFERENCE='ANALYTIQUE',
                         VALE_REFE= val04,
                         VALE_PARA=0.69999999999999996,
                         FONCTION=NO2DXA_E,),
                      _F(VALE_CALC=12325.21,
                         PRECISION=1.E-3,
                         REFERENCE='ANALYTIQUE',
                         VALE_REFE= val05,
                         VALE_PARA=1.0,
                         FONCTION=NO2DXA_E,),
                      _F(VALE_CALC=0.40226587,
                         PRECISION=1.E-3,
                         REFERENCE='ANALYTIQUE',
                         VALE_REFE= val06,
                         VALE_PARA=0.10000000000000001,
                         FONCTION=NO2DXA_D,),
                      _F(VALE_CALC=85.72983,
                         PRECISION=1.E-3,
                         REFERENCE='ANALYTIQUE',
                         VALE_REFE= val07,
                         VALE_PARA=0.29999999999999999,
                         FONCTION=NO2DXA_D,),
                      _F(VALE_CALC=737.6051,
                         PRECISION=1.E-3,
                         REFERENCE='ANALYTIQUE',
                         VALE_REFE= val08,
                         VALE_PARA=0.5,
                         FONCTION=NO2DXA_D,),
                      _F(VALE_CALC=2916.167,
                         PRECISION=1.E-3,
                         REFERENCE='ANALYTIQUE',
                         VALE_REFE= val09,
                         VALE_PARA=0.69999999999999996,
                         FONCTION=NO2DXA_D,),
                      _F(VALE_CALC=12325.21,
                         PRECISION=1.E-3,
                         REFERENCE='ANALYTIQUE',
                         VALE_REFE= val10,
                         VALE_PARA=1.0,
                         FONCTION=NO2DXA_D,),
                      _F(VALE_CALC=0.40221450,
                         PRECISION=1.E-3,
                         REFERENCE='ANALYTIQUE',
                         VALE_REFE= val11,
                         VALE_PARA=0.10000000000000001,
                         FONCTION=NO2DXA_A,),
                      _F(VALE_CALC=85.72990,
                         PRECISION=1.E-3,
                         REFERENCE='ANALYTIQUE',
                         VALE_REFE= val12,
                         VALE_PARA=0.29999999999999999,
                         FONCTION=NO2DXA_A,),
                      _F(VALE_CALC=737.6050,
                         PRECISION=1.E-3,
                         REFERENCE='ANALYTIQUE',
                         VALE_REFE= val13,
                         VALE_PARA=0.5,
                         FONCTION=NO2DXA_A,),
                      _F(VALE_CALC=2916.167,
                         PRECISION=1.E-3,
                         REFERENCE='ANALYTIQUE',
                         VALE_REFE= val14,
                         VALE_PARA=0.69999999999999996,
                         FONCTION=NO2DXA_A,),
                      _F(VALE_CALC=12325.21,
                         PRECISION=1.E-3,
                         REFERENCE='ANALYTIQUE',
                         VALE_REFE= val15,
                         VALE_PARA=1.0,
                         FONCTION=NO2DXA_A,),
                      _F(VALE_CALC=0.40225379,
                         PRECISION=1.E-2,
                         REFERENCE='ANALYTIQUE',
                         VALE_REFE= val01,
                         VALE_PARA=0.10000000000000001,
                         FONCTION=N2DXA_54,),
                      _F(VALE_CALC=85.72982,
                         PRECISION=1.E-3,
                         REFERENCE='ANALYTIQUE',
                         VALE_REFE= val02,
                         VALE_PARA=0.29999999999999999,
                         FONCTION=N2DXA_54,),
                      _F(VALE_CALC=737.6051,
                         PRECISION=1.E-3,
                         REFERENCE='ANALYTIQUE',
                         VALE_REFE= val03,
                         VALE_PARA=0.5,
                         FONCTION=N2DXA_54,),
                      _F(VALE_CALC=2916.167,
                         PRECISION=1.E-3,
                         REFERENCE='ANALYTIQUE',
                         VALE_REFE= val04,
                         VALE_PARA=0.69999999999999996,
                         FONCTION=N2DXA_54,),
                      _F(VALE_CALC=12325.21,
                         PRECISION=1.E-3,
                         REFERENCE='ANALYTIQUE',
                         VALE_REFE= val05,
                         VALE_PARA=1.0,
                         FONCTION=N2DXA_54,),
                      _F(VALE_CALC=0.40225379,
                         PRECISION=1.E-2,
                         REFERENCE='ANALYTIQUE',
                         VALE_REFE= val01,
                         VALE_PARA=0.10000000000000001,
                         FONCTION=N2DXA_32,),
                      _F(VALE_CALC=85.72982,
                         PRECISION=1.E-3,
                         REFERENCE='ANALYTIQUE',
                         VALE_REFE= val02,
                         VALE_PARA=0.29999999999999999,
                         FONCTION=N2DXA_32,),
                      _F(VALE_CALC=737.6051,
                         PRECISION=1.E-3,
                         REFERENCE='ANALYTIQUE',
                         VALE_REFE= val03,
                         VALE_PARA=0.5,
                         FONCTION=N2DXA_32,),
                      _F(VALE_CALC=2916.167,
                         PRECISION=1.E-3,
                         REFERENCE='ANALYTIQUE',
                         VALE_REFE= val04,
                         VALE_PARA=0.69999999999999996,
                         FONCTION=N2DXA_32,),
                      _F(VALE_CALC=12325.21,
                         PRECISION=1.E-3,
                         REFERENCE='ANALYTIQUE',
                         VALE_REFE= val05,
                         VALE_PARA=1.0,
                         FONCTION=N2DXA_32,),
                      ),
              )

val16=XRNO3a(0.01)+XRNOE3a(0.01)
val17=XRNO3a(0.02)+XRNOE3a(0.02)
val18=XRNO3a(0.03)+XRNOE3a(0.03)
val19=XRNO3a(0.04)+XRNOE3a(0.04)
val20=XRNO3a(0.05)+XRNOE3a(0.05)
val21=XRNO3a(0.06)+XRNOE3a(0.06)
val22=XRNO3a(0.07)+XRNOE3a(0.07)
val23=XRNO3a(0.08)+XRNOE3a(0.08)
val24=XRNO3a(0.09)+XRNOE3a(0.09)
val25=XRNO3a(0.10)+XRNOE3a(0.10)
val26=XRNO3a(0.30)+XRNOE3a(0.30)
val27=XRNO3a(0.50)+XRNOE3a(0.50)
val28=XRNO3a(0.70)+XRNOE3a(0.70)
val29=XRNO3a(1.)+XRNOE3a(1.)
val30=XRNO3a(0.10)+XRNOE3a(0.10)
val31=XRNO3a(0.30)+XRNOE3a(0.30)
val32=XRNO3a(0.50)+XRNOE3a(0.50)
val33=XRNO3a(0.70)+XRNOE3a(0.70)
val34=XRNO3a(1.)+XRNOE3a(1.)
val35=XRNO3a(0.10)+XRNOE3a(0.10)
val36=XRNO3a(0.30)+XRNOE3a(0.30)
val37=XRNO3a(0.50)+XRNOE3a(0.50)
val38=XRNO3a(0.70)+XRNOE3a(0.70)
val39=XRNO3a(1.)+XRNOE3a(1.)
TEST_FONCTION(VALEUR=(_F(VALE_CALC=7.33E-05,
                         PRECISION=1.E-3,
                         REFERENCE='ANALYTIQUE',
                         VALE_REFE= val16,
                         CRITERE='ABSOLU',
                         VALE_PARA=1.E-2,
                         FONCTION=NO3DXA_E,),
                      _F(VALE_CALC=1.465E-04,
                         PRECISION=1.E-3,
                         REFERENCE='ANALYTIQUE',
                         VALE_REFE= val17,
                         CRITERE='ABSOLU',
                         VALE_PARA=0.02,
                         FONCTION=NO3DXA_E,),
                      _F(VALE_CALC=2.198E-04,
                         PRECISION=1.E-3,
                         REFERENCE='ANALYTIQUE',
                         VALE_REFE= val18,
                         CRITERE='ABSOLU',
                         VALE_PARA=0.029999999999999999,
                         FONCTION=NO3DXA_E,),
                      _F(VALE_CALC=2.931E-04,
                         PRECISION=1.E-3,
                         REFERENCE='ANALYTIQUE',
                         VALE_REFE= val19,
                         CRITERE='ABSOLU',
                         VALE_PARA=0.040000000000000001,
                         FONCTION=NO3DXA_E,),
                      _F(VALE_CALC=3.663E-04,
                         PRECISION=1.E-3,
                         REFERENCE='ANALYTIQUE',
                         VALE_REFE= val20,
                         CRITERE='ABSOLU',
                         VALE_PARA=0.050000000000000003,
                         FONCTION=NO3DXA_E,),
                      _F(VALE_CALC=0.0132757,
                         VALE_REFE= val21,
                         REFERENCE='ANALYTIQUE',
                         CRITERE='ABSOLU',
                         VALE_PARA=0.059999999999999998,
                         PRECISION=0.02,
                         FONCTION=NO3DXA_E,),
                      _F(VALE_CALC=0.0261852,
                         VALE_REFE= val22,
                         REFERENCE='ANALYTIQUE',
                         CRITERE='ABSOLU',
                         VALE_PARA=0.070000000000000007,
                         PRECISION=0.029999999999999999,
                         FONCTION=NO3DXA_E,),
                      _F(VALE_CALC=0.0390946,
                         VALE_REFE= val23,
                         REFERENCE='ANALYTIQUE',
                         CRITERE='ABSOLU',
                         VALE_PARA=0.080000000000000002,
                         PRECISION=0.029999999999999999,
                         FONCTION=NO3DXA_E,),
                      _F(VALE_CALC=0.0520040,
                         VALE_REFE= val24,
                         REFERENCE='ANALYTIQUE',
                         CRITERE='ABSOLU',
                         VALE_PARA=0.089999999999999997,
                         PRECISION=0.029999999999999999,
                         FONCTION=NO3DXA_E,),
                      _F(VALE_CALC=0.06491342,
                         PRECISION=1.E-3,
                         REFERENCE='ANALYTIQUE',
                         VALE_REFE= val25,
                         VALE_PARA=0.10000000000000001,
                         FONCTION=NO3DXA_E,),
                      _F(VALE_CALC=49.80777,
                         PRECISION=1.E-3,
                         REFERENCE='ANALYTIQUE',
                         VALE_REFE= val26,
                         VALE_PARA=0.29999999999999999,
                         FONCTION=NO3DXA_E,),
                      _F(VALE_CALC=470.9023,
                         PRECISION=1.E-3,
                         REFERENCE='ANALYTIQUE',
                         VALE_REFE= val27,
                         VALE_PARA=0.5,
                         FONCTION=NO3DXA_E,),
                      _F(VALE_CALC=1903.762,
                         PRECISION=1.E-3,
                         REFERENCE='ANALYTIQUE',
                         VALE_REFE= val28,
                         VALE_PARA=0.69999999999999996,
                         FONCTION=NO3DXA_E,),
                      _F(VALE_CALC=8133.611,
                         PRECISION=1.E-3,
                         REFERENCE='ANALYTIQUE',
                         VALE_REFE= val29,
                         VALE_PARA=1.0,
                         FONCTION=NO3DXA_E,),
                      _F(VALE_CALC=0.06488471,
                         PRECISION=1.E-3,
                         REFERENCE='ANALYTIQUE',
                         VALE_REFE= val30,
                         VALE_PARA=0.10000000000000001,
                         FONCTION=NO3DXA_D,),
                      _F(VALE_CALC=49.80766,
                         PRECISION=1.E-3,
                         REFERENCE='ANALYTIQUE',
                         VALE_REFE= val31,
                         VALE_PARA=0.29999999999999999,
                         FONCTION=NO3DXA_D,),
                      _F(VALE_CALC=470.9023,
                         PRECISION=1.E-3,
                         REFERENCE='ANALYTIQUE',
                         VALE_REFE= val32,
                         VALE_PARA=0.5,
                         FONCTION=NO3DXA_D,),
                      _F(VALE_CALC=1903.762,
                         PRECISION=1.E-3,
                         REFERENCE='ANALYTIQUE',
                         VALE_REFE= val33,
                         VALE_PARA=0.69999999999999996,
                         FONCTION=NO3DXA_D,),
                      _F(VALE_CALC=8133.611,
                         PRECISION=1.E-3,
                         REFERENCE='ANALYTIQUE',
                         VALE_REFE= val34,
                         VALE_PARA=1.0,
                         FONCTION=NO3DXA_D,),
                      _F(VALE_CALC=0.06484066,
                         PRECISION=1.E-3,
                         REFERENCE='ANALYTIQUE',
                         VALE_REFE= val35,
                         VALE_PARA=0.10000000000000001,
                         FONCTION=NO3DXA_A,),
                      _F(VALE_CALC=49.80775,
                         PRECISION=1.E-3,
                         REFERENCE='ANALYTIQUE',
                         VALE_REFE= val36,
                         VALE_PARA=0.29999999999999999,
                         FONCTION=NO3DXA_A,),
                      _F(VALE_CALC=470.9022,
                         PRECISION=1.E-3,
                         REFERENCE='ANALYTIQUE',
                         VALE_REFE= val37,
                         VALE_PARA=0.5,
                         FONCTION=NO3DXA_A,),
                      _F(VALE_CALC=1903.762,
                         PRECISION=1.E-3,
                         REFERENCE='ANALYTIQUE',
                         VALE_REFE= val38,
                         VALE_PARA=0.69999999999999996,
                         FONCTION=NO3DXA_A,),
                      _F(VALE_CALC=8133.611,
                         PRECISION=1.E-3,
                         REFERENCE='ANALYTIQUE',
                         VALE_REFE= val39,
                         VALE_PARA=1.0,
                         FONCTION=NO3DXA_A,),
                      _F(VALE_CALC=0.06486957,
                         PRECISION=1.E-1,
                         REFERENCE='ANALYTIQUE',
                         VALE_REFE= val35,
                         VALE_PARA=0.10000000000000001,
                         FONCTION=N3DXA_54,),
                      _F(VALE_CALC=49.80765,
                         PRECISION=1.E-3,
                         REFERENCE='ANALYTIQUE',
                         VALE_REFE= val36,
                         VALE_PARA=0.29999999999999999,
                         FONCTION=N3DXA_54,),
                      _F(VALE_CALC=470.9023,
                         PRECISION=1.E-3,
                         REFERENCE='ANALYTIQUE',
                         VALE_REFE= val37,
                         VALE_PARA=0.5,
                         FONCTION=N3DXA_54,),
                      _F(VALE_CALC=1903.762,
                         PRECISION=1.E-3,
                         REFERENCE='ANALYTIQUE',
                         VALE_REFE= val38,
                         VALE_PARA=0.69999999999999996,
                         FONCTION=N3DXA_54,),
                      _F(VALE_CALC=8133.611,
                         PRECISION=1.E-3,
                         REFERENCE='ANALYTIQUE',
                         VALE_REFE= val39,
                         VALE_PARA=1.0,
                         FONCTION=N3DXA_54,),
                      _F(VALE_CALC=0.06486957,
                         PRECISION=1.E-1,
                         REFERENCE='ANALYTIQUE',
                         VALE_REFE= val35,
                         VALE_PARA=0.10000000000000001,
                         FONCTION=N3DXA_32,),
                      _F(VALE_CALC=49.80765,
                         PRECISION=1.E-3,
                         REFERENCE='ANALYTIQUE',
                         VALE_REFE= val36,
                         VALE_PARA=0.29999999999999999,
                         FONCTION=N3DXA_32,),
                      _F(VALE_CALC=470.9023,
                         PRECISION=1.E-3,
                         REFERENCE='ANALYTIQUE',
                         VALE_REFE= val37,
                         VALE_PARA=0.5,
                         FONCTION=N3DXA_32,),
                      _F(VALE_CALC=1903.762,
                         PRECISION=1.E-3,
                         REFERENCE='ANALYTIQUE',
                         VALE_REFE= val38,
                         VALE_PARA=0.69999999999999996,
                         FONCTION=N3DXA_32,),
                      _F(VALE_CALC=8133.611,
                         PRECISION=1.E-3,
                         REFERENCE='ANALYTIQUE',
                         VALE_REFE= val39,
                         VALE_PARA=1.0,
                         FONCTION=N3DXA_32,),
                      ),
              )

val40=XRNO4a(0.10)+XRNOE4a(0.10)
val41=XRNO4a(0.30)+XRNOE4a(0.30)
val42=XRNO4a(0.50)+XRNOE4a(0.50)
val43=XRNO4a(0.70)+XRNOE4a(0.70)
val44=XRNO4a(1.)+XRNOE4a(1.)
val45=XRNO4a(0.10)+XRNOE4a(0.10)
val46=XRNO4a(0.30)+XRNOE4a(0.30)
val47=XRNO4a(0.50)+XRNOE4a(0.50)
val48=XRNO4a(0.70)+XRNOE4a(0.70)
val49=XRNO4a(1.)+XRNOE4a(1.)
val50=XRNO4a(0.10)+XRNOE4a(0.10)
val51=XRNO4a(0.30)+XRNOE4a(0.30)
val52=XRNO4a(0.50)+XRNOE4a(0.50)
val53=XRNO4a(0.70)+XRNOE4a(0.70)
val54=XRNO4a(1.)+XRNOE4a(1.)

TEST_FONCTION(VALEUR=(_F(VALE_CALC=7.0626E-03,
                         PRECISION=1.E-3,
                         REFERENCE='ANALYTIQUE',
                         VALE_REFE= val40,
                         CRITERE='ABSOLU',
                         VALE_PARA=0.10000000000000001,
                         FONCTION=NO4DXA_E,),
                      _F(VALE_CALC=22.71287,
                         PRECISION=1.E-3,
                         REFERENCE='ANALYTIQUE',
                         VALE_REFE= val41,
                         VALE_PARA=0.29999999999999999,
                         FONCTION=NO4DXA_E,),
                      _F(VALE_CALC=229.1751,
                         PRECISION=1.E-3,
                         REFERENCE='ANALYTIQUE',
                         VALE_REFE= val42,
                         VALE_PARA=0.5,
                         FONCTION=NO4DXA_E,),
                      _F(VALE_CALC=939.8332,
                         PRECISION=1.E-3,
                         REFERENCE='ANALYTIQUE',
                         VALE_REFE= val43,
                         VALE_PARA=0.69999999999999996,
                         FONCTION=NO4DXA_E,),
                      _F(VALE_CALC=4041.863,
                         PRECISION=1.E-3,
                         REFERENCE='ANALYTIQUE',
                         VALE_REFE= val44,
                         VALE_PARA=1.0,
                         FONCTION=NO4DXA_E,),
                      _F(VALE_CALC=7.035037E-03,
                         PRECISION=1.E-3,
                         REFERENCE='ANALYTIQUE',
                         VALE_REFE= val45,
                         VALE_PARA=0.10000000000000001,
                         FONCTION=NO4DXA_D,),
                      _F(VALE_CALC=22.71282,
                         PRECISION=1.E-3,
                         REFERENCE='ANALYTIQUE',
                         VALE_REFE= val46,
                         VALE_PARA=0.29999999999999999,
                         FONCTION=NO4DXA_D,),
                      _F(VALE_CALC=229.1751,
                         PRECISION=1.E-3,
                         REFERENCE='ANALYTIQUE',
                         VALE_REFE= val47,
                         VALE_PARA=0.5,
                         FONCTION=NO4DXA_D,),
                      _F(VALE_CALC=939.8333,
                         PRECISION=1.E-3,
                         REFERENCE='ANALYTIQUE',
                         VALE_REFE= val48,
                         VALE_PARA=0.69999999999999996,
                         FONCTION=NO4DXA_D,),
                      _F(VALE_CALC=4041.863,
                         PRECISION=1.E-3,
                         REFERENCE='ANALYTIQUE',
                         VALE_REFE= val49,
                         VALE_PARA=1.0,
                         FONCTION=NO4DXA_D,),
                      _F(VALE_CALC=7.0174E-03,
                         PRECISION=1.E-3,
                         REFERENCE='ANALYTIQUE',
                         VALE_REFE= val50,
                         CRITERE='ABSOLU',
                         VALE_PARA=0.10000000000000001,
                         FONCTION=NO4DXA_A,),
                      _F(VALE_CALC=22.71286,
                         PRECISION=1.E-3,
                         REFERENCE='ANALYTIQUE',
                         VALE_REFE= val51,
                         VALE_PARA=0.29999999999999999,
                         FONCTION=NO4DXA_A,),
                      _F(VALE_CALC=229.1751,
                         PRECISION=1.E-3,
                         REFERENCE='ANALYTIQUE',
                         VALE_REFE= val52,
                         VALE_PARA=0.5,
                         FONCTION=NO4DXA_A,),
                      _F(VALE_CALC=939.8331,
                         PRECISION=1.E-3,
                         REFERENCE='ANALYTIQUE',
                         VALE_REFE= val53,
                         VALE_PARA=0.69999999999999996,
                         FONCTION=NO4DXA_A,),
                      _F(VALE_CALC=4041.863,
                         PRECISION=1.E-3,
                         REFERENCE='ANALYTIQUE',
                         VALE_REFE= val54,
                         VALE_PARA=1.0,
                         FONCTION=NO4DXA_A,),
                       _F(VALE_CALC=7.0256E-03,
                         PRECISION=5.E-3,
                         REFERENCE='ANALYTIQUE',
                         VALE_REFE= val50,
                         CRITERE='ABSOLU',
                         VALE_PARA=0.10000000000000001,
                         FONCTION=N4DXA_54,),
                      _F(VALE_CALC=22.71282,
                         PRECISION=1.E-3,
                         REFERENCE='ANALYTIQUE',
                         VALE_REFE= val51,
                         VALE_PARA=0.29999999999999999,
                         FONCTION=N4DXA_54,),
                      _F(VALE_CALC=229.1751,
                         PRECISION=1.E-3,
                         REFERENCE='ANALYTIQUE',
                         VALE_REFE= val52,
                         VALE_PARA=0.5,
                         FONCTION=N4DXA_54,),
                      _F(VALE_CALC=939.8333,
                         PRECISION=1.E-3,
                         REFERENCE='ANALYTIQUE',
                         VALE_REFE= val53,
                         VALE_PARA=0.69999999999999996,
                         FONCTION=N4DXA_54,),
                      _F(VALE_CALC=4041.863,
                         PRECISION=1.E-3,
                         REFERENCE='ANALYTIQUE',
                         VALE_REFE= val54,
                         VALE_PARA=1.0,
                         FONCTION=N4DXA_54,),
                       _F(VALE_CALC=7.0256E-03,
                         PRECISION=5.E-3,
                         REFERENCE='ANALYTIQUE',
                         VALE_REFE= val50,
                         CRITERE='ABSOLU',
                         VALE_PARA=0.10000000000000001,
                         FONCTION=N4DXA_32,),
                      _F(VALE_CALC=22.71282,
                         PRECISION=1.E-3,
                         REFERENCE='ANALYTIQUE',
                         VALE_REFE= val51,
                         VALE_PARA=0.29999999999999999,
                         FONCTION=N4DXA_32,),
                      _F(VALE_CALC=229.1751,
                         PRECISION=1.E-3,
                         REFERENCE='ANALYTIQUE',
                         VALE_REFE= val52,
                         VALE_PARA=0.5,
                         FONCTION=N4DXA_32,),
                      _F(VALE_CALC=939.8333,
                         PRECISION=1.E-3,
                         REFERENCE='ANALYTIQUE',
                         VALE_REFE= val53,
                         VALE_PARA=0.69999999999999996,
                         FONCTION=N4DXA_32,),
                      _F(VALE_CALC=4041.863,
                         PRECISION=1.E-3,
                         REFERENCE='ANALYTIQUE',
                         VALE_REFE= val54,
                         VALE_PARA=1.0,
                         FONCTION=N4DXA_32,),
                      ),
              )

FIN()
#
