# MODIF  DATE 26/09/2012   AUTEUR LEBOUVIER F.LEBOUVIER 
# TITRE SYSTEME MASSE-RESSORT A 8 DDL AVEC AMORTISSEMENT VISQUEUX
# sdld21b.para = tps_job 240 mem_job 512Mo ncpus 1 liste_test S
#            CONFIGURATION MANAGEMENT OF EDF VERSION
# ======================================================================
# COPYRIGHT (C) 1991 - 2012  EDF R&D                  WWW.CODE-ASTER.ORG
# THIS PROGRAM IS FREE SOFTWARE; YOU CAN REDISTRIBUTE IT AND/OR MODIFY
# IT UNDER THE TERMS OF THE GNU GENERAL PUBLIC LICENSE AS PUBLISHED BY
# THE FREE SOFTWARE FOUNDATION; EITHER VERSION 2 OF THE LICENSE, OR
# (AT YOUR OPTION) ANY LATER VERSION.
#
# THIS PROGRAM IS DISTRIBUTED IN THE HOPE THAT IT WILL BE USEFUL, BUT
# WITHOUT ANY WARRANTY; WITHOUT EVEN THE IMPLIED WARRANTY OF
# MERCHANTABILITY OR FITNESS FOR A PARTICULAR PURPOSE. SEE THE GNU
# GENERAL PUBLIC LICENSE FOR MORE DETAILS.
#
# YOU SHOULD HAVE RECEIVED A COPY OF THE GNU GENERAL PUBLIC LICENSE
# ALONG WITH THIS PROGRAM; IF NOT, WRITE TO EDF R&D CODE_ASTER,
#    1 AVENUE DU GENERAL DE GAULLE, 92141 CLAMART CEDEX, FRANCE.
# ======================================================================
# ----------------------------------------------------------------------
# SYSTEME MASSE-RESSORT A 8 DEGRES DE LIBERTE AVEC AMORTISSEMENT
# VISQUEUX PROPORTIONNEL (REPONSE HARMONIQUE)
# 9 RESSORTS  8 MASSES  -- K =1.E+5    M =10 --
#                                                 REF: SFM.VPCS SDLD21
# ----------------------------------------------------------------------

DEBUT(CODE=_F(NOM='SDLD21B',NIV_PUB_WEB='INTERNET'),DEBUG=_F(SDVERI='OUI'))

MA=LIRE_MAILLAGE( )

MO=AFFE_MODELE(  MAILLAGE=MA,AFFE=(
            _F( TOUT = 'OUI',PHENOMENE = 'MECANIQUE',MODELISATION = 'DIS_T'),
    _F( GROUP_NO = 'MASSE', PHENOMENE = 'MECANIQUE', MODELISATION = 'DIS_T'))  )

MATER=DEFI_MATERIAU( ELAS=_F(  E = 2.E+11,  NU = 0.3) )

CHMATER=AFFE_MATERIAU(  MAILLAGE=MA,
                           AFFE=_F(  TOUT = 'OUI', MATER = MATER)  )

CARELEM=AFFE_CARA_ELEM(   MODELE=MO,DISCRET=(
       _F( GROUP_MA = 'RESSORT',CARA = 'K_T_D_L',VALE = (1.E+5,1., 1.,)),
               _F( GROUP_NO = 'MASSE',  CARA = 'M_T_D_N',VALE = 10.),
               _F( GROUP_NO = 'MASSE',  CARA = 'A_T_D_N',VALE = (0.,0.,0.)),
               _F( GROUP_MA = 'AMORTIS',CARA = 'A_T_D_L',VALE = (50.,1.,1.,))))

CH=AFFE_CHAR_MECA( MODELE=MO,DDL_IMPO=(
                   _F( GROUP_NO = 'A_ET_B', DX = 0.,DY = 0.,DZ = 0.),
                            _F( GROUP_NO = 'MASSE',         DY = 0.,DZ = 0.)),
                   FORCE_NODALE=_F(  NOEUD = 'P4',   FX = 1.)   )

# --------------------------------------------------------------------

MACRO_MATR_ASSE(  MODELE=MO,     CHARGE=CH,      CARA_ELEM=CARELEM,
                     NUME_DDL=CO("NUM"),MATR_ASSE=(
                     _F(  MATRICE = CO("MATASSR"),  OPTION = 'RIGI_MECA'),
                               _F(  MATRICE = CO("MATASSM"),  OPTION = 'MASS_MECA'),
                               _F(  MATRICE = CO("MATASSC"),  OPTION = 'AMOR_MECA'))
                  )

# --------------------------------------------------------------------

VECT=CALC_VECT_ELEM(  CHARGE=CH,         OPTION='CHAR_MECA' )

VECTASS=ASSE_VECTEUR(  VECT_ELEM=VECT,   NUME_DDL=NUM  )

# --------------------------------------------------------------------

MODES=MODE_ITER_INV(   MATR_RIGI=MATASSR,  MATR_MASS=MATASSM,
                          CALC_FREQ=_F( OPTION = 'AJUSTE',
                         FREQ = (5.,10.,15.,20.,24.,27.,30.,32.,))  )


PROJ_BASE( BASE=MODES,
           STOCKAGE = 'PLEIN',
           NB_VECT=8,
           MATR_ASSE_GENE=(
             _F(
                             MATRICE = CO("MASSEGEN"),
                             MATR_ASSE = MATASSM),
             _F(
                             MATRICE = CO("RIGIDGEN"),
                             MATR_ASSE = MATASSR),
             _F(
                             MATRICE = CO("AMORTGEN"),
                             MATR_ASSE = MATASSC,),),
             VECT_ASSE_GENE=_F(
                             VECTEUR = CO("EFFOGENE"),
                             VECT_ASSE = VECTASS), )

LIFREQ=DEFI_LIST_REEL(DEBUT=5., INTERVALLE=_F( JUSQU_A = 40., NOMBRE = 70))

DYNHARGA=DYNA_VIBRA(TYPE_CALCUL='HARM',BASE_CALCUL='GENE',
                       MATR_MASS=MASSEGEN, MATR_RIGI=RIGIDGEN,
                       AMOR_MODAL=_F(AMOR_REDUIT=(8.6824E-3, 0.017101,
                             0.0250, 3.21393E-2,3.83022E-2, 4.33012E-2,
                              4.69846E-2, 4.92403E-2,),),
#                            AMOR_REDUIT=(27.982 108.55 300.00 383.42
#                                         544.56 900.00 819.43 900.00)
                       LIST_FREQ=LIFREQ,
                       TOUT_CHAM='OUI',
                       EXCIT=_F(  COEF_MULT = 1.,VECT_ASSE_GENE = EFFOGENE)
                            )

DEPLGE05=RECU_GENE(   RESU_GENE= DYNHARGA,
                      FREQ     = 5.0,
                      NOM_CHAM = 'DEPL',
                   )
DEPLGE10=RECU_GENE(   RESU_GENE= DYNHARGA,
                      FREQ     = 10.0,
                      NOM_CHAM = 'DEPL',
                   ) 
DEPLGE20=RECU_GENE(   RESU_GENE= DYNHARGA,
                      FREQ     = 20.0,
                      NOM_CHAM = 'DEPL',
                   ) 
DEPLGE30=RECU_GENE(   RESU_GENE= DYNHARGA,
                      FREQ     = 30.0,
                      NOM_CHAM = 'DEPL',
                   ) 
DEPLGE40=RECU_GENE(   RESU_GENE= DYNHARGA,
                      FREQ     = 40.0,
                      NOM_CHAM = 'DEPL',
                   )

TEST_RESU(GENE=(_F(RESU_GENE     = DEPLGE05,
                   NUME_CMP_GENE = 1,
                   VALE_C        = 9.75984E-05-8.43621E-06j,
                   PRECISION     = 1E-5,
                   ),
                _F(RESU_GENE     = DEPLGE10,
                   NUME_CMP_GENE = 2,
                   VALE_C        = 9.83806E-06-1.97763E-06j,
                   PRECISION     = 1E-5,
                   ),
                _F(RESU_GENE     = DEPLGE20,
                   NUME_CMP_GENE = 4,
                   VALE_C        =-6.38999E-06+9.01969E-06j,
                   PRECISION     = 1E-5,
                   ),              
                _F(RESU_GENE     = DEPLGE30,
                   NUME_CMP_GENE = 6,
                   VALE_C        =-2.38912E-06-1.22141E-06j,
                   PRECISION     = 1E-5,
                   ),
                _F(RESU_GENE     = DEPLGE40,
                   NUME_CMP_GENE = 8,
                   VALE_C        = 8.50292E-07+1.70081E-07j,
                   PRECISION     = 1E-5,
                   ),),);

L_AMORT = DEFI_LIST_REEL(VALE=(8.6824E-3, 0.017101, 0.0250, 3.21393E-2,
                               3.83022E-2, 4.33012E-2, 4.69846E-2, 4.92403E-2,),)

DYNHARGB=DYNA_VIBRA(TYPE_CALCUL='HARM',BASE_CALCUL='GENE',
                       MATR_MASS=MASSEGEN, MATR_RIGI=RIGIDGEN,
                       AMOR_MODAL=_F(LIST_AMOR=L_AMORT,),
                       LIST_FREQ=LIFREQ,
                       TOUT_CHAM='OUI',
                       EXCIT=_F(  COEF_MULT = 1.,VECT_ASSE_GENE = EFFOGENE)
                            )

DYNTPST = REST_SPEC_TEMP( RESU_GENE = DYNHARGA ,
                          METHODE = 'PROL_ZERO' ,
                          SYMETRIE = 'NON' ,
                          TOUT_CHAM = 'OUI'  );
DYNTPSUA = REST_SPEC_TEMP( RESU_GENE = DYNHARGA ,
                          METHODE = 'PROL_ZERO' ,
                          SYMETRIE = 'NON' ,
                          NOM_CHAM = 'DEPL'  );
DYNTPSUB = REST_SPEC_TEMP( RESU_GENE = DYNHARGB ,
                          METHODE = 'PROL_ZERO' ,
                          SYMETRIE = 'NON' ,
                          NOM_CHAM = 'DEPL'  );
DYNTPSV = REST_SPEC_TEMP( RESU_GENE = DYNHARGA ,
                          METHODE = 'PROL_ZERO' ,
                          SYMETRIE = 'NON' ,
                          NOM_CHAM = 'VITE'  );
DYNTPSA = REST_SPEC_TEMP( RESU_GENE = DYNHARGA ,
                          METHODE = 'PROL_ZERO' ,
                          SYMETRIE = 'NON' ,
                          NOM_CHAM = 'ACCE'  );

DYNTU = RECU_FONCTION(RESU_GENE=DYNTPST,
                      NOEUD = 'P4',NOM_CMP = 'DX',NOM_CHAM = 'DEPL', )
DYNTV = RECU_FONCTION(RESU_GENE=DYNTPST,
                      NOEUD = 'P4',NOM_CMP = 'DX',NOM_CHAM = 'VITE', )
DYNTA = RECU_FONCTION(RESU_GENE=DYNTPST,
                      NOEUD = 'P4',NOM_CMP = 'DX',NOM_CHAM = 'ACCE', )
DYNUA = RECU_FONCTION(RESU_GENE=DYNTPSUA,
                      NOEUD = 'P4',NOM_CMP = 'DX',NOM_CHAM = 'DEPL', )
DYNUB = RECU_FONCTION(RESU_GENE=DYNTPSUB,
                      NOEUD = 'P4',NOM_CMP = 'DX',NOM_CHAM = 'DEPL', )
DYNV = RECU_FONCTION(RESU_GENE=DYNTPSV,
                      NOEUD = 'P4',NOM_CMP = 'DX',NOM_CHAM = 'VITE', )
DYNA = RECU_FONCTION(RESU_GENE=DYNTPSA,
                      NOEUD = 'P4',NOM_CMP = 'DX',NOM_CHAM = 'ACCE', )

COMPU1A = CALC_FONCTION(COMB=( _F(  FONCTION = DYNTU, COEF = 1.),
                              _F(  FONCTION = DYNUA, COEF = -1.))
                       )

COMPU1B = CALC_FONCTION(COMB=( _F(  FONCTION = DYNTU, COEF = 1.),
                              _F(  FONCTION = DYNUB, COEF = -1.))
                       )

COMPV1 = CALC_FONCTION(COMB=( _F(  FONCTION = DYNTV, COEF = 1.),
                              _F(  FONCTION = DYNV, COEF = -1.))
                       )
COMPA1 = CALC_FONCTION(COMB=( _F(  FONCTION = DYNTA, COEF = 1.),
                              _F(  FONCTION = DYNA, COEF = -1.))
                       )
MAXCU1A = INFO_FONCTION( MAX=_F(  FONCTION = COMPU1A))
MAXCU1B = INFO_FONCTION( MAX=_F(  FONCTION = COMPU1B))

MAXCV1 = INFO_FONCTION( MAX=_F(  FONCTION = COMPV1))
MAXCA1 = INFO_FONCTION( MAX=_F(  FONCTION = COMPA1))

TEST_TABLE(TABLE=MAXCU1A,TYPE_TEST='SOMM_ABS',
           NOM_PARA='DEPL',VALE=0.,REFERENCE='ANALYTIQUE',CRITERE='ABSOLU',
            );
TEST_TABLE(TABLE=MAXCU1B,TYPE_TEST='SOMM_ABS',
           NOM_PARA='DEPL',VALE=0.,REFERENCE='ANALYTIQUE',CRITERE='ABSOLU',
            );

TEST_TABLE(TABLE=MAXCV1,TYPE_TEST='SOMM_ABS',
           NOM_PARA='VITE',VALE=0.,REFERENCE='ANALYTIQUE',CRITERE='ABSOLU',
            );
TEST_TABLE(TABLE=MAXCA1,TYPE_TEST='SOMM_ABS',
           NOM_PARA='ACCE',VALE=0.,REFERENCE='ANALYTIQUE',CRITERE='ABSOLU',
            );


TRANPHYT=REST_GENE_PHYS(    RESU_GENE=DYNTPST,
                                TOUT_CHAM='OUI',
                                                      )
TRANPHYU=REST_GENE_PHYS(    RESU_GENE=DYNTPSUA,
                                TOUT_CHAM='OUI',
                                                      )
TRANPHYV=REST_GENE_PHYS(    RESU_GENE=DYNTPSV,
                                TOUT_CHAM='OUI',
                                                      )
TRANPHYA=REST_GENE_PHYS(    RESU_GENE=DYNTPSA,
                                TOUT_CHAM='OUI',
                                                      )

DYNAHARP=DYNA_VIBRA(TYPE_CALCUL='HARM',BASE_CALCUL='PHYS',
                    MATR_MASS=MATASSM, MATR_RIGI=MATASSR,
                    MATR_AMOR=MATASSC,
#                            AMOR_REDUIT:(0.0087 0.0171 0.0250 0.0321
#                                         0.0383 0.0433 0.0470 0.0492)
#                       AMOR_REDUIT=(8.6824E-3, 0.017101, 0.0250, 3.21393E-2,
#                            3.83022E-2, 4.33012E-2, 4.69846E-2, 4.92403E-2,),
#                            AMOR_REDUIT:(27.982 108.55 300.00 383.42
#                                         544.56 900.00 819.43 900.00)
                    LIST_FREQ=LIFREQ,
                    TOUT_CHAM='OUI',
                    EXCIT=_F(  COEF_MULT = 1.,VECT_ASSE = VECTASS)
                            )

DYNTPSTP = REST_SPEC_TEMP( RESULTAT = DYNAHARP ,
                          METHODE = 'PROL_ZERO' ,
                          SYMETRIE = 'NON' ,
                          TOUT_CHAM = 'OUI'  );
DYNTPSUP = REST_SPEC_TEMP( RESULTAT = DYNAHARP ,
                          METHODE = 'PROL_ZERO' ,
                          SYMETRIE = 'NON' ,
                          NOM_CHAM = 'DEPL'  );
DYNTPSVP = REST_SPEC_TEMP( RESULTAT = DYNAHARP ,
                          METHODE = 'PROL_ZERO' ,
                          SYMETRIE = 'NON' ,
                          NOM_CHAM = 'VITE'  );
DYNTPSAP = REST_SPEC_TEMP( RESULTAT = DYNAHARP ,
                          METHODE = 'PROL_ZERO' ,
                          SYMETRIE = 'NON' ,
                          NOM_CHAM = 'ACCE'  );

DYNTUP = RECU_FONCTION(RESULTAT=DYNTPSTP,
                      NOEUD = 'P4',NOM_CMP = 'DX',NOM_CHAM = 'DEPL', )
DYNTVP = RECU_FONCTION(RESULTAT=DYNTPSTP,
                      NOEUD = 'P4',NOM_CMP = 'DX',NOM_CHAM = 'VITE', )
DYNTAP = RECU_FONCTION(RESULTAT=DYNTPSTP,
                      NOEUD = 'P4',NOM_CMP = 'DX',NOM_CHAM = 'ACCE', )
DYNUP = RECU_FONCTION(RESULTAT=DYNTPSUP,
                      NOEUD = 'P4',NOM_CMP = 'DX',NOM_CHAM = 'DEPL', )
DYNVP = RECU_FONCTION(RESULTAT=DYNTPSVP,
                      NOEUD = 'P4',NOM_CMP = 'DX',NOM_CHAM = 'VITE', )
DYNAP = RECU_FONCTION(RESULTAT=DYNTPSAP,
                      NOEUD = 'P4',NOM_CMP = 'DX',NOM_CHAM = 'ACCE', )

COMPU1P = CALC_FONCTION(COMB=( _F(  FONCTION = DYNTUP, COEF = 1.),
                              _F(  FONCTION = DYNUP, COEF = -1.))
                       )
COMPV1P = CALC_FONCTION(COMB=( _F(  FONCTION = DYNTVP, COEF = 1.),
                              _F(  FONCTION = DYNVP, COEF = -1.))
                       )
COMPA1P = CALC_FONCTION(COMB=( _F(  FONCTION = DYNTAP, COEF = 1.),
                              _F(  FONCTION = DYNAP, COEF = -1.))
                       )

MAXCU1P = INFO_FONCTION( MAX=_F(  FONCTION = COMPU1P))
MAXCV1P = INFO_FONCTION( MAX=_F(  FONCTION = COMPV1P))
MAXCA1P = INFO_FONCTION( MAX=_F(  FONCTION = COMPA1P))

TEST_TABLE(TABLE=MAXCU1P,TYPE_TEST='SOMM_ABS',
           NOM_PARA='DX',VALE=0.,REFERENCE='ANALYTIQUE',CRITERE='ABSOLU',
            );
TEST_TABLE(TABLE=MAXCV1P,TYPE_TEST='SOMM_ABS',
           NOM_PARA='DX',VALE=0.,REFERENCE='ANALYTIQUE',CRITERE='ABSOLU',
            );
TEST_TABLE(TABLE=MAXCA1P,TYPE_TEST='SOMM_ABS',
           NOM_PARA='DX',VALE=0.,REFERENCE='ANALYTIQUE',CRITERE='ABSOLU',
            );

DYNAHARM=REST_GENE_PHYS(    RESU_GENE=DYNHARGA,
                                TOUT_CHAM='OUI',
                              LIST_FREQ=LIFREQ
                                                      )

DYNTPST2 = REST_SPEC_TEMP( RESULTAT = DYNAHARM ,
                          METHODE = 'PROL_ZERO' ,
                          SYMETRIE = 'NON' ,
                          TOUT_CHAM = 'OUI'  );
DYNTPSU2 = REST_SPEC_TEMP( RESULTAT = DYNAHARM ,
                          METHODE = 'PROL_ZERO' ,
                          SYMETRIE = 'NON' ,
                          NOM_CHAM = 'DEPL'  );
DYNTPSV2 = REST_SPEC_TEMP( RESULTAT = DYNAHARM ,
                          METHODE = 'PROL_ZERO' ,
                          SYMETRIE = 'NON' ,
                          NOM_CHAM = 'VITE'  );
DYNTPSA2 = REST_SPEC_TEMP( RESULTAT = DYNAHARM ,
                          METHODE = 'PROL_ZERO' ,
                          SYMETRIE = 'NON' ,
                          NOM_CHAM = 'ACCE'  );

DYNTUP2 = RECU_FONCTION(RESULTAT=DYNTPST2,
                      NOEUD = 'P4',NOM_CMP = 'DX',NOM_CHAM = 'DEPL', )
DYNTVP2 = RECU_FONCTION(RESULTAT=DYNTPST2,
                      NOEUD = 'P4',NOM_CMP = 'DX',NOM_CHAM = 'VITE', )
DYNTAP2 = RECU_FONCTION(RESULTAT=DYNTPST2,
                      NOEUD = 'P4',NOM_CMP = 'DX',NOM_CHAM = 'ACCE', )
DYNUP2 = RECU_FONCTION(RESULTAT=DYNTPSU2,
                      NOEUD = 'P4',NOM_CMP = 'DX',NOM_CHAM = 'DEPL', )
DYNVP2 = RECU_FONCTION(RESULTAT=DYNTPSV2,
                      NOEUD = 'P4',NOM_CMP = 'DX',NOM_CHAM = 'VITE', )
DYNAP2 = RECU_FONCTION(RESULTAT=DYNTPSA2,
                      NOEUD = 'P4',NOM_CMP = 'DX',NOM_CHAM = 'ACCE', )

COMPU1P2 = CALC_FONCTION(COMB=( _F(  FONCTION = DYNTUP2, COEF = 1.),
                              _F(  FONCTION = DYNUP2, COEF = -1.))
                       )
COMPV1P2 = CALC_FONCTION(COMB=( _F(  FONCTION = DYNTVP2, COEF = 1.),
                              _F(  FONCTION = DYNVP2, COEF = -1.))
                       )
COMPA1P2 = CALC_FONCTION(COMB=( _F(  FONCTION = DYNTAP2, COEF = 1.),
                              _F(  FONCTION = DYNAP2, COEF = -1.))
                       )

MAXCU1P2 = INFO_FONCTION( MAX=_F(  FONCTION = COMPU1P2))
MAXCV1P2 = INFO_FONCTION( MAX=_F(  FONCTION = COMPV1P2))
MAXCA1P2 = INFO_FONCTION( MAX=_F(  FONCTION = COMPA1P2))

TEST_TABLE(TABLE=MAXCU1P2,TYPE_TEST='SOMM_ABS',
           NOM_PARA='DX',VALE=0.,REFERENCE='ANALYTIQUE',CRITERE='ABSOLU',
            );
TEST_TABLE(TABLE=MAXCV1P2,TYPE_TEST='SOMM_ABS',
           NOM_PARA='DX',VALE=0.,REFERENCE='ANALYTIQUE',CRITERE='ABSOLU',
            );
TEST_TABLE(TABLE=MAXCA1P2,TYPE_TEST='SOMM_ABS',
           NOM_PARA='DX',VALE=0.,REFERENCE='ANALYTIQUE',CRITERE='ABSOLU',
            );

COMPU = CALC_FONCTION(COMB=( _F(  FONCTION = DYNTUP2, COEF = 1.),
                             _F(  FONCTION = DYNTU, COEF = -1.))
                       )
COMPUS = CALC_FONCTION(COMB=( _F(  FONCTION = DYNTUP, COEF = 1.),
                             _F(  FONCTION = DYNTU, COEF = -1.))
                       )
COMPUSS = CALC_FONCTION(COMB=( _F(  FONCTION = DYNTUP, COEF = 1.),
                             _F(  FONCTION = DYNTUP2, COEF = -1.))
                       )
COMPV = CALC_FONCTION(COMB=( _F(  FONCTION = DYNTVP2, COEF = 1.),
                             _F(  FONCTION = DYNTV, COEF = -1.))
                       )
COMPVS = CALC_FONCTION(COMB=( _F(  FONCTION = DYNTVP, COEF = 1.),
                             _F(  FONCTION = DYNTV, COEF = -1.))
                       )
COMPVSS = CALC_FONCTION(COMB=( _F(  FONCTION = DYNTVP, COEF = 1.),
                             _F(  FONCTION = DYNTVP2, COEF = -1.))
                       )
COMPA = CALC_FONCTION(COMB=( _F(  FONCTION = DYNTAP2, COEF = 1.),
                             _F(  FONCTION = DYNTA, COEF = -1.))
                       )
COMPAS = CALC_FONCTION(COMB=( _F(  FONCTION = DYNTAP, COEF = 1.),
                             _F(  FONCTION = DYNTA, COEF = -1.))
                       )
COMPASS = CALC_FONCTION(COMB=( _F(  FONCTION = DYNTAP, COEF = 1.),
                             _F(  FONCTION = DYNTAP2, COEF = -1.))
                       )
MAXCU = INFO_FONCTION( MAX=_F(  FONCTION = COMPU))
MAXCUS = INFO_FONCTION( MAX=_F(  FONCTION = COMPUS))
MAXCUSS = INFO_FONCTION( MAX=_F(  FONCTION = COMPUSS))
MAXCV = INFO_FONCTION( MAX=_F(  FONCTION = COMPV))
MAXCVS = INFO_FONCTION( MAX=_F(  FONCTION = COMPVS))
MAXCVSS = INFO_FONCTION( MAX=_F(  FONCTION = COMPVSS))
MAXCA = INFO_FONCTION( MAX=_F(  FONCTION = COMPA))
MAXCAS = INFO_FONCTION( MAX=_F(  FONCTION = COMPAS))
MAXCASS = INFO_FONCTION( MAX=_F(  FONCTION = COMPASS))

TEST_TABLE(TABLE=MAXCU,TYPE_TEST='SOMM_ABS',
           NOM_PARA='DX',VALE=0.,REFERENCE='ANALYTIQUE',CRITERE='ABSOLU',
            );
TEST_TABLE(TABLE=MAXCUS,TYPE_TEST='SOMM_ABS',
           NOM_PARA='DX',VALE=0.,REFERENCE='ANALYTIQUE',CRITERE='ABSOLU',
            );
TEST_TABLE(TABLE=MAXCUSS,TYPE_TEST='SOMM_ABS',
           NOM_PARA='DX',VALE=0.,REFERENCE='ANALYTIQUE',CRITERE='ABSOLU',
            );
TEST_TABLE(TABLE=MAXCV,TYPE_TEST='SOMM_ABS',
           NOM_PARA='DX',VALE=0.,REFERENCE='ANALYTIQUE',CRITERE='ABSOLU',
            );
TEST_TABLE(TABLE=MAXCVS,TYPE_TEST='SOMM_ABS',
           NOM_PARA='DX',VALE=0.,REFERENCE='ANALYTIQUE',CRITERE='ABSOLU',
            );
TEST_TABLE(TABLE=MAXCVSS,TYPE_TEST='SOMM_ABS',
           NOM_PARA='DX',VALE=0.,REFERENCE='ANALYTIQUE',CRITERE='ABSOLU',
            );
TEST_TABLE(TABLE=MAXCA,TYPE_TEST='SOMM_ABS',
           NOM_PARA='DX',VALE=0.,REFERENCE='ANALYTIQUE',CRITERE='ABSOLU',
            );
TEST_TABLE(TABLE=MAXCAS,TYPE_TEST='SOMM_ABS',
           NOM_PARA='DX',VALE=0.,REFERENCE='ANALYTIQUE',CRITERE='ABSOLU',
            );
TEST_TABLE(TABLE=MAXCASS,TYPE_TEST='SOMM_ABS',
           NOM_PARA='DX',VALE=0.,REFERENCE='ANALYTIQUE',CRITERE='ABSOLU',
            );


F1=RECU_FONCTION(  RESULTAT=DYNAHARM,    NOM_CHAM='DEPL',
                     LIST_FREQ=LIFREQ,      NOEUD='P4',    NOM_CMP='DX'  )

TEST_FONCTION(VALEUR=( _F(  FONCTION = F1,   VALE_PARA = 5.,
                          VALE_REFE_C = 1.0237E-04-8.5187E-06j),
                        _F(  FONCTION = F1,   VALE_PARA = 40.,
                          VALE_REFE_C = -2.5696E-06-2.7554E-07j))
               )

TEST_RESU(RESU=(
     _F( RESULTAT = DYNAHARM,NUME_ORDRE = 1,PARA = 'FREQ',VALE = 5.),
     _F( RESULTAT = DYNAHARM,NUME_ORDRE = 1,NOM_CHAM = 'DEPL',
           NOEUD = 'P4',NOM_CMP = 'DX',VALE_C = 1.0237E-04-8.5187E-06j),
     _F( RESULTAT = DYNAHARM,NUME_ORDRE = 2,PARA = 'FREQ',VALE = 5.5),
     _F( RESULTAT = DYNAHARM,NUME_ORDRE = 2,NOM_CHAM = 'DEPL',
         NOEUD = 'P4',NOM_CMP = 'DX',VALE_C = 4.5066E-04-7.7914E-04j),
     _F( RESULTAT = DYNAHARM,NUME_ORDRE = 3,PARA = 'FREQ',VALE = 6.),
     _F( RESULTAT = DYNAHARM,NUME_ORDRE = 3,NOM_CHAM = 'DEPL',
         NOEUD = 'P4',NOM_CMP = 'DX',VALE_C = -9.4101E-05-1.0585E-05j),
     _F( RESULTAT = DYNAHARM,NUME_ORDRE = 4,PARA = 'FREQ',VALE = 6.5),
     _F( RESULTAT = DYNAHARM,NUME_ORDRE = 4,NOM_CHAM = 'DEPL',
         NOEUD = 'P4',NOM_CMP = 'DX',VALE_C = -4.1390E-05-2.6083E-06j),
     _F( RESULTAT = DYNAHARM,NUME_ORDRE = 5,PARA = 'FREQ',VALE = 7.),
     _F( RESULTAT = DYNAHARM,NUME_ORDRE = 5,NOM_CHAM = 'DEPL',
         NOEUD = 'P4',NOM_CMP = 'DX',VALE_C = -2.4232E-05-1.2233E-06j),
     _F( RESULTAT = DYNAHARM,NUME_ORDRE = 6,PARA = 'FREQ',VALE = 7.5),
     _F( RESULTAT = DYNAHARM,NUME_ORDRE = 6,NOM_CHAM = 'DEPL',
         NOEUD = 'P4',NOM_CMP = 'DX',VALE_C = -1.5691E-05-7.6742E-07j),
     _F( RESULTAT = DYNAHARM,NUME_ORDRE = 7,PARA = 'FREQ',VALE = 8.),
     _F( RESULTAT = DYNAHARM,NUME_ORDRE = 7,NOM_CHAM = 'DEPL',
         NOEUD = 'P4',NOM_CMP = 'DX',VALE_C = -1.0509E-05-5.8171E-07j),
     _F( RESULTAT = DYNAHARM,NUME_ORDRE = 8,PARA = 'FREQ',VALE = 8.5),
     _F( RESULTAT = DYNAHARM,NUME_ORDRE = 8,NOM_CHAM = 'DEPL',
         NOEUD = 'P4',NOM_CMP = 'DX',VALE_C = -6.9343E-06-5.1279E-07j),
     _F( RESULTAT = DYNAHARM,NUME_ORDRE = 9,PARA = 'FREQ',VALE = 9.),
     _F( RESULTAT = DYNAHARM,NUME_ORDRE = 9,NOM_CHAM = 'DEPL',
         NOEUD = 'P4',NOM_CMP = 'DX',VALE_C = -4.1841E-06-5.2213E-07j),
     _F( RESULTAT = DYNAHARM,NUME_ORDRE = 10,PARA = 'FREQ',VALE = 9.5),
     _F( RESULTAT = DYNAHARM,NUME_ORDRE = 10,NOM_CHAM = 'DEPL',
         NOEUD = 'P4',NOM_CMP = 'DX',VALE_C = -1.7756E-06-6.3356E-07j),
     _F( RESULTAT = DYNAHARM,NUME_ORDRE = 11,PARA = 'FREQ',VALE = 10.),
     _F( RESULTAT = DYNAHARM,NUME_ORDRE = 11,NOM_CHAM = 'DEPL',
         NOEUD = 'P4',NOM_CMP = 'DX',VALE_C = 8.4143E-07-1.0335E-06j),
     _F( RESULTAT = DYNAHARM,NUME_ORDRE = 12,PARA = 'FREQ',VALE = 10.5),
     _F( RESULTAT = DYNAHARM,NUME_ORDRE = 12,NOM_CHAM = 'DEPL',
         NOEUD = 'P4',NOM_CMP = 'DX',VALE_C = 5.1880E-06-3.4375E-06j),
     _F( RESULTAT = DYNAHARM,NUME_ORDRE = 13,PARA = 'FREQ',VALE = 11.),
     _F( RESULTAT = DYNAHARM,NUME_ORDRE = 13,NOM_CHAM = 'DEPL',
         NOEUD = 'P4',NOM_CMP = 'DX',VALE_C = -7.3293E-06-1.2167E-05j),
     _F( RESULTAT = DYNAHARM,NUME_ORDRE = 14,PARA = 'FREQ',VALE = 11.5),
     _F( RESULTAT = DYNAHARM,NUME_ORDRE = 14,NOM_CHAM = 'DEPL',
         NOEUD = 'P4',NOM_CMP = 'DX',VALE_C = -3.5611E-06-1.8100E-06j),
     _F( RESULTAT = DYNAHARM,NUME_ORDRE = 15,PARA = 'FREQ',VALE = 12.),
     _F( RESULTAT = DYNAHARM,NUME_ORDRE = 15,NOM_CHAM = 'DEPL',
         NOEUD = 'P4',NOM_CMP = 'DX',VALE_C = -7.0575E-07-9.6206E-07j),
     _F( RESULTAT = DYNAHARM,NUME_ORDRE = 16,PARA = 'FREQ',VALE = 12.5),
     _F( RESULTAT = DYNAHARM,NUME_ORDRE = 16,NOM_CHAM = 'DEPL',
         NOEUD = 'P4',NOM_CMP = 'DX',VALE_C = 1.1006E-06-8.4775E-07j),
     _F( RESULTAT = DYNAHARM,NUME_ORDRE = 17,PARA = 'FREQ',VALE = 13.),
     _F( RESULTAT = DYNAHARM,NUME_ORDRE = 17,NOM_CHAM = 'DEPL',
         NOEUD = 'P4',NOM_CMP = 'DX',VALE_C = 2.6424E-06-9.3448E-07j),
     _F( RESULTAT = DYNAHARM,NUME_ORDRE = 18,PARA = 'FREQ',VALE = 13.5),
     _F( RESULTAT = DYNAHARM,NUME_ORDRE = 18,NOM_CHAM = 'DEPL',
         NOEUD = 'P4',NOM_CMP = 'DX',VALE_C = 4.2248E-06-1.1788E-06j),
     _F( RESULTAT = DYNAHARM,NUME_ORDRE = 19,PARA = 'FREQ',VALE = 14.),
     _F( RESULTAT = DYNAHARM,NUME_ORDRE = 19,NOM_CHAM = 'DEPL',
         NOEUD = 'P4',NOM_CMP = 'DX',VALE_C = 6.1040E-06-1.6754E-06j),
     _F( RESULTAT = DYNAHARM,NUME_ORDRE = 20,PARA = 'FREQ',VALE = 14.5),
     _F( RESULTAT = DYNAHARM,NUME_ORDRE = 20,NOM_CHAM = 'DEPL',
         NOEUD = 'P4',NOM_CMP = 'DX',VALE_C = 8.6698E-06-2.7560E-06j),
# ... 152 like lines cut
         NOEUD = 'P4',NOM_CMP = 'DX',VALE_C = -2.5696E-06-2.7554E-07j))
     )

FIN( )
#






