# TITRE SYSTEME MASSE-RESSORT A 8 DDL AVEC AMORTISSEMENT VISQUEUX
#            CONFIGURATION MANAGEMENT OF EDF VERSION
# ======================================================================
# COPYRIGHT (C) 1991 - 2012  EDF R&D                  WWW.CODE-ASTER.ORG
# THIS PROGRAM IS FREE SOFTWARE; YOU CAN REDISTRIBUTE IT AND/OR MODIFY
# IT UNDER THE TERMS OF THE GNU GENERAL PUBLIC LICENSE AS PUBLISHED BY
# THE FREE SOFTWARE FOUNDATION; EITHER VERSION 2 OF THE LICENSE, OR
# (AT YOUR OPTION) ANY LATER VERSION.
#
# THIS PROGRAM IS DISTRIBUTED IN THE HOPE THAT IT WILL BE USEFUL, BUT
# WITHOUT ANY WARRANTY; WITHOUT EVEN THE IMPLIED WARRANTY OF
# MERCHANTABILITY OR FITNESS FOR A PARTICULAR PURPOSE. SEE THE GNU
# GENERAL PUBLIC LICENSE FOR MORE DETAILS.
#
# YOU SHOULD HAVE RECEIVED A COPY OF THE GNU GENERAL PUBLIC LICENSE
# ALONG WITH THIS PROGRAM; IF NOT, WRITE TO EDF R&D CODE_ASTER,
#    1 AVENUE DU GENERAL DE GAULLE, 92141 CLAMART CEDEX, FRANCE.
# ======================================================================
# ----------------------------------------------------------------------
# SYSTEME MASSE-RESSORT A 8 DEGRES DE LIBERTE AVEC AMORTISSEMENT
# VISQUEUX PROPORTIONNEL (REPONSE HARMONIQUE)
# 9 RESSORTS  8 MASSES  -- K =1.E+5    M =10 --
#                                                 REF: SFM.VPCS SDLD21
# ----------------------------------------------------------------------

DEBUT(CODE=_F(NOM='SDLD21B',NIV_PUB_WEB='INTERNET'),DEBUG=_F(SDVERI='OUI'))

MA=LIRE_MAILLAGE( )

MO=AFFE_MODELE(  MAILLAGE=MA,AFFE=(
            _F( TOUT = 'OUI',PHENOMENE = 'MECANIQUE',MODELISATION = 'DIS_T'),
    _F( GROUP_NO = 'MASSE', PHENOMENE = 'MECANIQUE', MODELISATION = 'DIS_T'))  )

MATER=DEFI_MATERIAU( ELAS=_F(  E = 2.E+11,  NU = 0.3) )

CHMATER=AFFE_MATERIAU(  MAILLAGE=MA,
                           AFFE=_F(  TOUT = 'OUI', MATER = MATER)  )

CARELEM=AFFE_CARA_ELEM(   MODELE=MO,DISCRET=(
       _F( GROUP_MA = 'RESSORT',CARA = 'K_T_D_L',VALE = (1.E+5,1., 1.,)),
               _F( GROUP_NO = 'MASSE',  CARA = 'M_T_D_N',VALE = 10.),
               _F( GROUP_NO = 'MASSE',  CARA = 'A_T_D_N',VALE = (0.,0.,0.)),
               _F( GROUP_MA = 'AMORTIS',CARA = 'A_T_D_L',VALE = (50.,1.,1.,))))

CH=AFFE_CHAR_MECA( MODELE=MO,DDL_IMPO=(
                   _F( GROUP_NO = 'A_ET_B', DX = 0.,DY = 0.,DZ = 0.),
                            _F( GROUP_NO = 'MASSE',         DY = 0.,DZ = 0.)),
                   FORCE_NODALE=_F(  NOEUD = 'P4',   FX = 1.)   )

# --------------------------------------------------------------------

ASSEMBLAGE(  MODELE=MO,     CHARGE=CH,      CARA_ELEM=CARELEM,
             NUME_DDL=CO("NUM"),MATR_ASSE=(
                               _F(  MATRICE = CO("MATASSR"),  OPTION = 'RIGI_MECA'),
                               _F(  MATRICE = CO("MATASSM"),  OPTION = 'MASS_MECA'),
                               _F(  MATRICE = CO("MATASSC"),  OPTION = 'AMOR_MECA')),
             VECT_ASSE=(_F(VECTEUR=CO("VECTASS"),OPTION='CHAR_MECA'),),);

# --------------------------------------------------------------------

MODES=MODE_ITER_INV(   MATR_RIGI=MATASSR,  MATR_MASS=MATASSM,
                          CALC_FREQ=_F( OPTION = 'AJUSTE',
                         FREQ = (5.,10.,15.,20.,24.,27.,30.,32.,))  )

PROJ_BASE( BASE=MODES,
           STOCKAGE = 'PLEIN',
           NB_VECT=8,
           MATR_ASSE_GENE=(
             _F(
                             MATRICE = CO("MASSEGEN"),
                             MATR_ASSE = MATASSM),
             _F(
                             MATRICE = CO("RIGIDGEN"),
                             MATR_ASSE = MATASSR),
             _F(
                             MATRICE = CO("AMORTGEN"),
                             MATR_ASSE = MATASSC,),),
             VECT_ASSE_GENE=_F(
                             VECTEUR = CO("EFFOGENE"),
                             VECT_ASSE = VECTASS), )

LIFREQ=DEFI_LIST_REEL(DEBUT=5., INTERVALLE=_F( JUSQU_A = 40., NOMBRE = 70))

DYNHARGA=DYNA_VIBRA(TYPE_CALCUL='HARM',BASE_CALCUL='GENE',
                       MATR_MASS=MASSEGEN, MATR_RIGI=RIGIDGEN,
                       AMOR_MODAL=_F(AMOR_REDUIT=(8.6824E-3, 0.017101,
                             0.0250, 3.21393E-2,3.83022E-2, 4.33012E-2,
                              4.69846E-2, 4.92403E-2,),),
#                            AMOR_REDUIT=(27.982 108.55 300.00 383.42
#                                         544.56 900.00 819.43 900.00)
                       LIST_FREQ=LIFREQ,
                       TOUT_CHAM='OUI',
                       EXCIT=_F(  COEF_MULT = 1.,VECT_ASSE_GENE = EFFOGENE)
                            )

DEPLGE05=RECU_GENE(   RESU_GENE= DYNHARGA,
                      FREQ     = 5.0,
                      NOM_CHAM = 'DEPL',
                   )
DEPLGE10=RECU_GENE(   RESU_GENE= DYNHARGA,
                      FREQ     = 10.0,
                      NOM_CHAM = 'DEPL',
                   ) 
DEPLGE20=RECU_GENE(   RESU_GENE= DYNHARGA,
                      FREQ     = 20.0,
                      NOM_CHAM = 'DEPL',
                   ) 
DEPLGE30=RECU_GENE(   RESU_GENE= DYNHARGA,
                      FREQ     = 30.0,
                      NOM_CHAM = 'DEPL',
                   ) 
DEPLGE40=RECU_GENE(   RESU_GENE= DYNHARGA,
                      FREQ     = 40.0,
                      NOM_CHAM = 'DEPL',
                   )

TEST_RESU(GENE=(_F(RESU_GENE=DEPLGE05,
                   VALE_CALC_C=9.7962291412952E-05+0.0E+00j,
                   VALE_REFE_C=(9.7598399999999997e-05-8.4362099999999997e-06j),
                   REFERENCE = 'ANALYTIQUE',
                   PRECISION=1.0000000000000001E-05,
                   VALE_ABS='OUI',
                   NUME_CMP_GENE=1,),
                _F(RESU_GENE=DEPLGE10,
                   VALE_CALC_C=1.0034860163878E-05+0.0E+00j,
                   VALE_REFE_C=(9.8380600000000005e-06-1.9776299999999999e-06j),
                   REFERENCE = 'ANALYTIQUE',
                   PRECISION=1.0000000000000001E-05,
                   VALE_ABS='OUI',
                   NUME_CMP_GENE=2,),
                _F(RESU_GENE=DEPLGE20,
                   VALE_CALC_C=1.105381156605E-05+0.0E+00j,
                   VALE_REFE_C=(-6.38999e-06+9.0196900000000004e-06j),
                   REFERENCE = 'ANALYTIQUE',
                   PRECISION=1.0000000000000001E-05,
                   VALE_ABS='OUI',
                   NUME_CMP_GENE=4,),
                _F(RESU_GENE=DEPLGE30,
                   VALE_CALC_C=2.6832337292752E-06+0.0E+00j,
                   VALE_REFE_C=(-2.3891199999999998e-06-1.2214099999999999e-06j),
                   REFERENCE = 'ANALYTIQUE',
                   PRECISION=1.0000000000000001E-05,
                   VALE_ABS='OUI',
                   NUME_CMP_GENE=6,),
                _F(RESU_GENE=DEPLGE40,
                   VALE_CALC_C=8.6713595319049E-07+0.0E+00j,
                   VALE_REFE_C=(8.5029200000000003e-07+1.70081e-07j),
                   REFERENCE = 'ANALYTIQUE',
                   PRECISION=1.0000000000000001E-05,
                   VALE_ABS='OUI',
                   NUME_CMP_GENE=8,),
                ),
          )

L_AMORT = DEFI_LIST_REEL(VALE=(8.6824E-3, 0.017101, 0.0250, 3.21393E-2,
                               3.83022E-2, 4.33012E-2, 4.69846E-2, 4.92403E-2,),)

DYNHARGB=DYNA_VIBRA(TYPE_CALCUL='HARM',BASE_CALCUL='GENE',
                       MATR_MASS=MASSEGEN, MATR_RIGI=RIGIDGEN,
                       AMOR_MODAL=_F(LIST_AMOR=L_AMORT,),
                       LIST_FREQ=LIFREQ,
                       TOUT_CHAM='OUI',
                       EXCIT=_F(  COEF_MULT = 1.,VECT_ASSE_GENE = EFFOGENE)
                            )

DYNTPST = REST_SPEC_TEMP( RESU_GENE = DYNHARGA ,
                          METHODE = 'PROL_ZERO' ,
                          SYMETRIE = 'NON' ,
                          TOUT_CHAM = 'OUI'  );
DYNTPSUA = REST_SPEC_TEMP( RESU_GENE = DYNHARGA ,
                          METHODE = 'PROL_ZERO' ,
                          SYMETRIE = 'NON' ,
                          NOM_CHAM = 'DEPL'  );
DYNTPSUB = REST_SPEC_TEMP( RESU_GENE = DYNHARGB ,
                          METHODE = 'PROL_ZERO' ,
                          SYMETRIE = 'NON' ,
                          NOM_CHAM = 'DEPL'  );
DYNTPSV = REST_SPEC_TEMP( RESU_GENE = DYNHARGA ,
                          METHODE = 'PROL_ZERO' ,
                          SYMETRIE = 'NON' ,
                          NOM_CHAM = 'VITE'  );
DYNTPSA = REST_SPEC_TEMP( RESU_GENE = DYNHARGA ,
                          METHODE = 'PROL_ZERO' ,
                          SYMETRIE = 'NON' ,
                          NOM_CHAM = 'ACCE'  );

DYNTU = RECU_FONCTION(RESU_GENE=DYNTPST,
                      NOEUD = 'P4',NOM_CMP = 'DX',NOM_CHAM = 'DEPL', )
DYNTV = RECU_FONCTION(RESU_GENE=DYNTPST,
                      NOEUD = 'P4',NOM_CMP = 'DX',NOM_CHAM = 'VITE', )
DYNTA = RECU_FONCTION(RESU_GENE=DYNTPST,
                      NOEUD = 'P4',NOM_CMP = 'DX',NOM_CHAM = 'ACCE', )
DYNUA = RECU_FONCTION(RESU_GENE=DYNTPSUA,
                      NOEUD = 'P4',NOM_CMP = 'DX',NOM_CHAM = 'DEPL', )
DYNUB = RECU_FONCTION(RESU_GENE=DYNTPSUB,
                      NOEUD = 'P4',NOM_CMP = 'DX',NOM_CHAM = 'DEPL', )
DYNV = RECU_FONCTION(RESU_GENE=DYNTPSV,
                      NOEUD = 'P4',NOM_CMP = 'DX',NOM_CHAM = 'VITE', )
DYNA = RECU_FONCTION(RESU_GENE=DYNTPSA,
                      NOEUD = 'P4',NOM_CMP = 'DX',NOM_CHAM = 'ACCE', )

COMPU1A = CALC_FONCTION(COMB=( _F(  FONCTION = DYNTU, COEF = 1.),
                              _F(  FONCTION = DYNUA, COEF = -1.))
                       )

COMPU1B = CALC_FONCTION(COMB=( _F(  FONCTION = DYNTU, COEF = 1.),
                              _F(  FONCTION = DYNUB, COEF = -1.))
                       )

COMPV1 = CALC_FONCTION(COMB=( _F(  FONCTION = DYNTV, COEF = 1.),
                              _F(  FONCTION = DYNV, COEF = -1.))
                       )
COMPA1 = CALC_FONCTION(COMB=( _F(  FONCTION = DYNTA, COEF = 1.),
                              _F(  FONCTION = DYNA, COEF = -1.))
                       )
MAXCU1A = INFO_FONCTION( MAX=_F(  FONCTION = COMPU1A))
MAXCU1B = INFO_FONCTION( MAX=_F(  FONCTION = COMPU1B))

MAXCV1 = INFO_FONCTION( MAX=_F(  FONCTION = COMPV1))
MAXCA1 = INFO_FONCTION( MAX=_F(  FONCTION = COMPA1))

TEST_TABLE(CRITERE='ABSOLU',
           REFERENCE='ANALYTIQUE',
           VALE_CALC=0.0E+00,
           VALE_REFE=0.0,
           NOM_PARA='DEPL',
           TYPE_TEST='SOMM_ABS',
           TABLE=MAXCU1A,)

TEST_TABLE(CRITERE='ABSOLU',
           REFERENCE='ANALYTIQUE',
           VALE_CALC=0.0E+00,
           VALE_REFE=0.0,
           NOM_PARA='DEPL',
           TYPE_TEST='SOMM_ABS',
           TABLE=MAXCU1B,)

TEST_TABLE(CRITERE='ABSOLU',
           REFERENCE='ANALYTIQUE',
           VALE_CALC=0.0E+00,
           VALE_REFE=0.0,
           NOM_PARA='VITE',
           TYPE_TEST='SOMM_ABS',
           TABLE=MAXCV1,)

TEST_TABLE(CRITERE='ABSOLU',
           REFERENCE='ANALYTIQUE',
           VALE_CALC=0.0E+00,
           VALE_REFE=0.0,
           NOM_PARA='ACCE',
           TYPE_TEST='SOMM_ABS',
           TABLE=MAXCA1,)

TRANPHYT=REST_GENE_PHYS(    RESU_GENE=DYNTPST,
                                TOUT_CHAM='OUI',
                                                      )
TRANPHYU=REST_GENE_PHYS(    RESU_GENE=DYNTPSUA,
                                TOUT_CHAM='OUI',
                                                      )
TRANPHYV=REST_GENE_PHYS(    RESU_GENE=DYNTPSV,
                                TOUT_CHAM='OUI',
                                                      )
TRANPHYA=REST_GENE_PHYS(    RESU_GENE=DYNTPSA,
                                TOUT_CHAM='OUI',
                                                      )

DYNAHARP=DYNA_VIBRA(TYPE_CALCUL='HARM',BASE_CALCUL='PHYS',
                    MATR_MASS=MATASSM, MATR_RIGI=MATASSR,
                    MATR_AMOR=MATASSC,
#                            AMOR_REDUIT:(0.0087 0.0171 0.0250 0.0321
#                                         0.0383 0.0433 0.0470 0.0492)
#                       AMOR_REDUIT=(8.6824E-3, 0.017101, 0.0250, 3.21393E-2,
#                            3.83022E-2, 4.33012E-2, 4.69846E-2, 4.92403E-2,),
#                            AMOR_REDUIT:(27.982 108.55 300.00 383.42
#                                         544.56 900.00 819.43 900.00)
                    LIST_FREQ=LIFREQ,
                    TOUT_CHAM='OUI',
                    EXCIT=_F(  COEF_MULT = 1.,VECT_ASSE = VECTASS)
                            )

DYNTPSTP = REST_SPEC_TEMP( RESULTAT = DYNAHARP ,
                          METHODE = 'PROL_ZERO' ,
                          SYMETRIE = 'NON' ,
                          TOUT_CHAM = 'OUI'  );
DYNTPSUP = REST_SPEC_TEMP( RESULTAT = DYNAHARP ,
                          METHODE = 'PROL_ZERO' ,
                          SYMETRIE = 'NON' ,
                          NOM_CHAM = 'DEPL'  );
DYNTPSVP = REST_SPEC_TEMP( RESULTAT = DYNAHARP ,
                          METHODE = 'PROL_ZERO' ,
                          SYMETRIE = 'NON' ,
                          NOM_CHAM = 'VITE'  );
DYNTPSAP = REST_SPEC_TEMP( RESULTAT = DYNAHARP ,
                          METHODE = 'PROL_ZERO' ,
                          SYMETRIE = 'NON' ,
                          NOM_CHAM = 'ACCE'  );

DYNTUP = RECU_FONCTION(RESULTAT=DYNTPSTP,
                      NOEUD = 'P4',NOM_CMP = 'DX',NOM_CHAM = 'DEPL', )
DYNTVP = RECU_FONCTION(RESULTAT=DYNTPSTP,
                      NOEUD = 'P4',NOM_CMP = 'DX',NOM_CHAM = 'VITE', )
DYNTAP = RECU_FONCTION(RESULTAT=DYNTPSTP,
                      NOEUD = 'P4',NOM_CMP = 'DX',NOM_CHAM = 'ACCE', )
DYNUP = RECU_FONCTION(RESULTAT=DYNTPSUP,
                      NOEUD = 'P4',NOM_CMP = 'DX',NOM_CHAM = 'DEPL', )
DYNVP = RECU_FONCTION(RESULTAT=DYNTPSVP,
                      NOEUD = 'P4',NOM_CMP = 'DX',NOM_CHAM = 'VITE', )
DYNAP = RECU_FONCTION(RESULTAT=DYNTPSAP,
                      NOEUD = 'P4',NOM_CMP = 'DX',NOM_CHAM = 'ACCE', )

COMPU1P = CALC_FONCTION(COMB=( _F(  FONCTION = DYNTUP, COEF = 1.),
                              _F(  FONCTION = DYNUP, COEF = -1.))
                       )
COMPV1P = CALC_FONCTION(COMB=( _F(  FONCTION = DYNTVP, COEF = 1.),
                              _F(  FONCTION = DYNVP, COEF = -1.))
                       )
COMPA1P = CALC_FONCTION(COMB=( _F(  FONCTION = DYNTAP, COEF = 1.),
                              _F(  FONCTION = DYNAP, COEF = -1.))
                       )

MAXCU1P = INFO_FONCTION( MAX=_F(  FONCTION = COMPU1P))
MAXCV1P = INFO_FONCTION( MAX=_F(  FONCTION = COMPV1P))
MAXCA1P = INFO_FONCTION( MAX=_F(  FONCTION = COMPA1P))

TEST_TABLE(CRITERE='ABSOLU',
           REFERENCE='ANALYTIQUE',
           VALE_CALC=0.0E+00,
           VALE_REFE=0.0,
           NOM_PARA='DX',
           TYPE_TEST='SOMM_ABS',
           TABLE=MAXCU1P,)

TEST_TABLE(CRITERE='ABSOLU',
           REFERENCE='ANALYTIQUE',
           VALE_CALC=0.0E+00,
           VALE_REFE=0.0,
           NOM_PARA='DX',
           TYPE_TEST='SOMM_ABS',
           TABLE=MAXCV1P,)

TEST_TABLE(CRITERE='ABSOLU',
           REFERENCE='ANALYTIQUE',
           VALE_CALC=0.0E+00,
           VALE_REFE=0.0,
           NOM_PARA='DX',
           TYPE_TEST='SOMM_ABS',
           TABLE=MAXCA1P,)

DYNAHARM=REST_GENE_PHYS(    RESU_GENE=DYNHARGA,
                                TOUT_CHAM='OUI',
                              LIST_FREQ=LIFREQ
                                                      )

DYNTPST2 = REST_SPEC_TEMP( RESULTAT = DYNAHARM ,
                          METHODE = 'PROL_ZERO' ,
                          SYMETRIE = 'NON' ,
                          TOUT_CHAM = 'OUI'  );
DYNTPSU2 = REST_SPEC_TEMP( RESULTAT = DYNAHARM ,
                          METHODE = 'PROL_ZERO' ,
                          SYMETRIE = 'NON' ,
                          NOM_CHAM = 'DEPL'  );
DYNTPSV2 = REST_SPEC_TEMP( RESULTAT = DYNAHARM ,
                          METHODE = 'PROL_ZERO' ,
                          SYMETRIE = 'NON' ,
                          NOM_CHAM = 'VITE'  );
DYNTPSA2 = REST_SPEC_TEMP( RESULTAT = DYNAHARM ,
                          METHODE = 'PROL_ZERO' ,
                          SYMETRIE = 'NON' ,
                          NOM_CHAM = 'ACCE'  );

DYNTUP2 = RECU_FONCTION(RESULTAT=DYNTPST2,
                      NOEUD = 'P4',NOM_CMP = 'DX',NOM_CHAM = 'DEPL', )
DYNTVP2 = RECU_FONCTION(RESULTAT=DYNTPST2,
                      NOEUD = 'P4',NOM_CMP = 'DX',NOM_CHAM = 'VITE', )
DYNTAP2 = RECU_FONCTION(RESULTAT=DYNTPST2,
                      NOEUD = 'P4',NOM_CMP = 'DX',NOM_CHAM = 'ACCE', )
DYNUP2 = RECU_FONCTION(RESULTAT=DYNTPSU2,
                      NOEUD = 'P4',NOM_CMP = 'DX',NOM_CHAM = 'DEPL', )
DYNVP2 = RECU_FONCTION(RESULTAT=DYNTPSV2,
                      NOEUD = 'P4',NOM_CMP = 'DX',NOM_CHAM = 'VITE', )
DYNAP2 = RECU_FONCTION(RESULTAT=DYNTPSA2,
                      NOEUD = 'P4',NOM_CMP = 'DX',NOM_CHAM = 'ACCE', )

COMPU1P2 = CALC_FONCTION(COMB=( _F(  FONCTION = DYNTUP2, COEF = 1.),
                              _F(  FONCTION = DYNUP2, COEF = -1.))
                       )
COMPV1P2 = CALC_FONCTION(COMB=( _F(  FONCTION = DYNTVP2, COEF = 1.),
                              _F(  FONCTION = DYNVP2, COEF = -1.))
                       )
COMPA1P2 = CALC_FONCTION(COMB=( _F(  FONCTION = DYNTAP2, COEF = 1.),
                              _F(  FONCTION = DYNAP2, COEF = -1.))
                       )

MAXCU1P2 = INFO_FONCTION( MAX=_F(  FONCTION = COMPU1P2))
MAXCV1P2 = INFO_FONCTION( MAX=_F(  FONCTION = COMPV1P2))
MAXCA1P2 = INFO_FONCTION( MAX=_F(  FONCTION = COMPA1P2))

TEST_TABLE(CRITERE='ABSOLU',
           REFERENCE='ANALYTIQUE',
           VALE_CALC=0.0E+00,
           VALE_REFE=0.0,
           NOM_PARA='DX',
           TYPE_TEST='SOMM_ABS',
           TABLE=MAXCU1P2,)

TEST_TABLE(CRITERE='ABSOLU',
           REFERENCE='ANALYTIQUE',
           VALE_CALC=0.0E+00,
           VALE_REFE=0.0,
           NOM_PARA='DX',
           TYPE_TEST='SOMM_ABS',
           TABLE=MAXCV1P2,)

TEST_TABLE(CRITERE='ABSOLU',
           REFERENCE='ANALYTIQUE',
           VALE_CALC=0.0E+00,
           VALE_REFE=0.0,
           NOM_PARA='DX',
           TYPE_TEST='SOMM_ABS',
           TABLE=MAXCA1P2,)

COMPU = CALC_FONCTION(COMB=( _F(  FONCTION = DYNTUP2, COEF = 1.),
                             _F(  FONCTION = DYNTU, COEF = -1.))
                       )
COMPUS = CALC_FONCTION(COMB=( _F(  FONCTION = DYNTUP, COEF = 1.),
                             _F(  FONCTION = DYNTU, COEF = -1.))
                       )
COMPUSS = CALC_FONCTION(COMB=( _F(  FONCTION = DYNTUP, COEF = 1.),
                             _F(  FONCTION = DYNTUP2, COEF = -1.))
                       )
COMPV = CALC_FONCTION(COMB=( _F(  FONCTION = DYNTVP2, COEF = 1.),
                             _F(  FONCTION = DYNTV, COEF = -1.))
                       )
COMPVS = CALC_FONCTION(COMB=( _F(  FONCTION = DYNTVP, COEF = 1.),
                             _F(  FONCTION = DYNTV, COEF = -1.))
                       )
COMPVSS = CALC_FONCTION(COMB=( _F(  FONCTION = DYNTVP, COEF = 1.),
                             _F(  FONCTION = DYNTVP2, COEF = -1.))
                       )
COMPA = CALC_FONCTION(COMB=( _F(  FONCTION = DYNTAP2, COEF = 1.),
                             _F(  FONCTION = DYNTA, COEF = -1.))
                       )
COMPAS = CALC_FONCTION(COMB=( _F(  FONCTION = DYNTAP, COEF = 1.),
                             _F(  FONCTION = DYNTA, COEF = -1.))
                       )
COMPASS = CALC_FONCTION(COMB=( _F(  FONCTION = DYNTAP, COEF = 1.),
                             _F(  FONCTION = DYNTAP2, COEF = -1.))
                       )
MAXCU = INFO_FONCTION( MAX=_F(  FONCTION = COMPU))
MAXCUS = INFO_FONCTION( MAX=_F(  FONCTION = COMPUS))
MAXCUSS = INFO_FONCTION( MAX=_F(  FONCTION = COMPUSS))
MAXCV = INFO_FONCTION( MAX=_F(  FONCTION = COMPV))
MAXCVS = INFO_FONCTION( MAX=_F(  FONCTION = COMPVS))
MAXCVSS = INFO_FONCTION( MAX=_F(  FONCTION = COMPVSS))
MAXCA = INFO_FONCTION( MAX=_F(  FONCTION = COMPA))
MAXCAS = INFO_FONCTION( MAX=_F(  FONCTION = COMPAS))
MAXCASS = INFO_FONCTION( MAX=_F(  FONCTION = COMPASS))

TEST_TABLE(CRITERE='ABSOLU',
           REFERENCE='ANALYTIQUE',
           VALE_CALC=2.0328790734103E-20,
           VALE_REFE=0.0,
           NOM_PARA='DX',
           TYPE_TEST='SOMM_ABS',
           TABLE=MAXCU,)

TEST_TABLE(CRITERE='ABSOLU',
           REFERENCE='ANALYTIQUE',
           VALE_CALC=1.3323153671412E-11,
           VALE_REFE=0.0,
           NOM_PARA='DX',
           TYPE_TEST='SOMM_ABS',
           TABLE=MAXCUS,)

TEST_TABLE(CRITERE='ABSOLU',
           REFERENCE='ANALYTIQUE',
           VALE_CALC=1.3323153673954E-11,
           VALE_REFE=0.0,
           NOM_PARA='DX',
           TYPE_TEST='SOMM_ABS',
           TABLE=MAXCUSS,)

TEST_TABLE(CRITERE='ABSOLU',
           REFERENCE='ANALYTIQUE',
           VALE_CALC=4.336808689942E-19,
           VALE_REFE=0.0,
           NOM_PARA='DX',
           TYPE_TEST='SOMM_ABS',
           TABLE=MAXCV,)

TEST_TABLE(CRITERE='ABSOLU',
           REFERENCE='ANALYTIQUE',
           VALE_CALC=4.7516027153497E-10,
           VALE_REFE=0.0,
           NOM_PARA='DX',
           TYPE_TEST='SOMM_ABS',
           TABLE=MAXCVS,)

TEST_TABLE(CRITERE='ABSOLU',
           REFERENCE='ANALYTIQUE',
           VALE_CALC=4.7516027150787E-10,
           VALE_REFE=0.0,
           NOM_PARA='DX',
           TYPE_TEST='SOMM_ABS',
           TABLE=MAXCVSS,)

TEST_TABLE(CRITERE='ABSOLU',
           REFERENCE='ANALYTIQUE',
           VALE_CALC=2.0816681711722E-17,
           VALE_REFE=0.0,
           NOM_PARA='DX',
           TYPE_TEST='SOMM_ABS',
           TABLE=MAXCA,)

TEST_TABLE(CRITERE='ABSOLU',
           REFERENCE='ANALYTIQUE',
           VALE_CALC=5.2776201301535E-08,
           VALE_REFE=0.0,
           NOM_PARA='DX',
           TYPE_TEST='SOMM_ABS',
           TABLE=MAXCAS,)

TEST_TABLE(CRITERE='ABSOLU',
           REFERENCE='ANALYTIQUE',
           VALE_CALC=5.2776201299801E-08,
           VALE_REFE=0.0,
           NOM_PARA='DX',
           TYPE_TEST='SOMM_ABS',
           TABLE=MAXCASS,)

F1=RECU_FONCTION(  RESULTAT=DYNAHARM,    NOM_CHAM='DEPL',
                     LIST_FREQ=LIFREQ,      NOEUD='P4',    NOM_CMP='DX'  )

TEST_FONCTION(VALEUR=(_F(VALE_CALC_C=1.023696E-04-8.518735E-06j,
                         VALE_REFE_C=(0.00010237-8.5187000000000003e-06j),
                         REFERENCE = 'ANALYTIQUE',
                         PRECISION=1.E-3,
                         VALE_PARA=5.0,
                         FONCTION=F1,),
                      _F(VALE_CALC_C=-2.569582E-06-2.755363E-07j,
                         VALE_REFE_C=(-2.5695999999999999e-06-2.7553999999999999e-07j),
                         REFERENCE = 'ANALYTIQUE',
                         PRECISION=1.E-3,
                         VALE_PARA=40.0,
                         FONCTION=F1,),
                      ),
              )

TEST_RESU(RESU=(_F(NUME_ORDRE=1,
                   PARA='FREQ',
                   RESULTAT=DYNAHARM,
                   VALE_CALC=5.0,
                   VALE_REFE=5.0,
                   REFERENCE = 'ANALYTIQUE',
                   PRECISION=1.E-3,),
                _F(NUME_ORDRE=1,
                   VALE_CALC_C=1.0236955998369E-04-8.5187354239511E-06j,
                   VALE_REFE_C=(0.00010237-8.5187000000000003e-06j),
                   REFERENCE = 'ANALYTIQUE',
                   PRECISION=1.E-3,
                   RESULTAT=DYNAHARM,
                   NOM_CHAM='DEPL',
                   NOEUD='P4',
                   NOM_CMP='DX',),
                _F(NUME_ORDRE=2,
                   PARA='FREQ',
                   RESULTAT=DYNAHARM,
                   VALE_CALC=5.5,
                   VALE_REFE=5.5,
                   REFERENCE = 'ANALYTIQUE',
                   PRECISION=1.E-3,),
                _F(NUME_ORDRE=2,
                   VALE_CALC_C=4.5066224840462E-04-7.7914393736335E-04j,
                   VALE_REFE_C=(0.00045066000000000003-0.00077914j),
                   REFERENCE = 'ANALYTIQUE',
                   PRECISION=1.E-3,
                   RESULTAT=DYNAHARM,
                   NOM_CHAM='DEPL',
                   NOEUD='P4',
                   NOM_CMP='DX',),
                _F(NUME_ORDRE=3,
                   PARA='FREQ',
                   RESULTAT=DYNAHARM,
                   VALE_CALC=6.0,
                   VALE_REFE=6.0,
                   REFERENCE = 'ANALYTIQUE',
                   PRECISION=1.E-3,),
                _F(NUME_ORDRE=3,
                   VALE_CALC_C=-9.4100966615237E-05-1.0585171362697E-05j,
                   VALE_REFE_C=(-9.4100999999999999e-05-1.0584999999999999e-05j),
                   REFERENCE = 'ANALYTIQUE',
                   PRECISION=1.E-3,
                   RESULTAT=DYNAHARM,
                   NOM_CHAM='DEPL',
                   NOEUD='P4',
                   NOM_CMP='DX',),
                _F(NUME_ORDRE=4,
                   PARA='FREQ',
                   RESULTAT=DYNAHARM,
                   VALE_CALC=6.5,
                   VALE_REFE=6.5,
                   REFERENCE = 'ANALYTIQUE',
                   PRECISION=1.E-3,),
                _F(NUME_ORDRE=4,
                   VALE_CALC_C=-4.1390457730808E-05-2.6082824082794E-06j,
                   VALE_REFE_C=(-4.1390000000000002e-05-2.6083000000000001e-06j),
                   REFERENCE = 'ANALYTIQUE',
                   PRECISION=1.E-3,
                   RESULTAT=DYNAHARM,
                   NOM_CHAM='DEPL',
                   NOEUD='P4',
                   NOM_CMP='DX',),
                _F(NUME_ORDRE=5,
                   PARA='FREQ',
                   RESULTAT=DYNAHARM,
                   VALE_CALC=7.0,
                   VALE_REFE=7.0,
                   REFERENCE = 'ANALYTIQUE',
                   PRECISION=1.E-3,),
                _F(NUME_ORDRE=5,
                   VALE_CALC_C=-2.4232158680438E-05-1.2232545159771E-06j,
                   VALE_REFE_C=(-2.4232000000000001e-05-1.2233e-06j),
                   REFERENCE = 'ANALYTIQUE',
                   PRECISION=1.E-3,
                   RESULTAT=DYNAHARM,
                   NOM_CHAM='DEPL',
                   NOEUD='P4',
                   NOM_CMP='DX',),
                _F(NUME_ORDRE=6,
                   PARA='FREQ',
                   RESULTAT=DYNAHARM,
                   VALE_CALC=7.5,
                   VALE_REFE=7.5,
                   REFERENCE = 'ANALYTIQUE',
                   PRECISION=1.E-3,),
                _F(NUME_ORDRE=6,
                   VALE_CALC_C=-1.5691407793187E-05-7.6742080699428E-07j,
                   VALE_REFE_C=(-1.5690999999999999e-05-7.6741999999999997e-07j),
                   REFERENCE = 'ANALYTIQUE',
                   PRECISION=1.E-3,
                   RESULTAT=DYNAHARM,
                   NOM_CHAM='DEPL',
                   NOEUD='P4',
                   NOM_CMP='DX',),
                _F(NUME_ORDRE=7,
                   PARA='FREQ',
                   RESULTAT=DYNAHARM,
                   VALE_CALC=8.0,
                   VALE_REFE=8.0,
                   REFERENCE = 'ANALYTIQUE',
                   PRECISION=1.E-3,),
                _F(NUME_ORDRE=7,
                   VALE_CALC_C=-1.0508794990031E-05-5.8171082704145E-07j,
                   VALE_REFE_C=(-1.0509000000000001e-05-5.8171000000000004e-07j),
                   REFERENCE = 'ANALYTIQUE',
                   PRECISION=1.E-3,
                   RESULTAT=DYNAHARM,
                   NOM_CHAM='DEPL',
                   NOEUD='P4',
                   NOM_CMP='DX',),
                _F(NUME_ORDRE=8,
                   PARA='FREQ',
                   RESULTAT=DYNAHARM,
                   VALE_CALC=8.5,
                   VALE_REFE=8.5,
                   REFERENCE = 'ANALYTIQUE',
                   PRECISION=1.E-3,),
                _F(NUME_ORDRE=8,
                   VALE_CALC_C=-6.9343047777118E-06-5.1279278338491E-07j,
                   VALE_REFE_C=(-6.9342999999999998e-06-5.1279000000000003e-07j),
                   REFERENCE = 'ANALYTIQUE',
                   PRECISION=1.E-3,
                   RESULTAT=DYNAHARM,
                   NOM_CHAM='DEPL',
                   NOEUD='P4',
                   NOM_CMP='DX',),
                _F(NUME_ORDRE=9,
                   PARA='FREQ',
                   RESULTAT=DYNAHARM,
                   VALE_CALC=9.0,
                   VALE_REFE=9.0,
                   REFERENCE = 'ANALYTIQUE',
                   PRECISION=1.E-3,),
                _F(NUME_ORDRE=9,
                   VALE_CALC_C=-4.1841468186052E-06-5.2213450181347E-07j,
                   VALE_REFE_C=(-4.1841000000000003e-06-5.2213000000000003e-07j),
                   REFERENCE = 'ANALYTIQUE',
                   PRECISION=1.E-3,
                   RESULTAT=DYNAHARM,
                   NOM_CHAM='DEPL',
                   NOEUD='P4',
                   NOM_CMP='DX',),
                _F(NUME_ORDRE=10,
                   PARA='FREQ',
                   RESULTAT=DYNAHARM,
                   VALE_CALC=9.5,
                   VALE_REFE=9.5,
                   REFERENCE = 'ANALYTIQUE',
                   PRECISION=1.E-3,),
                _F(NUME_ORDRE=10,
                   VALE_CALC_C=-1.7756121347693E-06-6.3355586966322E-07j,
                   VALE_REFE_C=(-1.7756e-06-6.3356000000000002e-07j),
                   REFERENCE = 'ANALYTIQUE',
                   PRECISION=1.E-3,
                   RESULTAT=DYNAHARM,
                   NOM_CHAM='DEPL',
                   NOEUD='P4',
                   NOM_CMP='DX',),
                _F(NUME_ORDRE=11,
                   PARA='FREQ',
                   RESULTAT=DYNAHARM,
                   VALE_CALC=10.0,
                   VALE_REFE=10.0,
                   REFERENCE = 'ANALYTIQUE',
                   PRECISION=1.E-3,),
                _F(NUME_ORDRE=11,
                   VALE_CALC_C=8.4142800934464E-07-1.0334670551914E-06j,
                   VALE_REFE_C=(8.4142999999999998e-07-1.0334999999999999e-06j),
                   REFERENCE = 'ANALYTIQUE',
                   PRECISION=1.E-3,
                   RESULTAT=DYNAHARM,
                   NOM_CHAM='DEPL',
                   NOEUD='P4',
                   NOM_CMP='DX',),
                _F(NUME_ORDRE=12,
                   PARA='FREQ',
                   RESULTAT=DYNAHARM,
                   VALE_CALC=10.5,
                   VALE_REFE=10.5,
                   REFERENCE = 'ANALYTIQUE',
                   PRECISION=1.E-3,),
                _F(NUME_ORDRE=12,
                   VALE_CALC_C=5.1879844325089E-06-3.4374511820735E-06j,
                   VALE_REFE_C=(5.1880000000000001e-06-3.4375000000000001e-06j),
                   REFERENCE = 'ANALYTIQUE',
                   PRECISION=1.E-3,
                   RESULTAT=DYNAHARM,
                   NOM_CHAM='DEPL',
                   NOEUD='P4',
                   NOM_CMP='DX',),
                _F(NUME_ORDRE=13,
                   PARA='FREQ',
                   RESULTAT=DYNAHARM,
                   VALE_CALC=11.0,
                   VALE_REFE=11.0,
                   REFERENCE = 'ANALYTIQUE',
                   PRECISION=1.E-3,),
                _F(NUME_ORDRE=13,
                   VALE_CALC_C=-7.3292737172305E-06-1.2167124240816E-05j,
                   VALE_REFE_C=(-7.3293000000000003e-06-1.2167000000000001e-05j),
                   REFERENCE = 'ANALYTIQUE',
                   PRECISION=1.E-3,
                   RESULTAT=DYNAHARM,
                   NOM_CHAM='DEPL',
                   NOEUD='P4',
                   NOM_CMP='DX',),
                _F(NUME_ORDRE=14,
                   PARA='FREQ',
                   RESULTAT=DYNAHARM,
                   VALE_CALC=11.5,
                   VALE_REFE=11.5,
                   REFERENCE = 'ANALYTIQUE',
                   PRECISION=1.E-3,),
                _F(NUME_ORDRE=14,
                   VALE_CALC_C=-3.5611106354382E-06-1.8099682415022E-06j,
                   VALE_REFE_C=(-3.5611000000000001e-06-1.81e-06j),
                   REFERENCE = 'ANALYTIQUE',
                   PRECISION=1.E-3,
                   RESULTAT=DYNAHARM,
                   NOM_CHAM='DEPL',
                   NOEUD='P4',
                   NOM_CMP='DX',),
                _F(NUME_ORDRE=15,
                   PARA='FREQ',
                   RESULTAT=DYNAHARM,
                   VALE_CALC=12.0,
                   VALE_REFE=12.0,
                   REFERENCE = 'ANALYTIQUE',
                   PRECISION=1.E-3,),
                _F(NUME_ORDRE=15,
                   VALE_CALC_C=-7.0575158877914E-07-9.6206282568723E-07j,
                   VALE_REFE_C=(-7.0574999999999998e-07-9.6206000000000003e-07j),
                   REFERENCE = 'ANALYTIQUE',
                   PRECISION=1.E-3,
                   RESULTAT=DYNAHARM,
                   NOM_CHAM='DEPL',
                   NOEUD='P4',
                   NOM_CMP='DX',),
                _F(NUME_ORDRE=16,
                   PARA='FREQ',
                   RESULTAT=DYNAHARM,
                   VALE_CALC=12.5,
                   VALE_REFE=12.5,
                   REFERENCE = 'ANALYTIQUE',
                   PRECISION=1.E-3,),
                _F(NUME_ORDRE=16,
                   VALE_CALC_C=1.1005710542425E-06-8.4774989435146E-07j,
                   VALE_REFE_C=(1.1006000000000001e-06-8.4774999999999995e-07j),
                   REFERENCE = 'ANALYTIQUE',
                   PRECISION=1.E-3,
                   RESULTAT=DYNAHARM,
                   NOM_CHAM='DEPL',
                   NOEUD='P4',
                   NOM_CMP='DX',),
                _F(NUME_ORDRE=17,
                   PARA='FREQ',
                   RESULTAT=DYNAHARM,
                   VALE_CALC=13.0,
                   VALE_REFE=13.0,
                   REFERENCE = 'ANALYTIQUE',
                   PRECISION=1.E-3,),
                _F(NUME_ORDRE=17,
                   VALE_CALC_C=2.6423957520909E-06-9.3447854443328E-07j,
                   VALE_REFE_C=(2.6423999999999999e-06-9.3447999999999999e-07j),
                   REFERENCE = 'ANALYTIQUE',
                   PRECISION=1.E-3,
                   RESULTAT=DYNAHARM,
                   NOM_CHAM='DEPL',
                   NOEUD='P4',
                   NOM_CMP='DX',),
                _F(NUME_ORDRE=18,
                   PARA='FREQ',
                   RESULTAT=DYNAHARM,
                   VALE_CALC=13.5,
                   VALE_REFE=13.5,
                   REFERENCE = 'ANALYTIQUE',
                   PRECISION=1.E-3,),
                _F(NUME_ORDRE=18,
                   VALE_CALC_C=4.224753072956E-06-1.1788415814938E-06j,
                   VALE_REFE_C=(4.2247999999999998e-06-1.1788e-06j),
                   REFERENCE = 'ANALYTIQUE',
                   PRECISION=1.E-3,
                   RESULTAT=DYNAHARM,
                   NOM_CHAM='DEPL',
                   NOEUD='P4',
                   NOM_CMP='DX',),
                _F(NUME_ORDRE=19,
                   PARA='FREQ',
                   RESULTAT=DYNAHARM,
                   VALE_CALC=14.0,
                   VALE_REFE=14.0,
                   REFERENCE = 'ANALYTIQUE',
                   PRECISION=1.E-3,),
                _F(NUME_ORDRE=19,
                   VALE_CALC_C=6.1039516701523E-06-1.675365287825E-06j,
                   VALE_REFE_C=(6.1040000000000003e-06-1.6754000000000001e-06j),
                   REFERENCE = 'ANALYTIQUE',
                   PRECISION=1.E-3,
                   RESULTAT=DYNAHARM,
                   NOM_CHAM='DEPL',
                   NOEUD='P4',
                   NOM_CMP='DX',),
                _F(NUME_ORDRE=20,
                   PARA='FREQ',
                   RESULTAT=DYNAHARM,
                   VALE_CALC=14.5,
                   VALE_REFE=14.5,
                   REFERENCE = 'ANALYTIQUE',
                   PRECISION=1.E-3,),
                _F(NUME_ORDRE=20,
                   VALE_CALC_C=8.669794120404E-06-2.7560388473741E-06j,
                   VALE_REFE_C=(8.6697999999999996e-06-2.756e-06j),
                   REFERENCE = 'ANALYTIQUE',
                   PRECISION=1.E-3,
                   RESULTAT=DYNAHARM,
                   NOM_CHAM='DEPL',
                   NOEUD='P4',
                   NOM_CMP='DX',),
                _F(NUME_ORDRE=21,
                   PARA='FREQ',
                   RESULTAT=DYNAHARM,
                   VALE_CALC=15.0,
                   VALE_REFE=15.0,
                   REFERENCE = 'ANALYTIQUE',
                   PRECISION=1.E-3,),
                _F(NUME_ORDRE=21,
                   VALE_CALC_C=1.2655560009089E-05-5.6651690110175E-06j,
                   VALE_REFE_C=(1.2656e-05-5.6652000000000004e-06j),
                   REFERENCE = 'ANALYTIQUE',
                   PRECISION=1.E-3,
                   RESULTAT=DYNAHARM,
                   NOM_CHAM='DEPL',
                   NOEUD='P4',
                   NOM_CMP='DX',),
                _F(NUME_ORDRE=22,
                   PARA='FREQ',
                   RESULTAT=DYNAHARM,
                   VALE_CALC=15.5,
                   VALE_REFE=15.5,
                   REFERENCE = 'ANALYTIQUE',
                   PRECISION=1.E-3,),
                _F(NUME_ORDRE=22,
                   VALE_CALC_C=1.7522857525068E-05-1.6501441539264E-05j,
                   VALE_REFE_C=(1.7523000000000001e-05-1.6501e-05j),
                   REFERENCE = 'ANALYTIQUE',
                   PRECISION=1.E-3,
                   RESULTAT=DYNAHARM,
                   NOM_CHAM='DEPL',
                   NOEUD='P4',
                   NOM_CMP='DX',),
                _F(NUME_ORDRE=23,
                   PARA='FREQ',
                   RESULTAT=DYNAHARM,
                   VALE_CALC=16.0,
                   VALE_REFE=16.0,
                   REFERENCE = 'ANALYTIQUE',
                   PRECISION=1.E-3,),
                _F(NUME_ORDRE=23,
                   VALE_CALC_C=-5.8498634827254E-06-3.2133965289749E-05j,
                   VALE_REFE_C=(-5.8498999999999997e-06-3.2134000000000001e-05j),
                   REFERENCE = 'ANALYTIQUE',
                   PRECISION=1.E-3,
                   RESULTAT=DYNAHARM,
                   NOM_CHAM='DEPL',
                   NOEUD='P4',
                   NOM_CMP='DX',),
                _F(NUME_ORDRE=24,
                   PARA='FREQ',
                   RESULTAT=DYNAHARM,
                   VALE_CALC=16.5,
                   VALE_REFE=16.5,
                   REFERENCE = 'ANALYTIQUE',
                   PRECISION=1.E-3,),
                _F(NUME_ORDRE=24,
                   VALE_CALC_C=-1.3739434839412E-05-1.0894331233942E-05j,
                   VALE_REFE_C=(-1.3739e-05-1.0893999999999999e-05j),
                   REFERENCE = 'ANALYTIQUE',
                   PRECISION=1.E-3,
                   RESULTAT=DYNAHARM,
                   NOM_CHAM='DEPL',
                   NOEUD='P4',
                   NOM_CMP='DX',),
                _F(NUME_ORDRE=25,
                   PARA='FREQ',
                   RESULTAT=DYNAHARM,
                   VALE_CALC=17.0,
                   VALE_REFE=17.0,
                   REFERENCE = 'ANALYTIQUE',
                   PRECISION=1.E-3,),
                _F(NUME_ORDRE=25,
                   VALE_CALC_C=-8.5635477667209E-06-4.4698725123758E-06j,
                   VALE_REFE_C=(-8.5635000000000003e-06-4.4699000000000002e-06j),
                   REFERENCE = 'ANALYTIQUE',
                   PRECISION=1.E-3,
                   RESULTAT=DYNAHARM,
                   NOM_CHAM='DEPL',
                   NOEUD='P4',
                   NOM_CMP='DX',),
                _F(NUME_ORDRE=26,
                   PARA='FREQ',
                   RESULTAT=DYNAHARM,
                   VALE_CALC=17.5,
                   VALE_REFE=17.5,
                   REFERENCE = 'ANALYTIQUE',
                   PRECISION=1.E-3,),
                _F(NUME_ORDRE=26,
                   VALE_CALC_C=-5.1695559076605E-06-2.6410631864679E-06j,
                   VALE_REFE_C=(-5.1695999999999996e-06-2.6411e-06j),
                   REFERENCE = 'ANALYTIQUE',
                   PRECISION=1.E-3,
                   RESULTAT=DYNAHARM,
                   NOM_CHAM='DEPL',
                   NOEUD='P4',
                   NOM_CMP='DX',),
                _F(NUME_ORDRE=27,
                   PARA='FREQ',
                   RESULTAT=DYNAHARM,
                   VALE_CALC=18.0,
                   VALE_REFE=18.0,
                   REFERENCE = 'ANALYTIQUE',
                   PRECISION=1.E-3,),
                _F(NUME_ORDRE=27,
                   VALE_CALC_C=-2.8605302043591E-06-2.0414769942989E-06j,
                   VALE_REFE_C=(-2.8605e-06-2.0414999999999999e-06j),
                   REFERENCE = 'ANALYTIQUE',
                   PRECISION=1.E-3,
                   RESULTAT=DYNAHARM,
                   NOM_CHAM='DEPL',
                   NOEUD='P4',
                   NOM_CMP='DX',),
                _F(NUME_ORDRE=28,
                   PARA='FREQ',
                   RESULTAT=DYNAHARM,
                   VALE_CALC=18.5,
                   VALE_REFE=18.5,
                   REFERENCE = 'ANALYTIQUE',
                   PRECISION=1.E-3,),
                _F(NUME_ORDRE=28,
                   VALE_CALC_C=-1.0326291918628E-06-1.9803287423952E-06j,
                   VALE_REFE_C=(-1.0326000000000001e-06-1.9802999999999999e-06j),
                   REFERENCE = 'ANALYTIQUE',
                   PRECISION=1.E-3,
                   RESULTAT=DYNAHARM,
                   NOM_CHAM='DEPL',
                   NOEUD='P4',
                   NOM_CMP='DX',),
                _F(NUME_ORDRE=29,
                   PARA='FREQ',
                   RESULTAT=DYNAHARM,
                   VALE_CALC=19.0,
                   VALE_REFE=19.0,
                   REFERENCE = 'ANALYTIQUE',
                   PRECISION=1.E-3,),
                _F(NUME_ORDRE=29,
                   VALE_CALC_C=6.3985806233747E-07-2.3904902323258E-06j,
                   VALE_REFE_C=(6.3985999999999996e-07-2.3904999999999998e-06j),
                   REFERENCE = 'ANALYTIQUE',
                   PRECISION=1.E-3,
                   RESULTAT=DYNAHARM,
                   NOM_CHAM='DEPL',
                   NOEUD='P4',
                   NOM_CMP='DX',),
                _F(NUME_ORDRE=30,
                   PARA='FREQ',
                   RESULTAT=DYNAHARM,
                   VALE_CALC=19.5,
                   VALE_REFE=19.5,
                   REFERENCE = 'ANALYTIQUE',
                   PRECISION=1.E-3,),
                _F(NUME_ORDRE=30,
                   VALE_CALC_C=2.273993653775E-06-3.6314032677318E-06j,
                   VALE_REFE_C=(2.2740000000000002e-06-3.6314000000000001e-06j),
                   REFERENCE = 'ANALYTIQUE',
                   PRECISION=1.E-3,
                   RESULTAT=DYNAHARM,
                   NOM_CHAM='DEPL',
                   NOEUD='P4',
                   NOM_CMP='DX',),
                _F(NUME_ORDRE=31,
                   PARA='FREQ',
                   RESULTAT=DYNAHARM,
                   VALE_CALC=20.0,
                   VALE_REFE=20.0,
                   REFERENCE = 'ANALYTIQUE',
                   PRECISION=1.E-3,),
                _F(NUME_ORDRE=31,
                   VALE_CALC_C=2.9784578709701E-06-6.6970057857683E-06j,
                   VALE_REFE_C=(2.9784000000000001e-06-6.6969999999999996e-06j),
                   REFERENCE = 'ANALYTIQUE',
                   PRECISION=1.E-3,
                   RESULTAT=DYNAHARM,
                   NOM_CHAM='DEPL',
                   NOEUD='P4',
                   NOM_CMP='DX',),
                _F(NUME_ORDRE=32,
                   PARA='FREQ',
                   RESULTAT=DYNAHARM,
                   VALE_CALC=20.5,
                   VALE_REFE=20.5,
                   REFERENCE = 'ANALYTIQUE',
                   PRECISION=1.E-3,),
                _F(NUME_ORDRE=32,
                   VALE_CALC_C=-1.0530779913444E-06-9.4322898510477E-06j,
                   VALE_REFE_C=(-1.0530999999999999e-06-9.4322999999999995e-06j),
                   REFERENCE = 'ANALYTIQUE',
                   PRECISION=1.E-3,
                   RESULTAT=DYNAHARM,
                   NOM_CHAM='DEPL',
                   NOEUD='P4',
                   NOM_CMP='DX',),
                _F(NUME_ORDRE=33,
                   PARA='FREQ',
                   RESULTAT=DYNAHARM,
                   VALE_CALC=21.0,
                   VALE_REFE=21.0,
                   REFERENCE = 'ANALYTIQUE',
                   PRECISION=1.E-3,),
                _F(NUME_ORDRE=33,
                   VALE_CALC_C=-4.0342152954544E-06-5.9996983031354E-06j,
                   VALE_REFE_C=(-4.0342000000000003e-06-5.9997000000000003e-06j),
                   REFERENCE = 'ANALYTIQUE',
                   PRECISION=1.E-3,
                   RESULTAT=DYNAHARM,
                   NOM_CHAM='DEPL',
                   NOEUD='P4',
                   NOM_CMP='DX',),
                _F(NUME_ORDRE=34,
                   PARA='FREQ',
                   RESULTAT=DYNAHARM,
                   VALE_CALC=21.5,
                   VALE_REFE=21.5,
                   REFERENCE = 'ANALYTIQUE',
                   PRECISION=1.E-3,),
                _F(NUME_ORDRE=34,
                   VALE_CALC_C=-3.0491716188724E-06-3.4873220358937E-06j,
                   VALE_REFE_C=(-3.0492e-06-3.4873000000000001e-06j),
                   REFERENCE = 'ANALYTIQUE',
                   PRECISION=1.E-3,
                   RESULTAT=DYNAHARM,
                   NOM_CHAM='DEPL',
                   NOEUD='P4',
                   NOM_CMP='DX',),
                _F(NUME_ORDRE=35,
                   PARA='FREQ',
                   RESULTAT=DYNAHARM,
                   VALE_CALC=22.0,
                   VALE_REFE=22.0,
                   REFERENCE = 'ANALYTIQUE',
                   PRECISION=1.E-3,),
                _F(NUME_ORDRE=35,
                   VALE_CALC_C=-1.6223555107082E-06-2.6025363366546E-06j,
                   VALE_REFE_C=(-1.6223999999999999e-06-2.6025000000000001e-06j),
                   REFERENCE = 'ANALYTIQUE',
                   PRECISION=1.E-3,
                   RESULTAT=DYNAHARM,
                   NOM_CHAM='DEPL',
                   NOEUD='P4',
                   NOM_CMP='DX',),
                _F(NUME_ORDRE=36,
                   PARA='FREQ',
                   RESULTAT=DYNAHARM,
                   VALE_CALC=22.5,
                   VALE_REFE=22.5,
                   REFERENCE = 'ANALYTIQUE',
                   PRECISION=1.E-3,),
                _F(NUME_ORDRE=36,
                   VALE_CALC_C=-3.3364112349026E-07-2.4805628615701E-06j,
                   VALE_REFE_C=(-3.3364000000000002e-07-2.4806e-06j),
                   REFERENCE = 'ANALYTIQUE',
                   PRECISION=1.E-3,
                   RESULTAT=DYNAHARM,
                   NOM_CHAM='DEPL',
                   NOEUD='P4',
                   NOM_CMP='DX',),
                _F(NUME_ORDRE=37,
                   PARA='FREQ',
                   RESULTAT=DYNAHARM,
                   VALE_CALC=23.0,
                   VALE_REFE=23.0,
                   REFERENCE = 'ANALYTIQUE',
                   PRECISION=1.E-3,),
                _F(NUME_ORDRE=37,
                   VALE_CALC_C=8.2095281710387E-07-2.8985555446858E-06j,
                   VALE_REFE_C=(8.2094999999999995e-07-2.8986000000000001e-06j),
                   REFERENCE = 'ANALYTIQUE',
                   PRECISION=1.E-3,
                   RESULTAT=DYNAHARM,
                   NOM_CHAM='DEPL',
                   NOEUD='P4',
                   NOM_CMP='DX',),
                _F(NUME_ORDRE=38,
                   PARA='FREQ',
                   RESULTAT=DYNAHARM,
                   VALE_CALC=23.5,
                   VALE_REFE=23.5,
                   REFERENCE = 'ANALYTIQUE',
                   PRECISION=1.E-3,),
                _F(NUME_ORDRE=38,
                   VALE_CALC_C=1.7037523432232E-06-3.978818579454E-06j,
                   VALE_REFE_C=(1.7038000000000001e-06-3.9787999999999999e-06j),
                   REFERENCE = 'ANALYTIQUE',
                   PRECISION=1.E-3,
                   RESULTAT=DYNAHARM,
                   NOM_CHAM='DEPL',
                   NOEUD='P4',
                   NOM_CMP='DX',),
                _F(NUME_ORDRE=39,
                   PARA='FREQ',
                   RESULTAT=DYNAHARM,
                   VALE_CALC=24.0,
                   VALE_REFE=24.0,
                   REFERENCE = 'ANALYTIQUE',
                   PRECISION=1.E-3,),
                _F(NUME_ORDRE=39,
                   VALE_CALC_C=1.5551022180617E-06-5.7272706753997E-06j,
                   VALE_REFE_C=(1.5550999999999999e-06-5.7273000000000002e-06j),
                   REFERENCE = 'ANALYTIQUE',
                   PRECISION=1.E-3,
                   RESULTAT=DYNAHARM,
                   NOM_CHAM='DEPL',
                   NOEUD='P4',
                   NOM_CMP='DX',),
                _F(NUME_ORDRE=40,
                   PARA='FREQ',
                   RESULTAT=DYNAHARM,
                   VALE_CALC=24.5,
                   VALE_REFE=24.5,
                   REFERENCE = 'ANALYTIQUE',
                   PRECISION=1.E-3,),
                _F(NUME_ORDRE=40,
                   VALE_CALC_C=-2.5261245278762E-07-6.4754859987732E-06j,
                   VALE_REFE_C=(-2.5260999999999998e-07-6.4755000000000001e-06j),
                   REFERENCE = 'ANALYTIQUE',
                   PRECISION=1.E-3,
                   RESULTAT=DYNAHARM,
                   NOM_CHAM='DEPL',
                   NOEUD='P4',
                   NOM_CMP='DX',),
                _F(NUME_ORDRE=41,
                   PARA='FREQ',
                   RESULTAT=DYNAHARM,
                   VALE_CALC=25.0,
                   VALE_REFE=25.0,
                   REFERENCE = 'ANALYTIQUE',
                   PRECISION=1.E-3,),
                _F(NUME_ORDRE=41,
                   VALE_CALC_C=-1.2536281332466E-06-5.2703349829302E-06j,
                   VALE_REFE_C=(-1.2535999999999999e-06-5.2703000000000002e-06j),
                   REFERENCE = 'ANALYTIQUE',
                   PRECISION=1.E-3,
                   RESULTAT=DYNAHARM,
                   NOM_CHAM='DEPL',
                   NOEUD='P4',
                   NOM_CMP='DX',),
                _F(NUME_ORDRE=42,
                   PARA='FREQ',
                   RESULTAT=DYNAHARM,
                   VALE_CALC=25.5,
                   VALE_REFE=25.5,
                   REFERENCE = 'ANALYTIQUE',
                   PRECISION=1.E-3,),
                _F(NUME_ORDRE=42,
                   VALE_CALC_C=-7.1494768950671E-07-4.3406829773608E-06j,
                   VALE_REFE_C=(-7.1495000000000003e-07-4.3406999999999998e-06j),
                   REFERENCE = 'ANALYTIQUE',
                   PRECISION=1.E-3,
                   RESULTAT=DYNAHARM,
                   NOM_CHAM='DEPL',
                   NOEUD='P4',
                   NOM_CMP='DX',),
                _F(NUME_ORDRE=43,
                   PARA='FREQ',
                   RESULTAT=DYNAHARM,
                   VALE_CALC=26.0,
                   VALE_REFE=26.0,
                   REFERENCE = 'ANALYTIQUE',
                   PRECISION=1.E-3,),
                _F(NUME_ORDRE=43,
                   VALE_CALC_C=2.337230102839E-07-4.3608329553888E-06j,
                   VALE_REFE_C=(2.3372e-07-4.3607999999999998e-06j),
                   REFERENCE = 'ANALYTIQUE',
                   PRECISION=1.E-3,
                   RESULTAT=DYNAHARM,
                   NOM_CHAM='DEPL',
                   NOEUD='P4',
                   NOM_CMP='DX',),
                _F(NUME_ORDRE=44,
                   PARA='FREQ',
                   RESULTAT=DYNAHARM,
                   VALE_CALC=26.5,
                   VALE_REFE=26.5,
                   REFERENCE = 'ANALYTIQUE',
                   PRECISION=1.E-3,),
                _F(NUME_ORDRE=44,
                   VALE_CALC_C=9.5924041843684E-07-5.2519523598673E-06j,
                   VALE_REFE_C=(9.5923000000000005e-07-5.2519999999999999e-06j),
                   REFERENCE = 'ANALYTIQUE',
                   PRECISION=1.E-3,
                   RESULTAT=DYNAHARM,
                   NOM_CHAM='DEPL',
                   NOEUD='P4',
                   NOM_CMP='DX',),
                _F(NUME_ORDRE=45,
                   PARA='FREQ',
                   RESULTAT=DYNAHARM,
                   VALE_CALC=27.0,
                   VALE_REFE=27.0,
                   REFERENCE = 'ANALYTIQUE',
                   PRECISION=1.E-3,),
                _F(NUME_ORDRE=45,
                   VALE_CALC_C=7.9298852637911E-07-6.8122167963033E-06j,
                   VALE_REFE_C=(7.9298000000000005e-07-6.8121999999999998e-06j),
                   REFERENCE = 'ANALYTIQUE',
                   PRECISION=1.E-3,
                   RESULTAT=DYNAHARM,
                   NOM_CHAM='DEPL',
                   NOEUD='P4',
                   NOM_CMP='DX',),
                _F(NUME_ORDRE=46,
                   PARA='FREQ',
                   RESULTAT=DYNAHARM,
                   VALE_CALC=27.5,
                   VALE_REFE=27.5,
                   REFERENCE = 'ANALYTIQUE',
                   PRECISION=1.E-3,),
                _F(NUME_ORDRE=46,
                   VALE_CALC_C=-8.4713829620497E-07-7.934687052864E-06j,
                   VALE_REFE_C=(-8.4713999999999995e-07-7.9347000000000004e-06j),
                   REFERENCE = 'ANALYTIQUE',
                   PRECISION=1.E-3,
                   RESULTAT=DYNAHARM,
                   NOM_CHAM='DEPL',
                   NOEUD='P4',
                   NOM_CMP='DX',),
                _F(NUME_ORDRE=47,
                   PARA='FREQ',
                   RESULTAT=DYNAHARM,
                   VALE_CALC=28.0,
                   VALE_REFE=28.0,
                   REFERENCE = 'ANALYTIQUE',
                   PRECISION=1.E-3,),
                _F(NUME_ORDRE=47,
                   VALE_CALC_C=-2.6973829295036E-06-7.2919271073124E-06j,
                   VALE_REFE_C=(-2.6973999999999998e-06-7.2918999999999996e-06j),
                   REFERENCE = 'ANALYTIQUE',
                   PRECISION=1.E-3,
                   RESULTAT=DYNAHARM,
                   NOM_CHAM='DEPL',
                   NOEUD='P4',
                   NOM_CMP='DX',),
                _F(NUME_ORDRE=48,
                   PARA='FREQ',
                   RESULTAT=DYNAHARM,
                   VALE_CALC=28.5,
                   VALE_REFE=28.5,
                   REFERENCE = 'ANALYTIQUE',
                   PRECISION=1.E-3,),
                _F(NUME_ORDRE=48,
                   VALE_CALC_C=-3.1995659690698E-06-5.9399473472314E-06j,
                   VALE_REFE_C=(-3.1995999999999998e-06-5.9398999999999997e-06j),
                   REFERENCE = 'ANALYTIQUE',
                   PRECISION=1.E-3,
                   RESULTAT=DYNAHARM,
                   NOM_CHAM='DEPL',
                   NOEUD='P4',
                   NOM_CMP='DX',),
                _F(NUME_ORDRE=49,
                   PARA='FREQ',
                   RESULTAT=DYNAHARM,
                   VALE_CALC=29.0,
                   VALE_REFE=29.0,
                   REFERENCE = 'ANALYTIQUE',
                   PRECISION=1.E-3,),
                _F(NUME_ORDRE=49,
                   VALE_CALC_C=-2.8147386797329E-06-5.1537212688926E-06j,
                   VALE_REFE_C=(-2.8146999999999999e-06-5.1537000000000003e-06j),
                   REFERENCE = 'ANALYTIQUE',
                   PRECISION=1.E-3,
                   RESULTAT=DYNAHARM,
                   NOM_CHAM='DEPL',
                   NOEUD='P4',
                   NOM_CMP='DX',),
                _F(NUME_ORDRE=50,
                   PARA='FREQ',
                   RESULTAT=DYNAHARM,
                   VALE_CALC=29.5,
                   VALE_REFE=29.5,
                   REFERENCE = 'ANALYTIQUE',
                   PRECISION=1.E-3,),
                _F(NUME_ORDRE=50,
                   VALE_CALC_C=-2.3146488639867E-06-5.0767877136615E-06j,
                   VALE_REFE_C=(-2.3147e-06-5.0768000000000002e-06j),
                   REFERENCE = 'ANALYTIQUE',
                   PRECISION=1.E-3,
                   RESULTAT=DYNAHARM,
                   NOM_CHAM='DEPL',
                   NOEUD='P4',
                   NOM_CMP='DX',),
                _F(NUME_ORDRE=51,
                   PARA='FREQ',
                   RESULTAT=DYNAHARM,
                   VALE_CALC=30.0,
                   VALE_REFE=30.0,
                   REFERENCE = 'ANALYTIQUE',
                   PRECISION=1.E-3,),
                _F(NUME_ORDRE=51,
                   VALE_CALC_C=-2.0904181609571E-06-5.4820513634737E-06j,
                   VALE_REFE_C=(-2.0903999999999999e-06-5.4821000000000004e-06j),
                   REFERENCE = 'ANALYTIQUE',
                   PRECISION=1.E-3,
                   RESULTAT=DYNAHARM,
                   NOM_CHAM='DEPL',
                   NOEUD='P4',
                   NOM_CMP='DX',),
                _F(NUME_ORDRE=52,
                   PARA='FREQ',
                   RESULTAT=DYNAHARM,
                   VALE_CALC=30.5,
                   VALE_REFE=30.5,
                   REFERENCE = 'ANALYTIQUE',
                   PRECISION=1.E-3,),
                _F(NUME_ORDRE=52,
                   VALE_CALC_C=-2.3394279717457E-06-6.1527627906137E-06j,
                   VALE_REFE_C=(-2.3394e-06-6.1527999999999998e-06j),
                   REFERENCE = 'ANALYTIQUE',
                   PRECISION=1.E-3,
                   RESULTAT=DYNAHARM,
                   NOM_CHAM='DEPL',
                   NOEUD='P4',
                   NOM_CMP='DX',),
                _F(NUME_ORDRE=53,
                   PARA='FREQ',
                   RESULTAT=DYNAHARM,
                   VALE_CALC=31.0,
                   VALE_REFE=31.0,
                   REFERENCE = 'ANALYTIQUE',
                   PRECISION=1.E-3,),
                _F(NUME_ORDRE=53,
                   VALE_CALC_C=-3.291326772468E-06-6.7391569609334E-06j,
                   VALE_REFE_C=(-3.2913000000000001e-06-6.7391000000000004e-06j),
                   REFERENCE = 'ANALYTIQUE',
                   PRECISION=1.E-3,
                   RESULTAT=DYNAHARM,
                   NOM_CHAM='DEPL',
                   NOEUD='P4',
                   NOM_CMP='DX',),
                _F(NUME_ORDRE=54,
                   PARA='FREQ',
                   RESULTAT=DYNAHARM,
                   VALE_CALC=31.5,
                   VALE_REFE=31.5,
                   REFERENCE = 'ANALYTIQUE',
                   PRECISION=1.E-3,),
                _F(NUME_ORDRE=54,
                   VALE_CALC_C=-4.7524838949414E-06-6.5640494252492E-06j,
                   VALE_REFE_C=(-4.7524999999999998e-06-6.5640000000000002e-06j),
                   REFERENCE = 'ANALYTIQUE',
                   PRECISION=1.E-3,
                   RESULTAT=DYNAHARM,
                   NOM_CHAM='DEPL',
                   NOEUD='P4',
                   NOM_CMP='DX',),
                _F(NUME_ORDRE=55,
                   PARA='FREQ',
                   RESULTAT=DYNAHARM,
                   VALE_CALC=32.0,
                   VALE_REFE=32.0,
                   REFERENCE = 'ANALYTIQUE',
                   PRECISION=1.E-3,),
                _F(NUME_ORDRE=55,
                   VALE_CALC_C=-5.869333203395E-06-5.4893685285232E-06j,
                   VALE_REFE_C=(-5.8692999999999999e-06-5.4894000000000003e-06j),
                   REFERENCE = 'ANALYTIQUE',
                   PRECISION=1.E-3,
                   RESULTAT=DYNAHARM,
                   NOM_CHAM='DEPL',
                   NOEUD='P4',
                   NOM_CMP='DX',),
                _F(NUME_ORDRE=56,
                   PARA='FREQ',
                   RESULTAT=DYNAHARM,
                   VALE_CALC=32.5,
                   VALE_REFE=32.5,
                   REFERENCE = 'ANALYTIQUE',
                   PRECISION=1.E-3,),
                _F(NUME_ORDRE=56,
                   VALE_CALC_C=-6.2230038952978E-06-4.170463654932E-06j,
                   VALE_REFE_C=(-6.2230000000000004e-06-4.1705000000000001e-06j),
                   REFERENCE = 'ANALYTIQUE',
                   PRECISION=1.E-3,
                   RESULTAT=DYNAHARM,
                   NOM_CHAM='DEPL',
                   NOEUD='P4',
                   NOM_CMP='DX',),
                _F(NUME_ORDRE=57,
                   PARA='FREQ',
                   RESULTAT=DYNAHARM,
                   VALE_CALC=33.0,
                   VALE_REFE=33.0,
                   REFERENCE = 'ANALYTIQUE',
                   PRECISION=1.E-3,),
                _F(NUME_ORDRE=57,
                   VALE_CALC_C=-6.0631799020285E-06-3.0850780127727E-06j,
                   VALE_REFE_C=(-6.0631999999999998e-06-3.0850999999999999e-06j),
                   REFERENCE = 'ANALYTIQUE',
                   PRECISION=1.E-3,
                   RESULTAT=DYNAHARM,
                   NOM_CHAM='DEPL',
                   NOEUD='P4',
                   NOM_CMP='DX',),
                _F(NUME_ORDRE=58,
                   PARA='FREQ',
                   RESULTAT=DYNAHARM,
                   VALE_CALC=33.5,
                   VALE_REFE=33.5,
                   REFERENCE = 'ANALYTIQUE',
                   PRECISION=1.E-3,),
                _F(NUME_ORDRE=58,
                   VALE_CALC_C=-5.6979557955018E-06-2.3074546060576E-06j,
                   VALE_REFE_C=(-5.6980000000000003e-06-2.3074999999999999e-06j),
                   REFERENCE = 'ANALYTIQUE',
                   PRECISION=1.E-3,
                   RESULTAT=DYNAHARM,
                   NOM_CHAM='DEPL',
                   NOEUD='P4',
                   NOM_CMP='DX',),
                _F(NUME_ORDRE=59,
                   PARA='FREQ',
                   RESULTAT=DYNAHARM,
                   VALE_CALC=34.0,
                   VALE_REFE=34.0,
                   REFERENCE = 'ANALYTIQUE',
                   PRECISION=1.E-3,),
                _F(NUME_ORDRE=59,
                   VALE_CALC_C=-5.28868189779E-06-1.7678236841611E-06j,
                   VALE_REFE_C=(-5.2886999999999999e-06-1.7678e-06j),
                   REFERENCE = 'ANALYTIQUE',
                   PRECISION=1.E-3,
                   RESULTAT=DYNAHARM,
                   NOM_CHAM='DEPL',
                   NOEUD='P4',
                   NOM_CMP='DX',),
                _F(NUME_ORDRE=60,
                   PARA='FREQ',
                   RESULTAT=DYNAHARM,
                   VALE_CALC=34.5,
                   VALE_REFE=34.5,
                   REFERENCE = 'ANALYTIQUE',
                   PRECISION=1.E-3,),
                _F(NUME_ORDRE=60,
                   VALE_CALC_C=-4.8979676008427E-06-1.3898855433933E-06j,
                   VALE_REFE_C=(-4.8980000000000004e-06-1.3899e-06j),
                   REFERENCE = 'ANALYTIQUE',
                   PRECISION=1.E-3,
                   RESULTAT=DYNAHARM,
                   NOM_CHAM='DEPL',
                   NOEUD='P4',
                   NOM_CMP='DX',),
                _F(NUME_ORDRE=61,
                   PARA='FREQ',
                   RESULTAT=DYNAHARM,
                   VALE_CALC=35.0,
                   VALE_REFE=35.0,
                   REFERENCE = 'ANALYTIQUE',
                   PRECISION=1.E-3,),
                _F(NUME_ORDRE=61,
                   VALE_CALC_C=-4.5447365700246E-06-1.1190362941364E-06j,
                   VALE_REFE_C=(-4.5446999999999999e-06-1.119e-06j),
                   REFERENCE = 'ANALYTIQUE',
                   PRECISION=1.E-3,
                   RESULTAT=DYNAHARM,
                   NOM_CHAM='DEPL',
                   NOEUD='P4',
                   NOM_CMP='DX',),
                _F(NUME_ORDRE=62,
                   PARA='FREQ',
                   RESULTAT=DYNAHARM,
                   VALE_CALC=35.5,
                   VALE_REFE=35.5,
                   REFERENCE = 'ANALYTIQUE',
                   PRECISION=1.E-3,),
                _F(NUME_ORDRE=62,
                   VALE_CALC_C=-4.231301387582E-06-9.1981776149555E-07j,
                   VALE_REFE_C=(-4.2312999999999996e-06-9.1981999999999999e-07j),
                   REFERENCE = 'ANALYTIQUE',
                   PRECISION=1.E-3,
                   RESULTAT=DYNAHARM,
                   NOM_CHAM='DEPL',
                   NOEUD='P4',
                   NOM_CMP='DX',),
                _F(NUME_ORDRE=63,
                   PARA='FREQ',
                   RESULTAT=DYNAHARM,
                   VALE_CALC=36.0,
                   VALE_REFE=36.0,
                   REFERENCE = 'ANALYTIQUE',
                   PRECISION=1.E-3,),
                _F(NUME_ORDRE=63,
                   VALE_CALC_C=-3.9543849234233E-06-7.6957339595252E-07j,
                   VALE_REFE_C=(-3.9543999999999998e-06-7.6957000000000003e-07j),
                   REFERENCE = 'ANALYTIQUE',
                   PRECISION=1.E-3,
                   RESULTAT=DYNAHARM,
                   NOM_CHAM='DEPL',
                   NOEUD='P4',
                   NOM_CMP='DX',),
                _F(NUME_ORDRE=64,
                   PARA='FREQ',
                   RESULTAT=DYNAHARM,
                   VALE_CALC=36.5,
                   VALE_REFE=36.5,
                   REFERENCE = 'ANALYTIQUE',
                   PRECISION=1.E-3,),
                _F(NUME_ORDRE=64,
                   VALE_CALC_C=-3.7093022147866E-06-6.536600731769E-07j,
                   VALE_REFE_C=(-3.7092999999999998e-06-6.5366000000000004e-07j),
                   REFERENCE = 'ANALYTIQUE',
                   PRECISION=1.E-3,
                   RESULTAT=DYNAHARM,
                   NOM_CHAM='DEPL',
                   NOEUD='P4',
                   NOM_CMP='DX',),
                _F(NUME_ORDRE=65,
                   PARA='FREQ',
                   RESULTAT=DYNAHARM,
                   VALE_CALC=37.0,
                   VALE_REFE=37.0,
                   REFERENCE = 'ANALYTIQUE',
                   PRECISION=1.E-3,),
                _F(NUME_ORDRE=65,
                   VALE_CALC_C=-3.4914521925112E-06-5.624119168413E-07j,
                   VALE_REFE_C=(-3.4914999999999999e-06-5.6240999999999997e-07j),
                   REFERENCE = 'ANALYTIQUE',
                   PRECISION=1.E-3,
                   RESULTAT=DYNAHARM,
                   NOM_CHAM='DEPL',
                   NOEUD='P4',
                   NOM_CMP='DX',),
                _F(NUME_ORDRE=66,
                   PARA='FREQ',
                   RESULTAT=DYNAHARM,
                   VALE_CALC=37.5,
                   VALE_REFE=37.5,
                   REFERENCE = 'ANALYTIQUE',
                   PRECISION=1.E-3,),
                _F(NUME_ORDRE=66,
                   VALE_CALC_C=-3.2967805836289E-06-4.8929467186048E-07j,
                   VALE_REFE_C=(-3.2967999999999999e-06-4.8930000000000002e-07j),
                   REFERENCE = 'ANALYTIQUE',
                   PRECISION=1.E-3,
                   RESULTAT=DYNAHARM,
                   NOM_CHAM='DEPL',
                   NOEUD='P4',
                   NOM_CMP='DX',),
                _F(NUME_ORDRE=67,
                   PARA='FREQ',
                   RESULTAT=DYNAHARM,
                   VALE_CALC=38.0,
                   VALE_REFE=38.0,
                   REFERENCE = 'ANALYTIQUE',
                   PRECISION=1.E-3,),
                _F(NUME_ORDRE=67,
                   VALE_CALC_C=-3.1218609241263E-06-4.2978524731868E-07j,
                   VALE_REFE_C=(-3.1219000000000001e-06-4.2978999999999999e-07j),
                   REFERENCE = 'ANALYTIQUE',
                   PRECISION=1.E-3,
                   RESULTAT=DYNAHARM,
                   NOM_CHAM='DEPL',
                   NOEUD='P4',
                   NOM_CMP='DX',),
                _F(NUME_ORDRE=68,
                   PARA='FREQ',
                   RESULTAT=DYNAHARM,
                   VALE_CALC=38.5,
                   VALE_REFE=38.5,
                   REFERENCE = 'ANALYTIQUE',
                   PRECISION=1.E-3,),
                _F(NUME_ORDRE=68,
                   VALE_CALC_C=-2.9638441351624E-06-3.8068184639966E-07j,
                   VALE_REFE_C=(-2.9637999999999999e-06-3.8067999999999999e-07j),
                   REFERENCE = 'ANALYTIQUE',
                   PRECISION=1.E-3,
                   RESULTAT=DYNAHARM,
                   NOM_CHAM='DEPL',
                   NOEUD='P4',
                   NOM_CMP='DX',),
                _F(NUME_ORDRE=69,
                   PARA='FREQ',
                   RESULTAT=DYNAHARM,
                   VALE_CALC=39.0,
                   VALE_REFE=39.0,
                   REFERENCE = 'ANALYTIQUE',
                   PRECISION=1.E-3,),
                _F(NUME_ORDRE=69,
                   VALE_CALC_C=-2.8203724767854E-06-3.3967065128286E-07j,
                   VALE_REFE_C=(-2.8204000000000001e-06-3.3967000000000002e-07j),
                   REFERENCE = 'ANALYTIQUE',
                   PRECISION=1.E-3,
                   RESULTAT=DYNAHARM,
                   NOM_CHAM='DEPL',
                   NOEUD='P4',
                   NOM_CMP='DX',),
                _F(NUME_ORDRE=70,
                   PARA='FREQ',
                   RESULTAT=DYNAHARM,
                   VALE_CALC=39.5,
                   VALE_REFE=39.5,
                   REFERENCE = 'ANALYTIQUE',
                   PRECISION=1.E-3,),
                _F(NUME_ORDRE=70,
                   VALE_CALC_C=-2.6894930085005E-06-3.05047669495E-07j,
                   VALE_REFE_C=(-2.6894999999999998e-06-3.0505e-07j),
                   REFERENCE = 'ANALYTIQUE',
                   PRECISION=1.E-3,
                   RESULTAT=DYNAHARM,
                   NOM_CHAM='DEPL',
                   NOEUD='P4',
                   NOM_CMP='DX',),
                _F(NUME_ORDRE=71,
                   PARA='FREQ',
                   RESULTAT=DYNAHARM,
                   VALE_CALC=40.0,
                   VALE_REFE=40.0,
                   REFERENCE = 'ANALYTIQUE',
                   PRECISION=1.E-3,),
                _F(NUME_ORDRE=71,
                   VALE_CALC_C=-2.5695819023967E-06-2.7553626268966E-07j,
                   VALE_REFE_C=(-2.5695999999999999e-06-2.7553999999999999e-07j),
                   REFERENCE = 'ANALYTIQUE',
                   PRECISION=1.E-3,
                   RESULTAT=DYNAHARM,
                   NOM_CHAM='DEPL',
                   NOEUD='P4',
                   NOM_CMP='DX',),
                ),
          )

FIN( )
#
