# TITRE VALIDATION DE PROJ_MESU_MODAL: CAS DISCRET, BASE (MODE_MECA)
# ======================================================================
# COPYRIGHT (C) 1991 - 2012  EDF R&D                  WWW.CODE-ASTER.ORG
# THIS PROGRAM IS FREE SOFTWARE; YOU CAN REDISTRIBUTE IT AND/OR MODIFY
# IT UNDER THE TERMS OF THE GNU GENERAL PUBLIC LICENSE AS PUBLISHED BY
# THE FREE SOFTWARE FOUNDATION; EITHER VERSION 2 OF THE LICENSE, OR
# (AT YOUR OPTION) ANY LATER VERSION.
#
# THIS PROGRAM IS DISTRIBUTED IN THE HOPE THAT IT WILL BE USEFUL, BUT
# WITHOUT ANY WARRANTY; WITHOUT EVEN THE IMPLIED WARRANTY OF
# MERCHANTABILITY OR FITNESS FOR A PARTICULAR PURPOSE. SEE THE GNU
# GENERAL PUBLIC LICENSE FOR MORE DETAILS.
#
# YOU SHOULD HAVE RECEIVED A COPY OF THE GNU GENERAL PUBLIC LICENSE
# ALONG WITH THIS PROGRAM; IF NOT, WRITE TO EDF R&D CODE_ASTER,
#    1 AVENUE DU GENERAL DE GAULLE, 92141 CLAMART CEDEX, FRANCE.
# ======================================================================
#
######################################################################
#
#         *** VALIDATION DE LA COMMANDE PROJ_MESU_MODAL ***
#
# SYSTEME A 2 MASSES - 3 RESSORTS ENCASTRE - ENCASTRE
#    - M1 = M2 = M = 10 KG
#    - K1 = K2 = K3 = K = 1000 N/M
#
# REPONSE TRANSITOIRE A UN EFFORT SINUSOIDAL APPLIQUE SUR UNE MASSE
#    - PAS D'AMORTISSEMENT
#    - F = SIN (WT)  DE FREQUENCE 2 HZ
#
# PROJECTION SUR UN CONCEPT MODE_MECA CREE PAR CALC_MODES

#
######################################################################
#
DEBUT(CODE=_F(NIV_PUB_WEB='INTERNET'), DEBUG=_F(SDVERI='OUI'))

#
# DEFINITION DU MODELE NUMERIQUE
# ==============================
#
MAIL=LIRE_MAILLAGE(UNITE=20)

#
MODEL=AFFE_MODELE(   MAILLAGE=MAIL,
                           AFFE=_F( TOUT = 'OUI',
                                 PHENOMENE = 'MECANIQUE',
                                 MODELISATION = 'DIS_T')         )

#
CARAELEM=AFFE_CARA_ELEM(    MODELE=MODEL,DISCRET=(
                             _F( MAILLE = ('P1','P2',),
                                      CARA = 'M_T_D_N',
                                      VALE = 10.),
                             _F( MAILLE = ('P1','P2',),
                                      CARA = 'K_T_D_N',
                                      VALE = (0.,0.,0.)),
                             _F( MAILLE = ('M1','M2','M3',),
                                      CARA = 'K_T_D_L',
                                      VALE = (1000., 1000., 1000.,))) )

#
BLOCAGE=AFFE_CHAR_MECA(     MODELE=MODEL,DDL_IMPO=(
                           _F( TOUT = 'OUI',     DY = 0., DZ = 0.),
                           _F( NOEUD = ('N1', 'N4',),  DX = 0.))       )

#
RIGIELEM=CALC_MATR_ELEM(      MODELE=MODEL,
                             CARA_ELEM=CARAELEM,
                                CHARGE=BLOCAGE,
                               OPTION='RIGI_MECA'                  )

#
MASSELEM=CALC_MATR_ELEM(      MODELE=MODEL,
                             CARA_ELEM=CARAELEM,
                                CHARGE=BLOCAGE,
                               OPTION='MASS_MECA'                  )

#
NU=NUME_DDL(   MATR_RIGI=RIGIELEM                                )

#
RIGIASSE=ASSE_MATRICE(    MATR_ELEM=RIGIELEM,
                             NUME_DDL=NU                           )

#
MASSASSE=ASSE_MATRICE(    MATR_ELEM=MASSELEM,
                             NUME_DDL=NU                           )

#
MODES=CALC_MODES(MATR_RIGI=RIGIASSE,
                 OPTION='BANDE',
                 CALC_FREQ=_F(FREQ=(1.,3.,),
                              ),
                 MATR_MASS=MASSASSE,
                 SOLVEUR_MODAL=_F(METHODE='TRI_DIAG',
                                  ),
                 )

#
# DEFINITION DU MAILLAGE DE MESURE
# ================================
#
PRE_IDEAS( UNITE_IDEAS=33, UNITE_MAILLAGE = 21 )

#
MAILMESU=LIRE_MAILLAGE(UNITE=21)


#
MODLMESU=AFFE_MODELE(   MAILLAGE=MAILMESU,AFFE=(
                              _F( MAILLE = ('M1','M2',),
                                    PHENOMENE = 'MECANIQUE',
                                    MODELISATION = 'DIS_T'),
                              _F( NOEUD = ('N2','N3',),
                                    PHENOMENE = 'MECANIQUE',
                                    MODELISATION = 'DIS_T'))        )

#
MESURE=LIRE_RESU(FORMAT='IDEAS_DS58',
                 UNITE=33,
                 MAILLAGE=MAILMESU,
                 TYPE_RESU='DYNA_TRANS',
                 NOM_CHAM=('DEPL','VITE','SIEF_NOEU',),
              #   NOM_CHAM='DEPL',
                 REDEFI_ORIENT=(_F(CODE_DIR=1,
                                   DIRECTION=(1.,1.,0.),
                                   NOEUD=('N3',),),),
                 TOUT_ORDRE='OUI',)
#
# PROJECTION DES MESURES SUR LA BASE MODALE DU MODELE
# ===================================================
#
REPGENE=PROJ_MESU_MODAL(
                         MODELE_CALCUL=_F( MODELE = MODEL,
                                    BASE = MODES,),
                         MODELE_MESURE=_F( MODELE = MODLMESU,
                                    MESURE = MESURE,
#                                    NOM_PARA = 'INST',
                                    NOM_CHAM = 'DEPL',),
                         RESOLUTION=_F( REGUL = 'NORM_MIN',
                                    COEF_PONDER = 0.,),       )
#
# RESTITUTION DES RESULTATS
# =========================
#
REPONSE=REST_GENE_PHYS(   RESU_GENE=REPGENE,
                           TOUT_CHAM='OUI'                          )

#
# TEST DES RESULTATS
# ==================
TEST_RESU(RESU=(_F(NUME_ORDRE=100,
                   RESULTAT=REPONSE,
                   NOM_CHAM='DEPL',
                   NOEUD='N2',
                   NOM_CMP='DX',
                   VALE_CALC= 1.74511000E-04,
                   VALE_REFE=1.7450000000000001E-4,
                   REFERENCE='ANALYTIQUE',
                   CRITERE='RELATIF',
                   PRECISION=1.E-2,),
                _F(NUME_ORDRE=300,
                   RESULTAT=REPONSE,
                   NOM_CHAM='DEPL',
                   NOEUD='N2',
                   NOM_CMP='DX',
                   VALE_CALC= 6.79743000E-04,
                   VALE_REFE=6.7969999999999999E-4,
                   REFERENCE='ANALYTIQUE',
                   CRITERE='RELATIF',
                   PRECISION=1.E-2,),
                _F(NUME_ORDRE=500,
                   RESULTAT=REPONSE,
                   NOM_CHAM='DEPL',
                   NOEUD='N2',
                   NOM_CMP='DX',
                   VALE_CALC=-1.21708000E-03,
                   VALE_REFE=-1.217E-3,
                   REFERENCE='ANALYTIQUE',
                   CRITERE='RELATIF',
                   PRECISION=1.E-2,),
                _F(NUME_ORDRE=700,
                   RESULTAT=REPONSE,
                   NOM_CHAM='DEPL',
                   NOEUD='N2',
                   NOM_CMP='DX',
                   VALE_CALC= 5.21365000E-04,
                   VALE_REFE=5.2139999999999999E-4,
                   REFERENCE='ANALYTIQUE',
                   CRITERE='RELATIF',
                   PRECISION=1.E-2,),
                _F(NUME_ORDRE=900,
                   RESULTAT=REPONSE,
                   NOM_CHAM='DEPL',
                   NOEUD='N2',
                   NOM_CMP='DX',
                   VALE_CALC= 9.03102000E-04,
                   VALE_REFE=9.031E-4,
                   REFERENCE='ANALYTIQUE',
                   CRITERE='RELATIF',
                   PRECISION=1.E-2,),
                _F(NUME_ORDRE=100,
                   RESULTAT=REPONSE,
                   NOM_CHAM='DEPL',
                   NOEUD='N3',
                   NOM_CMP='DX',
                   VALE_CALC= 9.15417610E-06,
                   VALE_REFE=9.1540000000000008E-06,
                   REFERENCE='ANALYTIQUE',
                   CRITERE='RELATIF',
                   PRECISION=1.E-2,),
                _F(NUME_ORDRE=300,
                   RESULTAT=REPONSE,
                   NOM_CHAM='DEPL',
                   NOEUD='N3',
                   NOM_CMP='DX',
                   VALE_CALC= 6.41399591E-04,
                   VALE_REFE=6.4139999999999998E-4,
                   REFERENCE='ANALYTIQUE',
                   CRITERE='RELATIF',
                   PRECISION=1.E-2,),
                _F(NUME_ORDRE=500,
                   RESULTAT=REPONSE,
                   NOM_CHAM='DEPL',
                   NOEUD='N3',
                   NOM_CMP='DX',
                   VALE_CALC=-8.63634767E-04,
                   VALE_REFE=-8.6359999999999996E-4,
                   REFERENCE='ANALYTIQUE',
                   CRITERE='RELATIF',
                   PRECISION=1.E-2,),
                _F(NUME_ORDRE=700,
                   RESULTAT=REPONSE,
                   NOM_CHAM='DEPL',
                   NOEUD='N3',
                   NOM_CMP='DX',
                   VALE_CALC=-1.10739003E-04,
                   VALE_REFE=-1.1069999999999999E-4,
                   REFERENCE='ANALYTIQUE',
                   CRITERE='RELATIF',
                   PRECISION=1.E-2,),
                _F(NUME_ORDRE=900,
                   RESULTAT=REPONSE,
                   NOM_CHAM='DEPL',
                   NOEUD='N3',
                   NOM_CMP='DX',
                   VALE_CALC= 1.63333181E-03,
                   VALE_REFE=1.6329999999999999E-3,
                   REFERENCE='ANALYTIQUE',
                   CRITERE='RELATIF',
                   PRECISION=1.E-2,),
                _F(NUME_ORDRE=100,
                   RESULTAT=REPONSE,
                   NOM_CHAM='VITE',
                   NOEUD='N2',
                   NOM_CMP='DX',
                   VALE_CALC= 4.61600000E-03,
                   VALE_REFE=4.5859999999999998E-3,
                   REFERENCE='ANALYTIQUE',
                   CRITERE='RELATIF',
                   PRECISION=1.E-2,),
                _F(NUME_ORDRE=300,
                   RESULTAT=REPONSE,
                   NOM_CHAM='VITE',
                   NOEUD='N2',
                   NOM_CMP='DX',
                   VALE_CALC=-7.66300000E-03,
                   VALE_REFE=-7.5979999999999997E-3,
                   REFERENCE='ANALYTIQUE',
                   CRITERE='RELATIF',
                   PRECISION=1.E-2,),
                _F(NUME_ORDRE=500,
                   RESULTAT=REPONSE,
                   NOM_CHAM='VITE',
                   NOEUD='N2',
                   NOM_CMP='DX',
                   VALE_CALC=-8.E-5,
                   VALE_REFE=-8.E-5,
                   PRECISION=1.E-4,
                   REFERENCE='ANALYTIQUE',
                   CRITERE='ABSOLU',
                   ),
                _F(NUME_ORDRE=700,
                   RESULTAT=REPONSE,
                   NOM_CHAM='VITE',
                   NOEUD='N2',
                   NOM_CMP='DX',
                   VALE_CALC= 9.35400000E-03,
                   VALE_REFE=9.3819999999999997E-3,
                   REFERENCE='ANALYTIQUE',
                   CRITERE='RELATIF',
                   PRECISION=1.E-2,),
                _F(NUME_ORDRE=900,
                   RESULTAT=REPONSE,
                   NOM_CHAM='VITE',
                   NOEUD='N2',
                   NOM_CMP='DX',
                   VALE_CALC=-7.53700000E-03,
                   VALE_REFE=-7.4809999999999998E-3,
                   REFERENCE='ANALYTIQUE',
                   CRITERE='RELATIF',
                   PRECISION=1.E-2,),
                _F(NUME_ORDRE=100,
                   RESULTAT=REPONSE,
                   NOM_CHAM='VITE',
                   NOEUD='N3',
                   NOM_CMP='DX',
                   VALE_CALC= 4.40541667E-04,
                   VALE_REFE=4.328E-4,
                   REFERENCE='ANALYTIQUE',
                   CRITERE='RELATIF',
                   PRECISION=0.017999999999999999,),
                _F(NUME_ORDRE=300,
                   RESULTAT=REPONSE,
                   NOM_CHAM='VITE',
                   NOEUD='N3',
                   NOM_CMP='DX',
                   VALE_CALC= 3.64018571E-03,
                   VALE_REFE=3.6709999999999998E-3,
                   REFERENCE='ANALYTIQUE',
                   CRITERE='RELATIF',
                   PRECISION=1.E-2,),
                _F(NUME_ORDRE=500,
                   RESULTAT=REPONSE,
                   NOM_CHAM='VITE',
                   NOEUD='N3',
                   NOM_CMP='DX',
                   VALE_CALC=-0.015359774,
                   VALE_REFE=-0.015389999999999999,
                   REFERENCE='ANALYTIQUE',
                   CRITERE='RELATIF',
                   PRECISION=1.E-2,),
                _F(NUME_ORDRE=700,
                   RESULTAT=REPONSE,
                   NOM_CHAM='VITE',
                   NOEUD='N3',
                   NOM_CMP='DX',
                   VALE_CALC=0.024567577,
                   VALE_REFE=0.02453,
                   REFERENCE='ANALYTIQUE',
                   CRITERE='RELATIF',
                   PRECISION=1.E-2,),
                _F(NUME_ORDRE=900,
                   RESULTAT=REPONSE,
                   NOM_CHAM='VITE',
                   NOEUD='N3',
                   NOM_CMP='DX',
                   VALE_CALC=-0.019120167,
                   VALE_REFE=-0.01899,
                   REFERENCE='ANALYTIQUE',
                   CRITERE='RELATIF',
                   PRECISION=1.E-2,),
                _F(NUME_ORDRE=100,
                   RESULTAT=REPONSE,
                   NOM_CHAM='ACCE',
                   NOEUD='N2',
                   NOM_CMP='DX',
                   VALE_CALC=0.061000000,
                   VALE_REFE=0.061120000000000001,
                   REFERENCE='ANALYTIQUE',
                   CRITERE='RELATIF',
                   PRECISION=1.E-2,),
                _F(NUME_ORDRE=300,
                   RESULTAT=REPONSE,
                   NOM_CHAM='ACCE',
                   NOEUD='N2',
                   NOM_CMP='DX',
                   VALE_CALC=-0.130000000,
                   VALE_REFE=-0.13059999999999999,
                   REFERENCE='ANALYTIQUE',
                   CRITERE='RELATIF',
                   PRECISION=1.E-2,),
                _F(NUME_ORDRE=500,
                   RESULTAT=REPONSE,
                   NOM_CHAM='ACCE',
                   NOEUD='N2',
                   NOM_CMP='DX',
                   VALE_CALC=0.160000000,
                   VALE_REFE=0.15709999999999999,
                   REFERENCE='ANALYTIQUE',
                   CRITERE='RELATIF',
                   PRECISION=0.019,),
                _F(NUME_ORDRE=700,
                   RESULTAT=REPONSE,
                   NOM_CHAM='ACCE',
                   NOEUD='N2',
                   NOM_CMP='DX',
                   VALE_CALC=-0.058000000,
                   VALE_REFE=-0.056570000000000002,
                   REFERENCE='ANALYTIQUE',
                   CRITERE='RELATIF',
                   PRECISION=0.025999999999999999,),
                _F(NUME_ORDRE=900,
                   RESULTAT=REPONSE,
                   NOM_CHAM='ACCE',
                   NOEUD='N2',
                   NOM_CMP='DX',
                   VALE_CALC=-0.113000000,
                   VALE_REFE=-0.1124,
                   REFERENCE='ANALYTIQUE',
                   CRITERE='RELATIF',
                   PRECISION=1.E-2,),
                _F(NUME_ORDRE=100,
                   RESULTAT=REPONSE,
                   NOM_CHAM='ACCE',
                   NOEUD='N3',
                   NOM_CMP='DX',
                   VALE_CALC=0.016178603,
                   VALE_REFE=0.01562,
                   REFERENCE='ANALYTIQUE',
                   CRITERE='RELATIF',
                   PRECISION=0.035999999999999997,),
                _F(NUME_ORDRE=300,
                   RESULTAT=REPONSE,
                   NOM_CHAM='ACCE',
                   NOEUD='N3',
                   NOM_CMP='DX',
                   VALE_CALC=-0.062225397,
                   VALE_REFE=-0.060310000000000002,
                   REFERENCE='ANALYTIQUE',
                   CRITERE='RELATIF',
                   PRECISION=0.032000000000000001,),
                _F(NUME_ORDRE=500,
                   RESULTAT=REPONSE,
                   NOM_CHAM='ACCE',
                   NOEUD='N3',
                   NOM_CMP='DX',
                   VALE_CALC=0.053740115,
                   VALE_REFE=0.051020000000000003,
                   REFERENCE='ANALYTIQUE',
                   CRITERE='RELATIF',
                   PRECISION=0.053999999999999999,),
                _F(NUME_ORDRE=700,
                   RESULTAT=REPONSE,
                   NOM_CHAM='ACCE',
                   NOEUD='N3',
                   NOM_CMP='DX',
                   VALE_CALC=0.070427835,
                   VALE_REFE=0.074279999999999999,
                   REFERENCE='ANALYTIQUE',
                   CRITERE='RELATIF',
                   PRECISION=0.051999999999999998,),
                _F(NUME_ORDRE=900,
                   RESULTAT=REPONSE,
                   NOM_CHAM='ACCE',
                   NOEUD='N3',
                   NOM_CMP='DX',
                   VALE_CALC=-0.226274170,
                   VALE_REFE=-0.2364,
                   REFERENCE='ANALYTIQUE',
                   CRITERE='RELATIF',
                   PRECISION=0.042999999999999997,),
                ),
          )

#
FIN()
#
