# MODIF  DATE 30/07/2012   AUTEUR LEFEBVRE J-P.LEFEBVRE 
# TITRE SYSTEME MAS RES A 8 DDL (AMORTISSEMENT VISQ. PROPORTION.)
# sdld22b.para = tps_job 60 mem_job 256Mo ncpus 1 liste_test R
#            CONFIGURATION MANAGEMENT OF EDF VERSION
# ======================================================================
# COPYRIGHT (C) 1991 - 2012  EDF R&D                  WWW.CODE-ASTER.ORG
# THIS PROGRAM IS FREE SOFTWARE; YOU CAN REDISTRIBUTE IT AND/OR MODIFY
# IT UNDER THE TERMS OF THE GNU GENERAL PUBLIC LICENSE AS PUBLISHED BY
# THE FREE SOFTWARE FOUNDATION; EITHER VERSION 2 OF THE LICENSE, OR
# (AT YOUR OPTION) ANY LATER VERSION.
#
# THIS PROGRAM IS DISTRIBUTED IN THE HOPE THAT IT WILL BE USEFUL, BUT
# WITHOUT ANY WARRANTY; WITHOUT EVEN THE IMPLIED WARRANTY OF
# MERCHANTABILITY OR FITNESS FOR A PARTICULAR PURPOSE. SEE THE GNU
# GENERAL PUBLIC LICENSE FOR MORE DETAILS.
#
# YOU SHOULD HAVE RECEIVED A COPY OF THE GNU GENERAL PUBLIC LICENSE
# ALONG WITH THIS PROGRAM; IF NOT, WRITE TO EDF R&D CODE_ASTER,
#    1 AVENUE DU GENERAL DE GAULLE, 92141 CLAMART CEDEX, FRANCE.
# ======================================================================
#      1) DYNAMIQUE TRANSITOIRE BASE MODALE
#      2) DYNAMIQUE TRANSITOIRE DIRECT

DEBUT(CODE=_F(NOM='SDLD22B', NIV_PUB_WEB='INTERNET'), DEBUG=_F(SDVERI='NON'))

#

RESSORT=LIRE_MAILLAGE( )

#

MODELE=AFFE_MODELE(  MAILLAGE=RESSORT,
                       AFFE=_F(  TOUT = 'OUI', PHENOMENE = 'MECANIQUE',
                              MODELISATION = 'DIS_TR') )

#
CHAMPCAR=AFFE_CARA_ELEM(  MODELE=MODELE,DISCRET=(

                _F(  MAILLE = ('E1', 'E2', 'E3', 'E4', 'E5', 'E6', 'E7', 'E8', ),
                          CARA = 'K_TR_D_L',
                          VALE = (1.E5, 0., 0., 0., 0., 0.,)),

                _F(  MAILLE = ('E1', 'E2', 'E3', 'E4', 'E5', 'E6', 'E7', 'E8', ),
                          CARA = 'M_TR_L',
                          VALE = (0., 0., 0., 0., 0., 0., 0., 0., 0., 0.,
                                  0., 0., 0., 0., 0., 0., 0., 0., 0., 0.,
                                  0., 0., 0., 0., 0., 0., 0., 0., 0., 0.,
                                  0., 0., 0., 0., 0., 0., 0., 0., 0., 0.,
                                  0., 0., 0., 0., 0., 0., 0., 0., 0., 0.,
                                  0., 0., 0., 0., 0., 0., 0., 0., 0., 0.,
                                  0., 0., 0., 0., 0., 0., 0., 0., 0., 0.,
                                  0., 0., 0., 0., 0., 0., 0., 0., )),

                _F(  MAILLE = ('E1', 'E2', 'E3', 'E4', 'E5', 'E6', 'E7', 'E8', ),
                          CARA = 'A_TR_L',
                          VALE = (0., 0., 0., 0., 0., 0., 0., 0., 0., 0.,
                                  0., 0., 0., 0., 0., 0., 0., 0., 0., 0.,
                                  0., 0., 0., 0., 0., 0., 0., 0., 0., 0.,
                                  0., 0., 0., 0., 0., 0., 0., 0., 0., 0.,
                                  0., 0., 0., 0., 0., 0., 0., 0., 0., 0.,
                                  0., 0., 0., 0., 0., 0., 0., 0., 0., 0.,
                                  0., 0., 0., 0., 0., 0., 0., 0., 0., 0.,
                                  0., 0., 0., 0., 0., 0., 0., 0., )),

                _F(  MAILLE = ('E9', ),
                          CARA = 'K_TR_L',
                          VALE = (1.E5,    0., 0., 0., 0., 0., 0., 0.,   0., 0.,
                                  0.,    0., 0., 0., 0., 0., 0., 0.,   0., 0.,
                                  0., -1.E5, 0., 0., 0., 0., 0., 1.E5, 0., 0.,
                                  0.,    0., 0., 0., 0., 0., 0., 0.,   0., 0.,
                                  0.,    0., 0., 0., 0., 0., 0., 0.,   0., 0.,
                                  0.,    0., 0., 0., 0., 0., 0., 0.,   0., 0.,
                                  0.,    0., 0., 0., 0., 0., 0., 0.,   0., 0.,
                                  0.,    0., 0., 0., 0., 0., 0., 0.,      )),

                _F(  GROUP_MA = 'AMOR_L',
                          CARA = 'A_TR_D_L',
                          VALE = ( 50., 0., 0., 0., 0., 0., )),

                _F(  MAILLE = 'E8',
                          CARA = 'A_TR_L',
                          VALE = ( 50.,   0., 0., 0., 0., 0., 0., 0.,  0., 0.,
                                  0.,   0., 0., 0., 0., 0., 0., 0.,  0., 0.,
                                  0., -50., 0., 0., 0., 0., 0., 50., 0., 0.,
                                  0.,   0., 0., 0., 0., 0., 0., 0.,  0., 0.,
                                  0.,   0., 0., 0., 0., 0., 0., 0.,  0., 0.,
                                  0.,   0., 0., 0., 0., 0., 0., 0.,  0., 0.,
                                  0.,   0., 0., 0., 0., 0., 0., 0.,  0., 0.,
                                  0.,   0., 0., 0., 0., 0., 0., 0.,      )),

                _F(  MAILLE = 'P1',
                          CARA = 'A_TR_D_N',
                          VALE = ( 50., 0., 0., 0., 0., 0.,            )),

                _F(  MAILLE = 'P8',
                          CARA = 'A_TR_N',
                          VALE = ( 50., 0., 0., 0., 0., 0., 0., 0., 0., 0.,
                                  0., 0., 0., 0., 0., 0., 0., 0., 0., 0.,
                                  0.,                           )),

                _F(  GROUP_MA = 'P',
                          CARA = 'M_TR_D_N',
                          VALE = ( 10., 0., 0., 0., 0., 0., 0., 0., 0., 0.,)),

                _F(  MAILLE = ( 'E9', ),
                          CARA = 'M_TR_L',
                          VALE = ( 10., 0., 10., 0., 0., 10., 0., 0.,  0., 0.,
                                  0., 0., 0.,  0., 0., 0.,  0., 0.,  0., 0.,
                                  0., 0., 0.,  0., 0., 0.,  0., 10., 0., 0.,
                                  0., 0., 0.,  0., 0., 10., 0., 0.,  0., 0.,
                                  0., 0., 0.,  0., 10., 0., 0., 0.,  0., 0.,
                                  0., 0., 0.,  0., 0., 0.,  0., 0.,  0., 0.,
                                  0., 0., 0.,  0., 0., 0.,  0., 0.,  0., 0.,
                                  0., 0., 0.,  0., 0., 0.,  0., 0.,      )))
                        )

#
CHARGE=AFFE_CHAR_MECA(  MODELE=MODELE,DDL_IMPO=(
                         _F(  TOUT = 'OUI',
                                    DY = 0., DZ = 0., DRX = 0., DRY = 0., DRZ = 0.),
                                  _F(  NOEUD = ('N1','N10',),  DX = 0.))  )

EFFORT=AFFE_CHAR_MECA(  MODELE=MODELE,
                         FORCE_NODALE=_F(  NOEUD = 'N5', FX = 1.)  )

RIGIELEM=CALC_MATR_ELEM(  MODELE=MODELE,       OPTION='RIGI_MECA',
                            CARA_ELEM=CHAMPCAR,  CHARGE=CHARGE     )

MASSELEM=CALC_MATR_ELEM(  MODELE=MODELE,  OPTION='MASS_MECA_DIAG',
                            CARA_ELEM=CHAMPCAR,  CHARGE=CHARGE     )

AMORELEM=CALC_MATR_ELEM(  MODELE=MODELE,       OPTION='AMOR_MECA',
                            CARA_ELEM=CHAMPCAR,  CHARGE=CHARGE     )

EFFOELEM=CALC_VECT_ELEM(  OPTION='CHAR_MECA',
                            CARA_ELEM=CHAMPCAR,  CHARGE=EFFORT     )

NUMEROTA=NUME_DDL(  MATR_RIGI=RIGIELEM,
                      METHODE='LDLT',
                     RENUM='SANS')

MATRRIGI=ASSE_MATRICE(  MATR_ELEM=RIGIELEM,  NUME_DDL=NUMEROTA )

MATRMASS=ASSE_MATRICE(  MATR_ELEM=MASSELEM,  NUME_DDL=NUMEROTA )

MATRAMOR=ASSE_MATRICE(  MATR_ELEM=AMORELEM,  NUME_DDL=NUMEROTA )

VECTASS=ASSE_VECTEUR(  VECT_ELEM=EFFOELEM,  NUME_DDL=NUMEROTA )

#
#-------------------------------------------------
# DEFINITION DES INSTANTS DE CALCUL DE LA SOLUTION
#-------------------------------------------------
#

L_INST=( 0.090,  0.184,  0.272,  0.365,  0.455,  0.544,  0.633,  0.724,
             0.812,  0.904,  0.993,  1.089,  1.182,  1.271,  1.362,  1.452, )

LISTR8=DEFI_LIST_REEL(  VALE=L_INST )

# LISTR8 = DEFI_LIST_REEL( DEBUT: 0.09
#                          INTERVALLE:( JUSQU_A: 0.27 , NOMBRE: 2 )
#                                     ( JUSQU_A: 0.37 , NOMBRE: 1 )
#                                     ( JUSQU_A: 0.46 , NOMBRE: 1 )
#                                     ( JUSQU_A: 0.54 , NOMBRE: 1 )
#                                     ( JUSQU_A: 1.08 , NOMBRE: 6 )
#                                     ( JUSQU_A: 1.18 , NOMBRE: 1 )
#                                     ( JUSQU_A: 1.45 , NOMBRE: 3 ) ) ;
#
#
#-----------------------
# FONCTION D'EXCITATION
#-----------------------
#
FONCTIO1=DEFI_FONCTION(  NOM_PARA='INST',  NOM_RESU='ALPHA',
                          VALE=( 0., 1.,  1., 1.,  1.0000001, 0., ),
                          PROL_DROITE='CONSTANT'               )

#
#-----------------------------------------------------------------
#             TRANSITOIRE MODAL SCHEMA EULER
#-----------------------------------------------------------------
#
MODES=MODE_ITER_INV(  MATR_A=MATRRIGI,  MATR_B=MATRMASS,
                       CALC_FREQ=_F(  OPTION = 'AJUSTE',
                       FREQ = ( 5.,10.,15.,20.,24.,27.,30.,32.,)) )

PROJ_BASE(  BASE=MODES,
            STOCKAGE = 'PLEIN',
            MATR_ASSE_GENE=(
             _F(
                             MATRICE = CO("MASSEGEN"),
                             MATR_ASSE = MATRMASS),
             _F(
                             MATRICE = CO("RIGIDGEN"),
                             MATR_ASSE = MATRRIGI),
             _F(
                             MATRICE = CO("AMORTGEN"),
                             MATR_ASSE = MATRAMOR,),),
             VECT_ASSE_GENE=_F(
                             VECTEUR = CO("EFFOGENE"),
                             VECT_ASSE = VECTASS) )

DYNMOD_E=DYNA_VIBRA(TYPE_CALCUL='TRAN',BASE_CALCUL='GENE',
                            SCHEMA_TEMPS=_F(SCHEMA='EULER',),
                            MATR_MASS=MASSEGEN,
                             MATR_RIGI=RIGIDGEN,
                             MATR_AMOR=AMORTGEN,
                            EXCIT=_F(  VECT_ASSE_GENE = EFFOGENE,
                                    FONC_MULT = FONCTIO1),
                             INCREMENT=_F(  INST_INIT = 0.,
                                         INST_FIN = 1.5,  PAS = 0.001)
                          )

DEPTRAN1=REST_GENE_PHYS(  RESU_GENE=DYNMOD_E,  NOM_CHAM='DEPL',
                            LIST_INST=LISTR8,    INTERPOL='LIN'  )

TEST_RESU(RESU=(
           _F(  RESULTAT = DEPTRAN1, NUME_ORDRE = 1, NOM_CHAM = 'DEPL',
             NOEUD = 'N5', NOM_CMP = 'DX', PRECISION = 0.005, VALE = 4.02E-5),

           _F(  RESULTAT = DEPTRAN1, NUME_ORDRE = 2, NOM_CHAM = 'DEPL',
             NOEUD = 'N5', NOM_CMP = 'DX', PRECISION = 0.060, VALE = 4.22E-6),

           _F(  RESULTAT = DEPTRAN1, NUME_ORDRE = 3, NOM_CHAM = 'DEPL',
             NOEUD = 'N5', NOM_CMP = 'DX', PRECISION = 0.005, VALE = 3.89E-5),

           _F(  RESULTAT = DEPTRAN1, NUME_ORDRE = 4, NOM_CHAM = 'DEPL',
             NOEUD = 'N5', NOM_CMP = 'DX', PRECISION = 0.040, VALE = 5.98E-6),

           _F(  RESULTAT = DEPTRAN1, NUME_ORDRE = 5, NOM_CHAM = 'DEPL',
             NOEUD = 'N5', NOM_CMP = 'DX', PRECISION = 0.005, VALE = 3.73E-5),

           _F(  RESULTAT = DEPTRAN1, NUME_ORDRE = 6, NOM_CHAM = 'DEPL',
             NOEUD = 'N5', NOM_CMP = 'DX', PRECISION = 0.030, VALE = 7.14E-6),

           _F(  RESULTAT = DEPTRAN1, NUME_ORDRE = 7, NOM_CHAM = 'DEPL',
             NOEUD = 'N5', NOM_CMP = 'DX', PRECISION = 0.005, VALE = 3.64E-5),

           _F(  RESULTAT = DEPTRAN1, NUME_ORDRE = 8, NOM_CHAM = 'DEPL',
             NOEUD = 'N5', NOM_CMP = 'DX', PRECISION = 0.020, VALE = 8.07E-6),

           _F(  RESULTAT = DEPTRAN1, NUME_ORDRE = 9, NOM_CHAM = 'DEPL',
             NOEUD = 'N5', NOM_CMP = 'DX', PRECISION = 0.005, VALE = 3.58E-5),

           _F(  RESULTAT = DEPTRAN1, NUME_ORDRE = 10, NOM_CHAM = 'DEPL',
             NOEUD = 'N5', NOM_CMP = 'DX', PRECISION = 0.020, VALE = 8.76E-6),

           _F(  RESULTAT = DEPTRAN1, NUME_ORDRE = 11, NOM_CHAM = 'DEPL',
             NOEUD = 'N5', NOM_CMP = 'DX', PRECISION = 0.005, VALE = 3.52E-5),

           _F(  RESULTAT = DEPTRAN1, NUME_ORDRE = 12, NOM_CHAM = 'DEPL',
             NOEUD = 'N5', NOM_CMP = 'DX', PRECISION = 0.005, VALE = -3.08E-5),

           _F(  RESULTAT = DEPTRAN1, NUME_ORDRE = 13, NOM_CHAM = 'DEPL',
             NOEUD = 'N5', NOM_CMP = 'DX', PRECISION = 0.005, VALE = 3.02E-5),

           _F(  RESULTAT = DEPTRAN1, NUME_ORDRE = 14, NOM_CHAM = 'DEPL',
             NOEUD = 'N5', NOM_CMP = 'DX', PRECISION = 0.005, VALE = -2.88E-5),

           _F(  RESULTAT = DEPTRAN1, NUME_ORDRE = 15, NOM_CHAM = 'DEPL',
             NOEUD = 'N5', NOM_CMP = 'DX', PRECISION = 0.005, VALE = 2.80E-5),

           _F(  RESULTAT = DEPTRAN1, NUME_ORDRE = 16, NOM_CHAM = 'DEPL',
             NOEUD = 'N5', NOM_CMP = 'DX', PRECISION = 0.005, VALE = -2.65E-5))
           )

#
#-----------------------------------------------------------------
#       TRANSITOIRE MODAL SCHEMA EULER ADAPTATIF (ADAPT_ORDRE1)
#-----------------------------------------------------------------
#

DYNMOD_A=DYNA_VIBRA(TYPE_CALCUL='TRAN',BASE_CALCUL='GENE',
                            SCHEMA_TEMPS=_F(SCHEMA='ADAPT_ORDRE1',),
                            MATR_MASS=MASSEGEN,
                            MATR_RIGI=RIGIDGEN,
                            MATR_AMOR=AMORTGEN,
                            EXCIT=_F(  VECT_ASSE_GENE = EFFOGENE,
                                    FONC_MULT = FONCTIO1),
                            INCREMENT=_F( INST_INIT = 0., INST_FIN = 1.5,
                                          PAS=0.0001,),
                            ARCHIVAGE=_F(  PAS_ARCH = 1))

DEPTRAN2=REST_GENE_PHYS(  RESU_GENE=DYNMOD_A,  NOM_CHAM='DEPL',
                            LIST_INST=LISTR8,    INTERPOL='LIN'  )

TEST_RESU(RESU=(
           _F(  RESULTAT = DEPTRAN2, NUME_ORDRE = 1, NOM_CHAM = 'DEPL',
             NOEUD = 'N5', NOM_CMP = 'DX', PRECISION = 0.005, VALE = 4.02E-5),

           _F(  RESULTAT = DEPTRAN2, NUME_ORDRE = 2, NOM_CHAM = 'DEPL',
             NOEUD = 'N5', NOM_CMP = 'DX', PRECISION = 0.060, VALE = 4.22E-6),

           _F(  RESULTAT = DEPTRAN2, NUME_ORDRE = 3, NOM_CHAM = 'DEPL',
             NOEUD = 'N5', NOM_CMP = 'DX', PRECISION = 0.005, VALE = 3.89E-5),

           _F(  RESULTAT = DEPTRAN2, NUME_ORDRE = 4, NOM_CHAM = 'DEPL',
             NOEUD = 'N5', NOM_CMP = 'DX', PRECISION = 0.040, VALE = 5.98E-6),

           _F(  RESULTAT = DEPTRAN2, NUME_ORDRE = 5, NOM_CHAM = 'DEPL',
             NOEUD = 'N5', NOM_CMP = 'DX', PRECISION = 0.005, VALE = 3.73E-5),

           _F(  RESULTAT = DEPTRAN2, NUME_ORDRE = 6, NOM_CHAM = 'DEPL',
             NOEUD = 'N5', NOM_CMP = 'DX', PRECISION = 0.030, VALE = 7.14E-6),

           _F(  RESULTAT = DEPTRAN2, NUME_ORDRE = 7, NOM_CHAM = 'DEPL',
             NOEUD = 'N5', NOM_CMP = 'DX', PRECISION = 0.005, VALE = 3.64E-5),

           _F(  RESULTAT = DEPTRAN2, NUME_ORDRE = 8, NOM_CHAM = 'DEPL',
             NOEUD = 'N5', NOM_CMP = 'DX', PRECISION = 0.020, VALE = 8.07E-6),

           _F(  RESULTAT = DEPTRAN2, NUME_ORDRE = 9, NOM_CHAM = 'DEPL',
             NOEUD = 'N5', NOM_CMP = 'DX', PRECISION = 0.005, VALE = 3.58E-5),

           _F(  RESULTAT = DEPTRAN2, NUME_ORDRE = 10, NOM_CHAM = 'DEPL',
             NOEUD = 'N5', NOM_CMP = 'DX', PRECISION = 0.020, VALE = 8.76E-6),

           _F(  RESULTAT = DEPTRAN2, NUME_ORDRE = 11, NOM_CHAM = 'DEPL',
             NOEUD = 'N5', NOM_CMP = 'DX', PRECISION = 0.005, VALE = 3.52E-5),

           _F(  RESULTAT = DEPTRAN2, NUME_ORDRE = 12, NOM_CHAM = 'DEPL',
             NOEUD = 'N5', NOM_CMP = 'DX', PRECISION = 0.005, VALE = -3.08E-5),

           _F(  RESULTAT = DEPTRAN2, NUME_ORDRE = 13, NOM_CHAM = 'DEPL',
             NOEUD = 'N5', NOM_CMP = 'DX', PRECISION = 0.005, VALE = 3.02E-5),

           _F(  RESULTAT = DEPTRAN2, NUME_ORDRE = 14, NOM_CHAM = 'DEPL',
             NOEUD = 'N5', NOM_CMP = 'DX', PRECISION = 0.005, VALE = -2.88E-5),

           _F(  RESULTAT = DEPTRAN2, NUME_ORDRE = 15, NOM_CHAM = 'DEPL',
             NOEUD = 'N5', NOM_CMP = 'DX', PRECISION = 0.005, VALE = 2.80E-5),

           _F(  RESULTAT = DEPTRAN2, NUME_ORDRE = 16, NOM_CHAM = 'DEPL',
             NOEUD = 'N5', NOM_CMP = 'DX', PRECISION = 0.005, VALE = -2.65E-5))
           )

#
#-----------------------------------------------------------------------
#               TRANSITOIRE DIRECT PAS DE TEMPS ADAPTATIF
#-----------------------------------------------------------------------
#
DYNAADAP=DYNA_VIBRA(TYPE_CALCUL='TRAN',BASE_CALCUL='PHYS',
                            MATR_MASS=MATRMASS,   MATR_RIGI=MATRRIGI,
                            MATR_AMOR=MATRAMOR,
                            SCHEMA_TEMPS=_F(SCHEMA='ADAPT_ORDRE2',),
                            EXCIT=_F(  VECT_ASSE = VECTASS,
                                    FONC_MULT = FONCTIO1),
                            INCREMENT=_F( INST_INIT = 0., INST_FIN = 1.5,
                                          PAS = 0.001,
                                          PAS_MINI = 1E-10, VITE_MIN = ('MAXI',),
                                          ),
                            ARCHIVAGE=_F(  PAS_ARCH = 1))

DEPLADAP=RECU_FONCTION(   NOEUD='N5',   NOM_CMP='DX',   NOM_CHAM='DEPL',
                            RESULTAT=DYNAADAP,  LIST_INST=LISTR8,
                             INTERP_NUME='LIN')

TEST_FONCTION(VALEUR=(
           _F(  FONCTION = DEPLADAP, VALE_PARA = (0.090,),
             PRECISION = 0.005, VALE_REFE = 4.02E-5),

           _F(  FONCTION = DEPLADAP, VALE_PARA = (0.184,),
             PRECISION = 0.060, VALE_REFE = 4.22E-6),

           _F(  FONCTION = DEPLADAP, VALE_PARA = (0.272,),
             PRECISION = 0.005, VALE_REFE = 3.89E-5),

           _F(  FONCTION = DEPLADAP, VALE_PARA = (0.365,),
             PRECISION = 0.040, VALE_REFE = 5.98E-6),

           _F(  FONCTION = DEPLADAP, VALE_PARA = (0.455,),
             PRECISION = 0.005, VALE_REFE = 3.73E-5),

           _F(  FONCTION = DEPLADAP, VALE_PARA = (0.544,),
             PRECISION = 0.030, VALE_REFE = 7.14E-6),

           _F(  FONCTION = DEPLADAP, VALE_PARA = (0.633,),
             PRECISION = 0.005, VALE_REFE = 3.64E-5),

           _F(  FONCTION = DEPLADAP, VALE_PARA = (0.724,),
             PRECISION = 0.020, VALE_REFE = 8.07E-6),

           _F(  FONCTION = DEPLADAP, VALE_PARA = (0.812,),
             PRECISION = 0.005, VALE_REFE = 3.58E-5),

           _F(  FONCTION = DEPLADAP, VALE_PARA = (0.904,),
             PRECISION = 0.020, VALE_REFE = 8.76E-6),

           _F(  FONCTION = DEPLADAP, VALE_PARA = (0.993,),
             PRECISION = 0.005, VALE_REFE = 3.52E-5),

           _F(  FONCTION = DEPLADAP, VALE_PARA = (1.089,),
             PRECISION = 0.005, VALE_REFE = -3.08E-5),

           _F(  FONCTION = DEPLADAP, VALE_PARA = (1.182,),
             PRECISION = 0.005, VALE_REFE = 3.02E-5),

           _F(  FONCTION = DEPLADAP, VALE_PARA = (1.271,),
             PRECISION = 0.005, VALE_REFE = -2.88E-5),

           _F(  FONCTION = DEPLADAP, VALE_PARA = (1.362,),
             PRECISION = 0.005, VALE_REFE = 2.80E-5),

           _F(  FONCTION = DEPLADAP, VALE_PARA = (1.452,),
             PRECISION = 0.005, VALE_REFE = -2.65E-5))
           )

FIN( )
#
