# TITRE  8 MASSES ET 9 RESSORT/AMORTISSEURS SOUS EXCITATION ALEATOIRE
# ======================================================================
# COPYRIGHT (C) 1991 - 2015  EDF R&D                  WWW.CODE-ASTER.ORG
# THIS PROGRAM IS FREE SOFTWARE; YOU CAN REDISTRIBUTE IT AND/OR MODIFY
# IT UNDER THE TERMS OF THE GNU GENERAL PUBLIC LICENSE AS PUBLISHED BY
# THE FREE SOFTWARE FOUNDATION; EITHER VERSION 2 OF THE LICENSE, OR
# (AT YOUR OPTION) ANY LATER VERSION.
#
# THIS PROGRAM IS DISTRIBUTED IN THE HOPE THAT IT WILL BE USEFUL, BUT
# WITHOUT ANY WARRANTY; WITHOUT EVEN THE IMPLIED WARRANTY OF
# MERCHANTABILITY OR FITNESS FOR A PARTICULAR PURPOSE. SEE THE GNU
# GENERAL PUBLIC LICENSE FOR MORE DETAILS.
#
# YOU SHOULD HAVE RECEIVED A COPY OF THE GNU GENERAL PUBLIC LICENSE
# ALONG WITH THIS PROGRAM; IF NOT, WRITE TO EDF R&D CODE_ASTER,
#    1 AVENUE DU GENERAL DE GAULLE, 92141 CLAMART CEDEX, FRANCE.
# ======================================================================
#
#**CAS TEST DU VPCS: ENSEMBLE DE MASSES ET RESSORTS*******************#
#  CALCUL MODAL QUADRATIQUE REEL SYMETRIQUE AVEC TRI_DIAG ET QZ
#
#*********************************************************************#
DEBUT(CODE=_F(NIV_PUB_WEB='INTERNET'),DEBUG=_F(SDVERI='OUI'))

#*********************************************************************#
# *****LECTURE DU MAILLAGE********************************************#
#*********************************************************************#
MA10=LIRE_MAILLAGE( )

MA1=CREA_MAILLAGE(MAILLAGE=MA10,
    CREA_POI1=(
        _F(NOM_GROUP_MA='NOEUDS', NOEUD = ('A','P1','P2','P3','P4','P5','P6','P7','P8','B',),),
    ),
)

#*********************************************************************#
# *****AFFECTATION D ELEMENTS SUR LES MAILLES*************************#
#*********************************************************************#
MO1=AFFE_MODELE(  MAILLAGE=MA1,AFFE=(
       _F(                TOUT = 'OUI',
                            PHENOMENE = 'MECANIQUE',
                            MODELISATION = 'DIS_T'),
       _F(                GROUP_MA='NOEUDS',
                            PHENOMENE = 'MECANIQUE',
                            MODELISATION = 'DIS_T'))
                            )

#*********************************************************************#
# *****CARACTERISTIQUES DES ELEMENTS DE POUTRE ET DE MASSE************#
#*********************************************************************#
CARELEM1=AFFE_CARA_ELEM(   MODELE=MO1,DISCRET=(
     _F(  GROUP_MA='NOEUDS',
               CARA = 'M_T_D_N',
               VALE = (10., )),
     _F(  GROUP_MA='NOEUDS',
               CARA = 'K_T_D_N',
               VALE = (0.,0.,0., )),
     _F(  GROUP_MA='NOEUDS',
               CARA = 'A_T_D_N',
               VALE = (0.,0.,0., )),
     _F(  MAILLE = ('M1', 'M2', 'M3', 'M4', 'M5', 'M6', 'M7', 'M8', 'M9',),
               CARA = 'K_T_D_L',
               VALE = (1.E+5, 0., 0.,)),
     _F(  MAILLE = ('M1', 'M2', 'M3', 'M4', 'M5', 'M6', 'M7', 'M8', 'M9',),
               CARA = 'A_T_D_L',
               VALE = (50., 0., 0.,)))
                         )

#*********************************************************************#
# *****CONDITIONS AUX LIMITES*****************************************#
#*********************************************************************#
CHARGE1=AFFE_CHAR_MECA(
             MODELE=MO1,DDL_IMPO=(
            _F( TOUT = 'OUI',
                     DZ = 0.0,
                     DY = 0.0),
            _F( NOEUD = ('A', 'B',),
                     DX = 0.0))
                                 )

#*********************************************************************#
# *****MATRICES ELEMENTAIRES ET ASSEMBLAGE****************************#
#*********************************************************************#
MELR1=CALC_MATR_ELEM(  MODELE=MO1,
                        CHARGE=CHARGE1,
                       OPTION='RIGI_MECA',
                        CARA_ELEM=CARELEM1  )

MELM1=CALC_MATR_ELEM(  MODELE=MO1,
                        CHARGE=CHARGE1,
                       OPTION='MASS_MECA',
                        CARA_ELEM=CARELEM1  )

MELA1=CALC_MATR_ELEM(  MODELE=MO1,
                        CHARGE=CHARGE1,
                       OPTION='AMOR_MECA',
                        CARA_ELEM=CARELEM1  )

#
NUM1=NUME_DDL(  MATR_RIGI=MELR1 )

MATASSR1=ASSE_MATRICE(MATR_ELEM=MELR1,NUME_DDL=NUM1)

MATASSM1=ASSE_MATRICE(MATR_ELEM=MELM1,NUME_DDL=NUM1)

MATASSA1=ASSE_MATRICE(MATR_ELEM=MELA1,NUME_DDL=NUM1)

#*********************************************************************#
# *****CALCUL DE MODES PROPRES ET IMPRESSION FORMAT IDEAS*************#
#*********************************************************************#

FREQ3=CALC_MODES(MATR_RIGI=MATASSR1,
                 VERI_MODE=_F(SEUIL=1.E-5,
                              ),
                 OPTION='PLUS_PETITE',
                 CALC_FREQ=_F(NMAX_FREQ=8,
                              ),
                 MATR_AMOR=MATASSA1,
                 MATR_MASS=MATASSM1,
                 SOLVEUR_MODAL=_F(METHODE='TRI_DIAG',
                                  ),
                 )

# AVEC QZ + OPTION='PLUS_PETITE' + 'QZ_SIMPLE'
FREQZ=CALC_MODES(MATR_RIGI=MATASSR1,
                 VERI_MODE=_F(SEUIL=1.E-5,
                              ),
                 OPTION='PLUS_PETITE',
                 CALC_FREQ=_F(NMAX_FREQ=8,
                              ),
                 MATR_AMOR=MATASSA1,
                 MATR_MASS=MATASSM1,
                 SOLVEUR_MODAL=_F(TYPE_QZ='QZ_SIMPLE',
                                  METHODE='QZ',
                                  ),
                 )

#*********************************************************************#
# *****LECTURE DE L INTERSPECTRE EXCITATION***************************#
#*********************************************************************#

FINTER=DEFI_FONCTION(
             NOM_PARA='FREQ',
             NOM_RESU='DSP',
         VALE_C=(0., 0., 0., 2.999, 0., 0., 3., 1., 0., 13., 1., 0., 13.0001, 0., 0.,),
             PROL_DROITE='CONSTANT',
             PROL_GAUCHE='CONSTANT'
                        )

INTEREXC=DEFI_INTE_SPEC(    DIMENSION=1,
                PAR_FONCTION=_F(  NUME_ORDRE_I = 1,
                               NUME_ORDRE_J = 1,
                               FONCTION = FINTER)
                          )

#*********************************************************************#
# *****CALCUL D INTERSPECTRES REPONSE*********************************#
#******   DIFFERENTES DISCRETISATIONS*********************************#
#*********************************************************************#

DYNALEA0=DYNA_ALEA_MODAL(
          BASE_MODALE=_F(
             MODE_MECA = FREQ3,
             NUME_ORDRE = (1, 2, 3, 4, 5, 6, 7, 8,),
             AMOR_REDUIT = (0.00868241, 0.01710101, 0.025, 0.03213938,
                      0.03830222, 0.04331851, 0.04698464, 0.0492404,)),
           EXCIT=_F(
             INTE_SPEC = INTEREXC,
             GRANDEUR = 'EFFO',
             NUME_ORDRE_I = 1,
             NUME_ORDRE_J = 1,
             NOEUD = 'P4',
             NOM_CMP = 'DX'),
              REPONSE=_F(
             FREQ_MIN = 4.5259,
             FREQ_MAX = 10.,
             PAS = 1.)
                              )

INTERRE0=REST_SPEC_PHYS(         MODE_MECA=FREQ3,
                                   NUME_ORDRE=(1, 2, 3, 4, 5, 6, 7, 8,),
                               INTE_SPEC_GENE=DYNALEA0,
                                     NOM_CHAM='DEPL',
                                         NOEUD='P4',
                                      NOM_CMP='DX',
                                       OPTION='TOUT_TOUT'   )

REP0=RECU_FONCTION(    INTE_SPEC=INTERRE0,
                  NOEUD_I = 'P4',
                  NOM_CMP_I = 'DX',
                      )

TEST_FONCTION(VALEUR=_F(VALE_CALC=1.059245E-06,
                        VALE_REFE=1.0589999999999999E-06,
                        REFERENCE = 'SOURCE_EXTERNE',
                        PRECISION=1.E-3,
                        VALE_PARA=5.5259,
                        FONCTION=REP0,),
              )

# POUR QZ
DYNALEAZ=DYNA_ALEA_MODAL(
          BASE_MODALE=_F(
             MODE_MECA = FREQZ,
             NUME_ORDRE = (1, 2, 3, 4, 5, 6, 7, 8,),
             AMOR_REDUIT = (0.00868241, 0.01710101, 0.025, 0.03213938,
                      0.03830222, 0.04331851, 0.04698464, 0.0492404,)),
           EXCIT=_F(
             INTE_SPEC = INTEREXC,
             GRANDEUR = 'EFFO',
             NUME_ORDRE_I = 1,
             NUME_ORDRE_J = 1,
             NOEUD = 'P4',
             NOM_CMP = 'DX'),
              REPONSE=_F(
             FREQ_MIN = 4.5259,
             FREQ_MAX = 10.,
             PAS = 1.)
                              )

INTERREZ=REST_SPEC_PHYS(         MODE_MECA=FREQZ,
                                   NUME_ORDRE=(1, 2, 3, 4, 5, 6, 7, 8,),
                               INTE_SPEC_GENE=DYNALEAZ,
                                     NOM_CHAM='DEPL',
                                         GROUP_NO='GR_P4',
                                      NOM_CMP='DX',
                                       OPTION='TOUT_TOUT'   )

REPZ=RECU_FONCTION(    INTE_SPEC=INTERREZ,
                  NOEUD_I = 'P4',
                  NOM_CMP_I = 'DX',
                      )

TEST_FONCTION(VALEUR=_F(VALE_CALC=1.059245E-06,
                        VALE_REFE=1.0589999999999999E-06,
                        REFERENCE = 'SOURCE_EXTERNE',
                        PRECISION=1.E-3,
                        VALE_PARA=5.5259,
                        FONCTION=REPZ,),
              )

#
# PAS FIXE 0.25
#

DYNALEA2=DYNA_ALEA_MODAL(
          BASE_MODALE=_F(
             MODE_MECA = FREQ3,
             NUME_ORDRE = (1, 2, 3, 4, 5, 6, 7, 8,),
             AMOR_REDUIT = (0.00868241, 0.01710101, 0.025, 0.03213938,
                      0.03830222, 0.04331851, 0.04698464, 0.0492404,)),
           EXCIT=_F(
             INTE_SPEC = INTEREXC,
             GRANDEUR = 'EFFO',
             NUME_ORDRE_I = 1,
             NUME_ORDRE_J = 1,
             NOEUD = 'P4',
             NOM_CMP = 'DX'),
              REPONSE=_F(
             FREQ_MIN = 0.,
             FREQ_MAX = 20.,
             PAS = 0.25)
                               )

INTERRE2=REST_SPEC_PHYS(         MODE_MECA=FREQ3,
                                   NUME_ORDRE=(1, 2, 3, 4, 5, 6, 7, 8,),
                               INTE_SPEC_GENE=DYNALEA2,
                                     NOM_CHAM='DEPL',
                                         NOEUD='P4',
                                      NOM_CMP='DX',
                                       OPTION='TOUT_TOUT'   )

#
#  PAS FIXE 0.025
#

DYNALEA4=DYNA_ALEA_MODAL(
          BASE_MODALE=_F(
             MODE_MECA = FREQ3,
             NUME_ORDRE = (1, 2, 3, 4, 5, 6, 7, 8,),
             AMOR_REDUIT = (0.00868241, 0.01710101, 0.025, 0.03213938,
                      0.03830222, 0.04331851, 0.04698464, 0.0492404,)),
           EXCIT=_F(
             INTE_SPEC = INTEREXC,
             GRANDEUR = 'EFFO',
             NUME_ORDRE_I = 1,
             NUME_ORDRE_J = 1,
             NOEUD = 'P4',
             NOM_CMP = 'DX'),
              REPONSE=_F(
             FREQ_MIN = 0.,
             FREQ_MAX = 20.,
             PAS = 0.025)
                             )

INTERRE4=REST_SPEC_PHYS(         MODE_MECA=FREQ3,
                                   NUME_ORDRE=(1, 2, 3, 4, 5, 6, 7, 8,),
                               INTE_SPEC_GENE=DYNALEA4,
                                     NOM_CHAM='DEPL',
                                         NOEUD='P4',
                                      NOM_CMP='DX',
                                       OPTION='TOUT_TOUT'   )

#*********************************************************************#
# *****POST-TRAITEMENT:MOMENTS SPECTRAUX*****************************#
#*********************************************************************#

TABREP2=POST_DYNA_ALEA(INTERSPECTRE=_F(
                             INTE_SPEC=INTERRE2,
                               NOEUD_I='P4',
                             NOM_CMP_I='DX',
                               NOEUD_J='P4',
                             NOM_CMP_J='DX',
                                MOMENT=( 6,  8, )
                        ))



TABREP4=POST_DYNA_ALEA(INTERSPECTRE=_F(
                             INTE_SPEC=INTERRE4,
                               NOEUD_I='P4',
                             NOM_CMP_I='DX',
                               NOEUD_J='P4',
                             NOM_CMP_J='DX',
                                MOMENT=( 6,  8, )
                        ))

#

TEST_TABLE(
           VALE_CALC=4.6779083198853E-07,
           VALE_REFE=4.6779059999999999E-07,
           REFERENCE = 'SOURCE_EXTERNE',
           PRECISION=1.E-3,
           NOM_PARA='LAMBDA_00',
           TABLE=TABREP2,
           FILTRE=(_F(NOM_PARA='NOEUD_I',
                      VALE_K='P4',),
                   _F(NOM_PARA='NOEUD_J',
                      VALE_K='P4',),
                   ),
           )

TEST_TABLE(
           VALE_CALC=1.6136539991913E-05,
           VALE_REFE=1.6136538000000001E-05,
           REFERENCE = 'SOURCE_EXTERNE',
           PRECISION=1.E-3,
           NOM_PARA='LAMBDA_01',
           TABLE=TABREP2,
           FILTRE=(_F(NOM_PARA='NOEUD_I',
                      VALE_K='P4',),
                   _F(NOM_PARA='NOEUD_J',
                      VALE_K='P4',),
                   ),
           )

TEST_TABLE(
           VALE_CALC=5.5802766405876E-04,
           VALE_REFE=5.5802759999999999E-4,
           REFERENCE = 'SOURCE_EXTERNE',
           PRECISION=1.E-3,
           NOM_PARA='LAMBDA_02',
           TABLE=TABREP2,
           FILTRE=(_F(NOM_PARA='NOEUD_I',
                      VALE_K='P4',),
                   _F(NOM_PARA='NOEUD_J',
                      VALE_K='P4',),
                   ),
           )

TEST_TABLE(
           VALE_CALC=0.019351521690199,
           VALE_REFE=0.0193515218,
           REFERENCE = 'SOURCE_EXTERNE',
           PRECISION=1.E-3,
           NOM_PARA='LAMBDA_03',
           TABLE=TABREP2,
           FILTRE=(_F(NOM_PARA='NOEUD_I',
                      VALE_K='P4',),
                   _F(NOM_PARA='NOEUD_J',
                      VALE_K='P4',),
                   ),
           )

TEST_TABLE(
           VALE_CALC=0.67363090810110,
           VALE_REFE=0.67363079999999997,
           REFERENCE = 'SOURCE_EXTERNE',
           PRECISION=1.E-3,
           NOM_PARA='LAMBDA_04',
           TABLE=TABREP2,
           FILTRE=(_F(NOM_PARA='NOEUD_I',
                      VALE_K='P4',),
                   _F(NOM_PARA='NOEUD_J',
                      VALE_K='P4',),
                   ),
           )

TEST_TABLE(
           VALE_CALC=6.8395236090573E-04,
           VALE_REFE=6.8395230000000003E-4,
           REFERENCE = 'SOURCE_EXTERNE',
           PRECISION=1.E-3,
           NOM_PARA='ECART',
           TABLE=TABREP2,
           FILTRE=(_F(NOM_PARA='NOEUD_I',
                      VALE_K='P4',),
                   _F(NOM_PARA='NOEUD_J',
                      VALE_K='P4',),
                   ),
           )

TEST_TABLE(
           VALE_CALC=11.05944327352,
           VALE_REFE=11.0594439,
           REFERENCE = 'SOURCE_EXTERNE',
           PRECISION=1.E-3,
           NOM_PARA='NB_EXTREMA_P_S',
           TABLE=TABREP2,
           FILTRE=(_F(NOM_PARA='NOEUD_I',
                      VALE_K='P4',),
                   _F(NOM_PARA='NOEUD_J',
                      VALE_K='P4',),
                   ),
           )

TEST_TABLE(
           VALE_CALC=10.993909030031,
           VALE_REFE=10.9939097,
           REFERENCE = 'SOURCE_EXTERNE',
           PRECISION=1.E-3,
           NOM_PARA='NB_PASS_ZERO_P_S',
           TABLE=TABREP2,
           FILTRE=(_F(NOM_PARA='NOEUD_I',
                      VALE_K='P4',),
                   _F(NOM_PARA='NOEUD_J',
                      VALE_K='P4',),
                   ),
           )

TEST_TABLE(
           VALE_CALC=5.4969545150154,
           VALE_REFE=5.4969548399999999,
           REFERENCE = 'SOURCE_EXTERNE',
           PRECISION=1.E-3,
           NOM_PARA='FREQ_APPAR',
           TABLE=TABREP2,
           FILTRE=(_F(NOM_PARA='NOEUD_I',
                      VALE_K='P4',),
                   _F(NOM_PARA='NOEUD_J',
                      VALE_K='P4',),
                   ),
           )

TEST_TABLE(
           VALE_CALC=0.99407436325061,
           VALE_REFE=0.99407436299999996,
           REFERENCE = 'SOURCE_EXTERNE',
           PRECISION=1.E-3,
           NOM_PARA='FACT_IRRE',
           TABLE=TABREP2,
           FILTRE=(_F(NOM_PARA='NOEUD_I',
                      VALE_K='P4',),
                   _F(NOM_PARA='NOEUD_J',
                      VALE_K='P4',),
                   ),
           )

TEST_TABLE(
           VALE_CALC=834.63139886184,
           VALE_REFE=834.63139999999999,
           REFERENCE = 'SOURCE_EXTERNE',
           PRECISION=1.E-3,
           NOM_PARA='LAMBDA_06',
           TABLE=TABREP2,
           FILTRE=(_F(NOM_PARA='NOEUD_I',
                      VALE_K='P4',),
                   _F(NOM_PARA='NOEUD_J',
                      VALE_K='P4',),
                   ),
           )

TEST_TABLE(
           VALE_CALC=1.120023054267E+06,
           VALE_REFE=1.1200226000000001E6,
           REFERENCE = 'SOURCE_EXTERNE',
           PRECISION=1.E-3,
           NOM_PARA='LAMBDA_08',
           TABLE=TABREP2,
           FILTRE=(_F(NOM_PARA='NOEUD_I',
                      VALE_K='P4',),
                   _F(NOM_PARA='NOEUD_J',
                      VALE_K='P4',),
                   ),
           )

TEST_TABLE(
           VALE_CALC=3.1700827089164E-07,
           VALE_REFE=3.1700819999999999E-07,
           REFERENCE = 'SOURCE_EXTERNE',
           PRECISION=1.E-3,
           NOM_PARA='LAMBDA_00',
           TABLE=TABREP4,
           FILTRE=(_F(NOM_PARA='NOEUD_I',
                      VALE_K='P4',),
                   _F(NOM_PARA='NOEUD_J',
                      VALE_K='P4',),
                   ),
           )

TEST_TABLE(
           VALE_CALC=1.0960801813775E-05,
           VALE_REFE=1.0960802000000001E-05,
           REFERENCE = 'SOURCE_EXTERNE',
           PRECISION=1.E-3,
           NOM_PARA='LAMBDA_01',
           TABLE=TABREP4,
           FILTRE=(_F(NOM_PARA='NOEUD_I',
                      VALE_K='P4',),
                   _F(NOM_PARA='NOEUD_J',
                      VALE_K='P4',),
                   ),
           )

TEST_TABLE(
           VALE_CALC=3.8035521960945E-04,
           VALE_REFE=3.8035519999999999E-4,
           REFERENCE = 'SOURCE_EXTERNE',
           PRECISION=1.E-3,
           NOM_PARA='LAMBDA_02',
           TABLE=TABREP4,
           FILTRE=(_F(NOM_PARA='NOEUD_I',
                      VALE_K='P4',),
                   _F(NOM_PARA='NOEUD_J',
                      VALE_K='P4',),
                   ),
           )

TEST_TABLE(
           VALE_CALC=0.013252834977827,
           VALE_REFE=0.013252837999999999,
           REFERENCE = 'SOURCE_EXTERNE',
           PRECISION=1.E-3,
           NOM_PARA='LAMBDA_03',
           TABLE=TABREP4,
           FILTRE=(_F(NOM_PARA='NOEUD_I',
                      VALE_K='P4',),
                   _F(NOM_PARA='NOEUD_J',
                      VALE_K='P4',),
                   ),
           )

TEST_TABLE(
           VALE_CALC=0.46431959474253,
           VALE_REFE=0.46431973999999998,
           REFERENCE = 'SOURCE_EXTERNE',
           PRECISION=1.E-3,
           NOM_PARA='LAMBDA_04',
           TABLE=TABREP4,
           FILTRE=(_F(NOM_PARA='NOEUD_I',
                      VALE_K='P4',),
                   _F(NOM_PARA='NOEUD_J',
                      VALE_K='P4',),
                   ),
           )

TEST_TABLE(
           VALE_CALC=5.6303487537775E-04,
           VALE_REFE=5.6303500000000003E-4,
           REFERENCE = 'SOURCE_EXTERNE',
           PRECISION=1.E-3,
           NOM_PARA='ECART',
           TABLE=TABREP4,
           FILTRE=(_F(NOM_PARA='NOEUD_I',
                      VALE_K='P4',),
                   _F(NOM_PARA='NOEUD_J',
                      VALE_K='P4',),
                   ),
           )

TEST_TABLE(
           VALE_CALC=11.121514769551,
           VALE_REFE=11.121516,
           REFERENCE = 'SOURCE_EXTERNE',
           PRECISION=1.E-3,
           NOM_PARA='NB_EXTREMA_P_S',
           TABLE=TABREP4,
           FILTRE=(_F(NOM_PARA='NOEUD_I',
                      VALE_K='P4',),
                   _F(NOM_PARA='NOEUD_J',
                      VALE_K='P4',),
                   ),
           )

TEST_TABLE(
           VALE_CALC=11.025785032553,
           VALE_REFE=11.025786,
           REFERENCE = 'SOURCE_EXTERNE',
           PRECISION=1.E-3,
           NOM_PARA='NB_PASS_ZERO_P_S',
           TABLE=TABREP4,
           FILTRE=(_F(NOM_PARA='NOEUD_I',
                      VALE_K='P4',),
                   _F(NOM_PARA='NOEUD_J',
                      VALE_K='P4',),
                   ),
           )

TEST_TABLE(
           VALE_CALC=5.5128925162764,
           VALE_REFE=5.512893,
           REFERENCE = 'SOURCE_EXTERNE',
           PRECISION=1.E-3,
           NOM_PARA='FREQ_APPAR',
           TABLE=TABREP4,
           FILTRE=(_F(NOM_PARA='NOEUD_I',
                      VALE_K='P4',),
                   _F(NOM_PARA='NOEUD_J',
                      VALE_K='P4',),
                   ),
           )

TEST_TABLE(
           VALE_CALC=0.99139238323364,
           VALE_REFE=0.99139237999999996,
           REFERENCE = 'SOURCE_EXTERNE',
           PRECISION=1.E-3,
           NOM_PARA='FACT_IRRE',
           TABLE=TABREP4,
           FILTRE=(_F(NOM_PARA='NOEUD_I',
                      VALE_K='P4',),
                   _F(NOM_PARA='NOEUD_J',
                      VALE_K='P4',),
                   ),
           )

TEST_TABLE(
           VALE_CALC=588.14007488717,
           VALE_REFE=588.14035999999999,
           REFERENCE = 'SOURCE_EXTERNE',
           PRECISION=1.E-3,
           NOM_PARA='LAMBDA_06',
           TABLE=TABREP4,
           FILTRE=(_F(NOM_PARA='NOEUD_I',
                      VALE_K='P4',),
                   _F(NOM_PARA='NOEUD_J',
                      VALE_K='P4',),
                   ),
           )

TEST_TABLE(
           VALE_CALC=8.2881614798982E+05,
           VALE_REFE=8.2881638E5,
           REFERENCE = 'SOURCE_EXTERNE',
           PRECISION=1.E-3,
           NOM_PARA='LAMBDA_08',
           TABLE=TABREP4,
           FILTRE=(_F(NOM_PARA='NOEUD_I',
                      VALE_K='P4',),
                   _F(NOM_PARA='NOEUD_J',
                      VALE_K='P4',),
                   ),
           )

FIN( )
#
