# TITRE SYSTEME MAS RES A 2 DDL (AMORTISSEMENT HYSTERETIQUE)
#            CONFIGURATION MANAGEMENT OF EDF VERSION
# ======================================================================
# COPYRIGHT (C) 1991 - 2012  EDF R&D                  WWW.CODE-ASTER.ORG
# THIS PROGRAM IS FREE SOFTWARE; YOU CAN REDISTRIBUTE IT AND/OR MODIFY
# IT UNDER THE TERMS OF THE GNU GENERAL PUBLIC LICENSE AS PUBLISHED BY
# THE FREE SOFTWARE FOUNDATION; EITHER VERSION 2 OF THE LICENSE, OR
# (AT YOUR OPTION) ANY LATER VERSION.
#
# THIS PROGRAM IS DISTRIBUTED IN THE HOPE THAT IT WILL BE USEFUL, BUT
# WITHOUT ANY WARRANTY; WITHOUT EVEN THE IMPLIED WARRANTY OF
# MERCHANTABILITY OR FITNESS FOR A PARTICULAR PURPOSE. SEE THE GNU
# GENERAL PUBLIC LICENSE FOR MORE DETAILS.
#
# YOU SHOULD HAVE RECEIVED A COPY OF THE GNU GENERAL PUBLIC LICENSE
# ALONG WITH THIS PROGRAM; IF NOT, WRITE TO EDF R&D CODE_ASTER,
#    1 AVENUE DU GENERAL DE GAULLE, 92141 CLAMART CEDEX, FRANCE.
# ======================================================================
#       ANALYSE MODALE, PROBLEME MODAL GENERALISE A MATRICE K COMPLEXE
#
#            CONFIGURATION MANAGEMENT OF EDF VERSION
#
# OBJECTIF POUR LA BASE DE CAS-TESTS ASTER: MODAL GENERALISE COMPLEXE.
# INTERCOMPARAISON DES METHODES DE SOUS-ESPACES (SORENSEN ET QZ).
#CAS_TEST__:SDLD313C
#

DEBUT( CODE=_F(  NOM = 'SDLD313C',NIV_PUB_WEB='INTERNET'),DEBUG=_F(SDVERI='OUI'))

#

MASRES=LIRE_MAILLAGE( )

#

MODELE=AFFE_MODELE(  MAILLAGE=MASRES,AFFE=(
                       _F(  TOUT = 'OUI', PHENOMENE = 'MECANIQUE',
                              MODELISATION = 'DIS_T'),
             _F(  NOEUD = ('B','C',),  PHENOMENE = 'MECANIQUE',
        MODELISATION = 'DIS_T'))       )

#
RIGMAS=AFFE_CARA_ELEM(  MODELE=MODELE,DISCRET=(

                _F(  GROUP_MA = 'AMORT',
                          CARA = 'K_T_D_L',
                          VALE = (28000., .001, .001,),
                          AMOR_HYST = 0.1),
                _F(  GROUP_MA = 'AMORT',
                          CARA = 'M_T_L',
                          VALE = (0., 0., 0.,0., 0., 0.,0., 0., 0.,
                          0., 0., 0.,0., 0., 0.,0., 0., 0.,0., 0., 0.,),
                          AMOR_HYST = 0.1),

                _F(  MAILLE = 'K2',
                          CARA = 'K_T_D_L',
                          VALE = (28000., .001, .001,),
                          AMOR_HYST = 0.1),
                _F(  MAILLE = 'K2',
                          CARA = 'M_T_L',
                          VALE = (0., 0., 0.,0., 0., 0.,0., 0., 0.,
                          0., 0., 0.,0., 0., 0.,0., 0., 0.,0., 0., 0.,),
                          AMOR_HYST = 0.1),

                _F(  NOEUD = 'B',
                          CARA = 'M_T_D_N',
                          VALE = ( 10.,)),

                _F(  NOEUD = 'C',
                          CARA = 'M_T_D_N',
                          VALE = ( 5.,)))
                        )

#
CONDLIM=AFFE_CHAR_MECA(  MODELE=MODELE,DDL_IMPO=(
                         _F(  TOUT = 'OUI', DY = 0., DZ = 0.),
                                  _F(  NOEUD = 'A',  DX = 0.))
                        )

RIGIELEM=CALC_MATR_ELEM(  MODELE=MODELE,       OPTION='RIGI_MECA',
                            CARA_ELEM=RIGMAS,  CHARGE=CONDLIM     )

MASSELEM=CALC_MATR_ELEM(  MODELE=MODELE,       OPTION='MASS_MECA',
                            CARA_ELEM=RIGMAS,  CHARGE=CONDLIM     )

RIGCMPLX=CALC_MATR_ELEM(  MODELE=MODELE,       OPTION='RIGI_MECA_HYST',
                            RIGI_MECA=RIGIELEM,    CARA_ELEM=RIGMAS,
                            CHARGE=CONDLIM )


INCONNUS=NUME_DDL(  MATR_RIGI=RIGCMPLX )

MATRRIGI=ASSE_MATRICE(  MATR_ELEM=RIGCMPLX,  NUME_DDL=INCONNUS )

MATRRIGR=ASSE_MATRICE(  MATR_ELEM=RIGIELEM,  NUME_DDL=INCONNUS )

MATRMASS=ASSE_MATRICE(  MATR_ELEM=MASSELEM,  NUME_DDL=INCONNUS )


# CALCUL DES FREQUENCES PROPRES
#-------------------------------------------------
#
# AVEC SORENSEN
MODE_SO=MODE_ITER_SIMULT(MATR_RIGI=MATRRIGI,
                       MATR_MASS=MATRMASS,
                       METHODE='SORENSEN',
                       CALC_FREQ=_F(OPTION='CENTRE',
                                    FREQ=10.,
                                    NMAX_FREQ=2,),
                       INFO=1,);



TEST_RESU(RESU=(_F(NUME_ORDRE=1,
                   PARA='FREQ',
                   REFERENCE='ANALYTIQUE',
                   RESULTAT=MODE_SO,
                   VALE_CALC=6.445680930,
                   VALE_REFE=6.4537000000000004,
                   CRITERE='RELATIF',
                   PRECISION=1.E-2,),
                _F(NUME_ORDRE=2,
                   PARA='FREQ',
                   REFERENCE='ANALYTIQUE',
                   RESULTAT=MODE_SO,
                   VALE_CALC=15.561250321,
                   VALE_REFE=15.5806,
                   CRITERE='RELATIF',
                   PRECISION=1.E-2,),
                ),
          )

TEST_RESU(RESU=(_F(NUME_ORDRE=1,
                   PARA='AMOR_REDUIT',
                   REFERENCE='ANALYTIQUE',
                   RESULTAT=MODE_SO,
                   VALE_CALC=0.050000000,
                   VALE_REFE=0.050000000000000003,
                   CRITERE='RELATIF',
                   PRECISION=1.E-3,),
                _F(NUME_ORDRE=2,
                   PARA='AMOR_REDUIT',
                   REFERENCE='ANALYTIQUE',
                   RESULTAT=MODE_SO,
                   VALE_CALC=0.050000000,
                   VALE_REFE=0.050000000000000003,
                   CRITERE='RELATIF',
                   PRECISION=1.E-3,),
                ),
          )

# AVEC QZ
MODE_QZ=MODE_ITER_SIMULT(MATR_RIGI=MATRRIGI,
                       MATR_MASS=MATRMASS,
                       METHODE='QZ',
                       TYPE_QZ='QZ_EQUI',
                       CALC_FREQ=_F(OPTION='CENTRE',
                                    FREQ=10.,
                                    NMAX_FREQ=2,),
                       INFO=1,);



TEST_RESU(RESU=(_F(NUME_ORDRE=1,
                   PARA='FREQ',
                   REFERENCE='ANALYTIQUE',
                   RESULTAT=MODE_QZ,
                   VALE_CALC=6.445680930,
                   VALE_REFE=6.4537000000000004,
                   CRITERE='RELATIF',
                   PRECISION=1.E-2,),
                _F(NUME_ORDRE=2,
                   PARA='FREQ',
                   REFERENCE='ANALYTIQUE',
                   RESULTAT=MODE_QZ,
                   VALE_CALC=15.561250321,
                   VALE_REFE=15.5806,
                   CRITERE='RELATIF',
                   PRECISION=1.E-2,),
                ),
          )

TEST_RESU(RESU=(_F(NUME_ORDRE=1,
                   PARA='AMOR_REDUIT',
                   REFERENCE='ANALYTIQUE',
                   RESULTAT=MODE_QZ,
                   VALE_CALC=0.050000000,
                   VALE_REFE=0.050000000000000003,
                   CRITERE='RELATIF',
                   PRECISION=1.E-3,),
                _F(NUME_ORDRE=2,
                   PARA='AMOR_REDUIT',
                   REFERENCE='ANALYTIQUE',
                   RESULTAT=MODE_QZ,
                   VALE_CALC=0.050000000,
                   VALE_REFE=0.050000000000000003,
                   CRITERE='RELATIF',
                   PRECISION=1.E-3,),
                ),
          )

#
#
FIN( )
#

