# TITRE VALIDATION ELEMENTAIRE DES SCHEMAS EN TEMPS DANS DYNA_NON_LINE
#            CONFIGURATION MANAGEMENT OF EDF VERSION
# ======================================================================
# COPYRIGHT (C) 1991 - 2012  EDF R&D                  WWW.CODE-ASTER.ORG
# THIS PROGRAM IS FREE SOFTWARE; YOU CAN REDISTRIBUTE IT AND/OR MODIFY
# IT UNDER THE TERMS OF THE GNU GENERAL PUBLIC LICENSE AS PUBLISHED BY
# THE FREE SOFTWARE FOUNDATION; EITHER VERSION 2 OF THE LICENSE, OR
# (AT YOUR OPTION) ANY LATER VERSION.
#
# THIS PROGRAM IS DISTRIBUTED IN THE HOPE THAT IT WILL BE USEFUL, BUT
# WITHOUT ANY WARRANTY; WITHOUT EVEN THE IMPLIED WARRANTY OF
# MERCHANTABILITY OR FITNESS FOR A PARTICULAR PURPOSE. SEE THE GNU
# GENERAL PUBLIC LICENSE FOR MORE DETAILS.
#
# YOU SHOULD HAVE RECEIVED A COPY OF THE GNU GENERAL PUBLIC LICENSE
# ALONG WITH THIS PROGRAM; IF NOT, WRITE TO EDF R&D CODE_ASTER,
#    1 AVENUE DU GENERAL DE GAULLE, 92141 CLAMART CEDEX, FRANCE.
# ======================================================================

DEBUT(CODE=_F(NOM='SDLD31A',NIV_PUB_WEB='INTERNET'),DEBUG=_F(SDVERI='NON'))
# SDVERI='NON' car la verification est trop couteuse en CPU
#
MA=LIRE_MAILLAGE()
#
MA=DEFI_GROUP( reuse=MA,
               MAILLAGE=MA,
               CREA_GROUP_NO=_F(
               TOUT_GROUP_MA = 'OUI'),);
#
MO=AFFE_MODELE( MAILLAGE=MA,
                AFFE=_F(
                GROUP_MA = ('RESSORT','MASS',),
                PHENOMENE = 'MECANIQUE',
                MODELISATION = 'DIS_T'),);

omega0=2.*3.141592653589793*3.
KK=omega0*omega0
CARA_ELE=AFFE_CARA_ELEM(  MODELE=MO,
                          DISCRET=(_F(  CARA = 'K_T_D_L',  REPERE = 'GLOBAL', GROUP_MA = 'RESSORT',
                                        VALE = (KK,  KK,  KK, )),
                                   _F(  CARA = 'M_T_L',  REPERE = 'GLOBAL', GROUP_MA = 'RESSORT',
                                        VALE = (0,  0,  0, 0,  0,  0, 0,  0,  0,
                                        0,  0,  0, 0,  0,  0, 0,  0,  0, 0,  0,  0, )),
                                   _F(  CARA = 'M_T_D_N',  GROUP_MA = 'MASS',
                                        VALE = 1.))
                         )
#
MATE_BID=DEFI_MATERIAU(ELAS=_F(
                E = 20000.,
                RHO=7900.0,
                NU = 0.49999,
                ),);
#
CHMAT=AFFE_MATERIAU(MAILLAGE=MA,AFFE=
                     _F(GROUP_MA = 'RESSORT', MATER = MATE_BID),);
#
pasdt=1.E-2
#
L_INST=DEFI_LIST_REEL(DEBUT=0.0,INTERVALLE=(
                _F(  JUSQU_A = 20,     PAS = pasdt),
                ),);
#
LIAISON=AFFE_CHAR_MECA(MODELE=MO,
                       DDL_IMPO=(
                _F( GROUP_NO = 'A',  DX=0., DY=0., DZ=0. , ),
                _F( GROUP_NO = 'B',  DX=0., DY=0.,),
                ),);
#
TRACTION=AFFE_CHAR_MECA(MODELE=MO,
                        FORCE_NODALE=_F( GROUP_NO = 'B', FZ = 1.),);
#
#   Chargement sinusoidal
#
OMEGA=omega0*1.1
SINOMEGT = FORMULE(NOM_PARA='INST',VALE='sin(OMEGA*INST)')
FSIN=CALC_FONC_INTERP(         FONCTION=SINOMEGT,
                               LIST_PARA=L_INST,
                               NOM_PARA = 'INST',
                               NOM_RESU='ALPHA',
                               INTERPOL='LIN',
                               TITRE='SINUS OMEGA T'
                            )
#
tfin = 1.
#
#  Solution obtenue avec schema NEWMARK - DEPLACEMENT
#
REPNEW=DYNA_NON_LINE(
                SCHEMA_TEMPS=_F(SCHEMA='NEWMARK',
                               FORMULATION='DEPLACEMENT',),
                MODELE=MO,
                  CARA_ELEM = CARA_ELE,
                CHAM_MATER=CHMAT,EXCIT=(
                    _F( CHARGE = LIAISON),
                     _F( CHARGE = TRACTION, FONC_MULT = FSIN),
                    ),
                COMP_INCR=_F(RELATION = 'ELAS'),
                INCREMENT=_F(LIST_INST = L_INST,INST_FIN = tfin,
                  ),
                NEWTON=_F(MATRICE = 'TANGENTE',REAC_ITER = 1),
                CONVERGENCE=_F(
                                RESI_GLOB_MAXI = 1.,
                                ITER_GLOB_MAXI = 10),

            );

#
#  Solution obtenue avec schema NEWMARK - ACCELERATION
#
REPACC=DYNA_NON_LINE(
                SCHEMA_TEMPS=_F(SCHEMA='NEWMARK',
                               FORMULATION='ACCELERATION',),
                MODELE=MO,
                  CARA_ELEM = CARA_ELE,
                CHAM_MATER=CHMAT,EXCIT=(
                    _F( CHARGE = LIAISON),
                     _F( CHARGE = TRACTION, FONC_MULT = FSIN),
                    ),
                COMP_INCR=_F(RELATION = 'ELAS'),
                INCREMENT=_F(LIST_INST = L_INST,INST_FIN = tfin,),
                NEWTON=_F(MATRICE = 'TANGENTE',REAC_ITER = 1),
                CONVERGENCE=_F(RESI_GLOB_MAXI = 1.,
                                ITER_GLOB_MAXI = 10),

            );

#
#  Solution obtenue avec schema NEWMARK - ACCELERATION et plusieurs poursuites
#
tpsr1 = 0.21 * tfin
REPACCP=DYNA_NON_LINE(
                SCHEMA_TEMPS=_F(SCHEMA='NEWMARK',
                               FORMULATION='ACCELERATION',),
                MODELE=MO,
                  CARA_ELEM = CARA_ELE,
                CHAM_MATER=CHMAT,EXCIT=(
                    _F( CHARGE = LIAISON),
                     _F( CHARGE = TRACTION, FONC_MULT = FSIN),
                    ),
                COMP_INCR=_F(RELATION = 'ELAS'),
                INCREMENT=_F(LIST_INST = L_INST,INST_FIN = tpsr1,),
                NEWTON=_F(MATRICE = 'TANGENTE',REAC_ITER = 1),
                CONVERGENCE=_F(RESI_GLOB_MAXI = 1.,
                                ITER_GLOB_MAXI = 10),

            );
#
tpsr2 = 0.61 * tfin
REPACCP=DYNA_NON_LINE( reuse=REPACCP,
                       ETAT_INIT=_F(EVOL_NOLI=REPACCP,
                                    INST=tpsr1,
                                    PRECISION=1e-07),
                SCHEMA_TEMPS=_F(SCHEMA='NEWMARK',
                               FORMULATION='ACCELERATION',),
                MODELE=MO,
                  CARA_ELEM = CARA_ELE,
                CHAM_MATER=CHMAT,EXCIT=(
                    _F( CHARGE = LIAISON),
                     _F( CHARGE = TRACTION, FONC_MULT = FSIN),
                    ),
                COMP_INCR=_F(RELATION = 'ELAS'),
                INCREMENT=_F(LIST_INST = L_INST,INST_FIN = tpsr2,),
                NEWTON=_F(MATRICE = 'TANGENTE',REAC_ITER = 1),
                CONVERGENCE=_F(RESI_GLOB_MAXI = 1.,
                                ITER_GLOB_MAXI = 1),

             );
#
REPACCP=DYNA_NON_LINE( reuse=REPACCP,
                       ETAT_INIT=_F(EVOL_NOLI=REPACCP,
                                    INST=tpsr2,
                                    PRECISION=1e-07),
                SCHEMA_TEMPS=_F(SCHEMA='NEWMARK',
                               FORMULATION='ACCELERATION',),
                MODELE=MO,
                  CARA_ELEM = CARA_ELE,
                CHAM_MATER=CHMAT,EXCIT=(
                    _F( CHARGE = LIAISON),
                     _F( CHARGE = TRACTION, FONC_MULT = FSIN),
                    ),
                COMP_INCR=_F(RELATION = 'ELAS'),
                INCREMENT=_F(LIST_INST = L_INST,INST_FIN = tfin,),
                NEWTON=_F(MATRICE = 'TANGENTE',REAC_ITER = 1),
                CONVERGENCE=_F(RESI_GLOB_MAXI = 1.,
                                ITER_GLOB_MAXI = 1),

            );

#
#  Solution obtenue avec schema THETA-VITESSE
#
REPVIT=DYNA_NON_LINE(
                SCHEMA_TEMPS=_F(SCHEMA='THETA_METHODE',
                               THETA=0.61,
                               FORMULATION='VITESSE',),
                MODELE=MO,
                  CARA_ELEM = CARA_ELE,
                CHAM_MATER=CHMAT,EXCIT=(
                    _F( CHARGE = LIAISON),
                     _F( CHARGE = TRACTION, FONC_MULT = FSIN),
                    ),
                COMP_INCR=_F(RELATION = 'ELAS'),
                INCREMENT=_F(LIST_INST = L_INST,INST_FIN = tfin,),
                NEWTON=_F(MATRICE = 'TANGENTE',REAC_ITER = 1),
                CONVERGENCE=_F(ITER_GLOB_MAXI = 1,
                ),

            );


#
#  Solution obtenue avec schema THETA-DEPLACEMENT
#
REPDEP=DYNA_NON_LINE(
                SCHEMA_TEMPS=_F(SCHEMA='THETA_METHODE',
                               THETA=0.61,
                               FORMULATION='DEPLACEMENT',),
                MODELE=MO,
                  CARA_ELEM = CARA_ELE,
                CHAM_MATER=CHMAT,EXCIT=(
                    _F( CHARGE = LIAISON),
                     _F( CHARGE = TRACTION, FONC_MULT = FSIN),
                    ),
                COMP_INCR=_F(RELATION = 'ELAS'),
                INCREMENT=_F(LIST_INST = L_INST,INST_FIN = tfin,),
                NEWTON=_F(MATRICE = 'TANGENTE',REAC_ITER = 1),
                CONVERGENCE=_F(
                ITER_GLOB_MAXI = 1,
                ),

            );

#
#  Solution obtenue avec schema HHT MODI_EQUI='NON'
#
REPACM=DYNA_NON_LINE(
                SCHEMA_TEMPS=_F(SCHEMA='HHT',
                               FORMULATION='DEPLACEMENT',),
                MODELE=MO,
                  CARA_ELEM = CARA_ELE,
                CHAM_MATER=CHMAT,EXCIT=(
                    _F( CHARGE = LIAISON),
                     _F( CHARGE = TRACTION, FONC_MULT = FSIN),
                    ),
                COMP_INCR=_F(RELATION = 'ELAS'),
                INCREMENT=_F(LIST_INST = L_INST,INST_FIN = tfin,),
                NEWTON=_F(MATRICE = 'TANGENTE',REAC_ITER = 1),
                CONVERGENCE=_F(RESI_GLOB_MAXI = 1.,
                                ITER_GLOB_MAXI = 10),

             );
#
#  Solution obtenue avec schema HHT MODI_EQUI='OUI'
#
REPHHT=DYNA_NON_LINE(
                SCHEMA_TEMPS=_F(SCHEMA='HHT',
                               MODI_EQUI='OUI',
                               FORMULATION='DEPLACEMENT',),
                MODELE=MO,
                  CARA_ELEM = CARA_ELE,
                CHAM_MATER=CHMAT,EXCIT=(
                    _F( CHARGE = LIAISON),
                     _F( CHARGE = TRACTION, FONC_MULT = FSIN),
                    ),
                COMP_INCR=_F(RELATION = 'ELAS'),
                INCREMENT=_F(LIST_INST = L_INST,INST_FIN = tfin,),
                NEWTON=_F(MATRICE = 'TANGENTE',REAC_ITER = 1),
                CONVERGENCE=_F(RESI_GLOB_MAXI = 1.,
                                ITER_GLOB_MAXI = 10),

             );
#
#  Solution obtenue avec schema HHT MODI_EQUI='OUI' et plusieurs poursuites
#
tpsr1 = 0.2 * tfin
REPHHTP=DYNA_NON_LINE(
                SCHEMA_TEMPS=_F(SCHEMA='HHT',
                               MODI_EQUI='OUI',
                               FORMULATION='DEPLACEMENT',),
                MODELE=MO,
                  CARA_ELEM = CARA_ELE,
                CHAM_MATER=CHMAT,EXCIT=(
                    _F( CHARGE = LIAISON),
                     _F( CHARGE = TRACTION, FONC_MULT = FSIN),
                    ),
                COMP_INCR=_F(RELATION = 'ELAS'),
                INCREMENT=_F(LIST_INST = L_INST,INST_FIN = tpsr1,),
                NEWTON=_F(MATRICE = 'TANGENTE',REAC_ITER = 1),
                CONVERGENCE=_F(RESI_GLOB_MAXI = 1.,
                                ITER_GLOB_MAXI = 10),

             );
#
tpsr2 = 0.6 * tfin
REPHHTP=DYNA_NON_LINE( reuse=REPHHTP,
                       ETAT_INIT=_F(EVOL_NOLI=REPHHTP,
                                    INST=tpsr1,
                                    PRECISION=1e-07),
                SCHEMA_TEMPS=_F(SCHEMA='HHT',
                               MODI_EQUI='OUI',
                               FORMULATION='DEPLACEMENT',),
                MODELE=MO,
                  CARA_ELEM = CARA_ELE,
                CHAM_MATER=CHMAT,EXCIT=(
                    _F( CHARGE = LIAISON),
                     _F( CHARGE = TRACTION, FONC_MULT = FSIN),
                    ),
                COMP_INCR=_F(RELATION = 'ELAS'),
                INCREMENT=_F(LIST_INST = L_INST,INST_FIN = tpsr2,),
                NEWTON=_F(MATRICE = 'TANGENTE',REAC_ITER = 1),
                CONVERGENCE=_F(RESI_GLOB_MAXI = 1.,
                                ITER_GLOB_MAXI = 1),

             );
#
REPHHTP=DYNA_NON_LINE( reuse=REPHHTP,
                       ETAT_INIT=_F(EVOL_NOLI=REPHHTP,
                                    INST=tpsr2,
                                    PRECISION=1e-07),
                SCHEMA_TEMPS=_F(SCHEMA='HHT',
                               MODI_EQUI='OUI',
                               FORMULATION='DEPLACEMENT',),
                MODELE=MO,
                  CARA_ELEM = CARA_ELE,
                CHAM_MATER=CHMAT,EXCIT=(
                    _F( CHARGE = LIAISON),
                     _F( CHARGE = TRACTION, FONC_MULT = FSIN),
                    ),
                COMP_INCR=_F(RELATION = 'ELAS'),
                INCREMENT=_F(LIST_INST = L_INST,INST_FIN = tfin,),
                NEWTON=_F(MATRICE = 'TANGENTE',REAC_ITER = 1),
                CONVERGENCE=_F(RESI_GLOB_MAXI = 1.,
                                ITER_GLOB_MAXI = 1),

            );
#
#  Solution obtenue avec schema KRENK  en vitesse
#
REPKRE=DYNA_NON_LINE(
                SCHEMA_TEMPS=_F(SCHEMA='KRENK',
                               KAPPA=1.22,
                               FORMULATION='VITESSE',),
                MODELE=MO,
                  CARA_ELEM = CARA_ELE,
                CHAM_MATER=CHMAT,EXCIT=(
                    _F( CHARGE = LIAISON),
                     _F( CHARGE = TRACTION, FONC_MULT = FSIN),
                    ),
                COMP_INCR=_F(RELATION = 'ELAS'),
                INCREMENT=_F(LIST_INST = L_INST,INST_FIN = tfin,),
                NEWTON=_F(MATRICE = 'TANGENTE',REAC_ITER = 1),
                CONVERGENCE=_F(
                ITER_GLOB_MAXI = 1),

            );
#
#  Solution obtenue avec schema KRENK  en deplacement
#
REPKRD=DYNA_NON_LINE(
                SCHEMA_TEMPS=_F(SCHEMA='KRENK',
                               KAPPA=1.22,
                               FORMULATION='DEPLACEMENT',),
                MODELE=MO,
                  CARA_ELEM = CARA_ELE,
                CHAM_MATER=CHMAT,EXCIT=(
                    _F( CHARGE = LIAISON),
                     _F( CHARGE = TRACTION, FONC_MULT = FSIN),
                    ),
                COMP_INCR=_F(RELATION = 'ELAS'),
                INCREMENT=_F(LIST_INST = L_INST,INST_FIN = tfin,),
                NEWTON=_F(MATRICE = 'TANGENTE',REAC_ITER = 1),
                CONVERGENCE=_F(
                ITER_GLOB_MAXI = 1),

            );

tpst1 = tfin * 0.5
tpst2 = tfin * 0.7
tpst3 = tfin * 1.

TEST_RESU(RESU=(_F(GROUP_NO='B',
                   INST=0.5,
                   REFERENCE='SOURCE_EXTERNE',
                   RESULTAT=REPACC,
                   NOM_CHAM='DEPL',
                   NOM_CMP='DZ',
                   VALE_CALC=0.010804500,
                   VALE_REFE=0.010804500210685001,
                   PRECISION=1.E-3,),
                _F(GROUP_NO='B',
                   INST=0.69999999999999996,
                   REFERENCE='SOURCE_EXTERNE',
                   RESULTAT=REPACC,
                   NOM_CHAM='DEPL',
                   NOM_CMP='DZ',
                   VALE_CALC=-4.06717795E-03,
                   VALE_REFE=-4.0671779495390003E-3,
                   PRECISION=1.E-3,),
                _F(GROUP_NO='B',
                   INST=1.0,
                   REFERENCE='SOURCE_EXTERNE',
                   RESULTAT=REPACC,
                   NOM_CHAM='DEPL',
                   NOM_CMP='DZ',
                   VALE_CALC=-0.013026190,
                   VALE_REFE=-0.013026189840934999,
                   PRECISION=1.E-3, ),
                _F(GROUP_NO='B',
                   INST=0.5,
                   REFERENCE='SOURCE_EXTERNE',
                   RESULTAT=REPACC,
                   NOM_CHAM='ACCE',
                   NOM_CMP='DZ',
                   VALE_CALC=-4.647918136,
                   VALE_REFE=-4.6479181362890643,
                   PRECISION=1.E-3, ),
                _F(GROUP_NO='B',
                   INST=0.69999999999999996,
                   REFERENCE='SOURCE_EXTERNE',
                   RESULTAT=REPACC,
                   NOM_CHAM='ACCE',
                   NOM_CMP='DZ',
                   VALE_CALC=2.374868232,
                   VALE_REFE=2.374868231956595,
                   PRECISION=1.E-3, ),
                _F(GROUP_NO='B',
                   INST=1.0,
                   REFERENCE='SOURCE_EXTERNE',
                   RESULTAT=REPACC,
                   NOM_CHAM='ACCE',
                   NOM_CMP='DZ',
                   VALE_CALC=5.579336777,
                   VALE_REFE=5.5793367773016023,
                   PRECISION=1.E-3, ),
                ),
          )

TEST_RESU(RESU=(_F(GROUP_NO='B',
                   INST=0.5,
                   REFERENCE='SOURCE_EXTERNE',
                   RESULTAT=REPACCP,
                   NOM_CHAM='DEPL',
                   NOM_CMP='DZ',
                   VALE_CALC=0.010804500,
                   VALE_REFE=0.010804500210685001,
                   PRECISION=1.E-3, ),
                _F(GROUP_NO='B',
                   INST=0.69999999999999996,
                   REFERENCE='SOURCE_EXTERNE',
                   RESULTAT=REPACCP,
                   NOM_CHAM='DEPL',
                   NOM_CMP='DZ',
                   VALE_CALC=-4.06717795E-03,
                   VALE_REFE=-4.0671779495390003E-3,
                   PRECISION=1.E-3, ),
                _F(GROUP_NO='B',
                   INST=1.0,
                   REFERENCE='SOURCE_EXTERNE',
                   RESULTAT=REPACCP,
                   NOM_CHAM='DEPL',
                   NOM_CMP='DZ',
                   VALE_CALC=-0.013026190,
                   VALE_REFE=-0.013026189840934999,
                   PRECISION=1.E-3, ),
                _F(GROUP_NO='B',
                   INST=0.5,
                   REFERENCE='SOURCE_EXTERNE',
                   RESULTAT=REPACCP,
                   NOM_CHAM='ACCE',
                   NOM_CMP='DZ',
                   VALE_CALC=-4.647918136,
                   VALE_REFE=-4.6479181362890643,
                   PRECISION=1.E-3, ),
                _F(GROUP_NO='B',
                   INST=0.69999999999999996,
                   REFERENCE='SOURCE_EXTERNE',
                   RESULTAT=REPACCP,
                   NOM_CHAM='ACCE',
                   NOM_CMP='DZ',
                   VALE_CALC=2.374868232,
                   VALE_REFE=2.374868231956595,
                   PRECISION=1.E-3, ),
                _F(GROUP_NO='B',
                   INST=1.0,
                   REFERENCE='SOURCE_EXTERNE',
                   RESULTAT=REPACCP,
                   NOM_CHAM='ACCE',
                   NOM_CMP='DZ',
                   VALE_CALC=5.579336777,
                   VALE_REFE=5.5793367773016023,
                   PRECISION=1.E-3, ),
                ),
          )

TEST_RESU(RESU=(_F(GROUP_NO='B',
                   INST=0.5,
                   REFERENCE='SOURCE_EXTERNE',
                   RESULTAT=REPDEP,
                   NOM_CHAM='DEPL',
                   NOM_CMP='DZ',
                   VALE_CALC= 9.46645923E-03,
                   VALE_REFE=9.4664592252169995E-3,
                   PRECISION=1.E-3, ),
                _F(GROUP_NO='B',
                   INST=0.69999999999999996,
                   REFERENCE='SOURCE_EXTERNE',
                   RESULTAT=REPDEP,
                   NOM_CHAM='DEPL',
                   NOM_CMP='DZ',
                   VALE_CALC=-2.49643638E-03,
                   VALE_REFE=-2.4964363793719998E-3,
                   PRECISION=1.E-3, ),
                _F(GROUP_NO='B',
                   INST=1.0,
                   REFERENCE='SOURCE_EXTERNE',
                   RESULTAT=REPDEP,
                   NOM_CHAM='DEPL',
                   NOM_CMP='DZ',
                   VALE_CALC=-9.07447761E-03,
                   VALE_REFE=-9.0744776066569999E-3,
                   PRECISION=1.E-3, ),
                _F(GROUP_NO='B',
                   INST=0.5,
                   REFERENCE='SOURCE_EXTERNE',
                   RESULTAT=REPDEP,
                   NOM_CHAM='ACCE',
                   NOM_CMP='DZ',
                   VALE_CALC=-4.164229044,
                   VALE_REFE=-4.1642290444259977,
                   PRECISION=1.E-3, ),
                _F(GROUP_NO='B',
                   INST=0.69999999999999996,
                   REFERENCE='SOURCE_EXTERNE',
                   RESULTAT=REPDEP,
                   NOM_CHAM='ACCE',
                   NOM_CMP='DZ',
                   VALE_CALC=1.672885404,
                   VALE_REFE=1.6728854044802981,
                   PRECISION=1.E-3, ),
                _F(GROUP_NO='B',
                   INST=1.0,
                   REFERENCE='SOURCE_EXTERNE',
                   RESULTAT=REPDEP,
                   NOM_CHAM='ACCE',
                   NOM_CMP='DZ',
                   VALE_CALC=4.022313060,
                   VALE_REFE=4.022313059734449,
                   PRECISION=1.E-3, ),
                ),
          )

TEST_RESU(RESU=(_F(GROUP_NO='B',
                   INST=0.5,
                   REFERENCE='SOURCE_EXTERNE',
                   RESULTAT=REPVIT,
                   NOM_CHAM='DEPL',
                   NOM_CMP='DZ',
                   VALE_CALC= 9.46645923E-03,
                   VALE_REFE=9.4664592252169995E-3,
                   PRECISION=1.E-3, ),
                _F(GROUP_NO='B',
                   INST=0.69999999999999996,
                   REFERENCE='SOURCE_EXTERNE',
                   RESULTAT=REPVIT,
                   NOM_CHAM='DEPL',
                   NOM_CMP='DZ',
                   VALE_CALC=-2.49643638E-03,
                   VALE_REFE=-2.4964363793719998E-3,
                   PRECISION=1.E-3, ),
                _F(GROUP_NO='B',
                   INST=1.0,
                   REFERENCE='SOURCE_EXTERNE',
                   RESULTAT=REPVIT,
                   NOM_CHAM='DEPL',
                   NOM_CMP='DZ',
                   VALE_CALC=-9.07447761E-03,
                   VALE_REFE=-9.0744776066569999E-3,
                   PRECISION=1.E-3, ),
                _F(GROUP_NO='B',
                   INST=0.5,
                   REFERENCE='SOURCE_EXTERNE',
                   RESULTAT=REPVIT,
                   NOM_CHAM='ACCE',
                   NOM_CMP='DZ',
                   VALE_CALC=-4.164229044,
                   VALE_REFE=-4.1642290444259977,
                   PRECISION=1.E-3, ),
                _F(GROUP_NO='B',
                   INST=0.69999999999999996,
                   REFERENCE='SOURCE_EXTERNE',
                   RESULTAT=REPVIT,
                   NOM_CHAM='ACCE',
                   NOM_CMP='DZ',
                   VALE_CALC=1.672885404,
                   VALE_REFE=1.6728854044802981,
                   PRECISION=1.E-3, ),
                _F(GROUP_NO='B',
                   INST=1.0,
                   REFERENCE='SOURCE_EXTERNE',
                   RESULTAT=REPVIT,
                   NOM_CHAM='ACCE',
                   NOM_CMP='DZ',
                   VALE_CALC=4.022313060,
                   VALE_REFE=4.022313059734449,
                   PRECISION=1.E-3, ),
                ),
          )

#
#  Les valeurs de references sont obtenues avec Matlab R2006b
#
TEST_RESU(RESU=(_F(GROUP_NO='B',
                   INST=0.5,
                   REFERENCE='SOURCE_EXTERNE',
                   RESULTAT=REPNEW,
                   NOM_CHAM='DEPL',
                   NOM_CMP='DZ',
                   VALE_CALC=0.010804500,
                   VALE_REFE=0.010804500210685001,
                   PRECISION=1.E-3, ),
                _F(GROUP_NO='B',
                   INST=0.69999999999999996,
                   REFERENCE='SOURCE_EXTERNE',
                   RESULTAT=REPNEW,
                   NOM_CHAM='DEPL',
                   NOM_CMP='DZ',
                   VALE_CALC=-4.06717795E-03,
                   VALE_REFE=-4.0671779495390003E-3,
                   PRECISION=1.E-3, ),
                _F(GROUP_NO='B',
                   INST=1.0,
                   REFERENCE='SOURCE_EXTERNE',
                   RESULTAT=REPNEW,
                   NOM_CHAM='DEPL',
                   NOM_CMP='DZ',
                   VALE_CALC=-0.013026190,
                   VALE_REFE=-0.013026189840934999,
                   PRECISION=1.E-3, ),
                _F(GROUP_NO='B',
                   INST=0.5,
                   REFERENCE='SOURCE_EXTERNE',
                   RESULTAT=REPNEW,
                   NOM_CHAM='ACCE',
                   NOM_CMP='DZ',
                   VALE_CALC=-4.647918136,
                   VALE_REFE=-4.6479181362890643,
                   PRECISION=1.E-3, ),
                _F(GROUP_NO='B',
                   INST=0.69999999999999996,
                   REFERENCE='SOURCE_EXTERNE',
                   RESULTAT=REPNEW,
                   NOM_CHAM='ACCE',
                   NOM_CMP='DZ',
                   VALE_CALC=2.374868232,
                   VALE_REFE=2.374868231956595,
                   PRECISION=1.E-3, ),
                _F(GROUP_NO='B',
                   INST=1.0,
                   REFERENCE='SOURCE_EXTERNE',
                   RESULTAT=REPNEW,
                   NOM_CHAM='ACCE',
                   NOM_CMP='DZ',
                   VALE_CALC=5.579336777,
                   VALE_REFE=5.5793367773016023,
                   PRECISION=1.E-3, ),
                _F(GROUP_NO='B',
                   INST=0.5,
                   REFERENCE='SOURCE_EXTERNE',
                   RESULTAT=REPACM,
                   NOM_CHAM='DEPL',
                   NOM_CMP='DZ',
                   VALE_CALC= 9.02248426E-03,
                   VALE_REFE=9.0224842641940008E-3,
                   PRECISION=1.E-3, ),
                _F(GROUP_NO='B',
                   INST=0.69999999999999996,
                   REFERENCE='SOURCE_EXTERNE',
                   RESULTAT=REPACM,
                   NOM_CHAM='DEPL',
                   NOM_CMP='DZ',
                   VALE_CALC=-2.02421527E-03,
                   VALE_REFE=-2.0242152707660001E-3,
                   PRECISION=1.E-3, ),
                _F(GROUP_NO='B',
                   INST=1.0,
                   REFERENCE='SOURCE_EXTERNE',
                   RESULTAT=REPACM,
                   NOM_CHAM='DEPL',
                   NOM_CMP='DZ',
                   VALE_CALC=-7.91606493E-03,
                   VALE_REFE=-7.9160649329440003E-3,
                   PRECISION=1.E-3, ),
                _F(GROUP_NO='B',
                   INST=0.5,
                   REFERENCE='SOURCE_EXTERNE',
                   RESULTAT=REPACM,
                   NOM_CHAM='ACCE',
                   NOM_CMP='DZ',
                   VALE_CALC=-4.014757609,
                   VALE_REFE=-4.0147576088701138,
                   PRECISION=1.E-3, ),
                _F(GROUP_NO='B',
                   INST=0.69999999999999996,
                   REFERENCE='SOURCE_EXTERNE',
                   RESULTAT=REPACM,
                   NOM_CHAM='ACCE',
                   NOM_CMP='DZ',
                   VALE_CALC=1.648991828,
                   VALE_REFE=1.6489918279121749,
                   PRECISION=1.E-3, ),
                _F(GROUP_NO='B',
                   INST=1.0,
                   REFERENCE='SOURCE_EXTERNE',
                   RESULTAT=REPACM,
                   NOM_CHAM='ACCE',
                   NOM_CMP='DZ',
                   VALE_CALC=3.763679971,
                   VALE_REFE=3.7636799711489002,
                   PRECISION=1.E-3, ),
                _F(GROUP_NO='B',
                   INST=0.5,
                   REFERENCE='SOURCE_EXTERNE',
                   RESULTAT=REPHHT,
                   NOM_CHAM='DEPL',
                   NOM_CMP='DZ',
                   VALE_CALC=0.010775515,
                   VALE_REFE=0.010775515187707,
                   PRECISION=1.E-3, ),
                _F(GROUP_NO='B',
                   INST=0.69999999999999996,
                   REFERENCE='SOURCE_EXTERNE',
                   RESULTAT=REPHHT,
                   NOM_CHAM='DEPL',
                   NOM_CMP='DZ',
                   VALE_CALC=-4.17874209E-03,
                   VALE_REFE=-4.1787420850760001E-3,
                   PRECISION=1.E-3, ),
                _F(GROUP_NO='B',
                   INST=1.0,
                   REFERENCE='SOURCE_EXTERNE',
                   RESULTAT=REPHHT,
                   NOM_CHAM='DEPL',
                   NOM_CMP='DZ',
                   VALE_CALC=-0.013121050,
                   VALE_REFE=-0.013121050364359999,
                   PRECISION=1.E-3, ),
                _F(GROUP_NO='B',
                   INST=0.5,
                   REFERENCE='SOURCE_EXTERNE',
                   RESULTAT=REPHHT,
                   NOM_CHAM='ACCE',
                   NOM_CMP='DZ',
                   VALE_CALC=-4.686476425,
                   VALE_REFE=-4.6864764249453774,
                   PRECISION=1.E-3, ),
                _F(GROUP_NO='B',
                   INST=0.69999999999999996,
                   REFERENCE='SOURCE_EXTERNE',
                   RESULTAT=REPHHT,
                   NOM_CHAM='ACCE',
                   NOM_CMP='DZ',
                   VALE_CALC=2.754032987,
                   VALE_REFE=2.7540329873125979,
                   PRECISION=1.E-3, ),
                _F(GROUP_NO='B',
                   INST=1.0,
                   REFERENCE='SOURCE_EXTERNE',
                   RESULTAT=REPHHT,
                   NOM_CHAM='ACCE',
                   NOM_CMP='DZ',
                   VALE_CALC=5.958627685,
                   VALE_REFE=5.9586276847714004,
                   PRECISION=1.E-3, ),
                _F(GROUP_NO='B',
                   INST=0.5,
                   REFERENCE='SOURCE_EXTERNE',
                   RESULTAT=REPHHTP,
                   NOM_CHAM='DEPL',
                   NOM_CMP='DZ',
                   VALE_CALC=0.010775515,
                   VALE_REFE=0.010775515187707,
                   PRECISION=1.E-3, ),
                _F(GROUP_NO='B',
                   INST=0.69999999999999996,
                   REFERENCE='SOURCE_EXTERNE',
                   RESULTAT=REPHHTP,
                   NOM_CHAM='DEPL',
                   NOM_CMP='DZ',
                   VALE_CALC=-4.17874209E-03,
                   VALE_REFE=-4.1787420850760001E-3,
                   PRECISION=1.E-3, ),
                _F(GROUP_NO='B',
                   INST=1.0,
                   REFERENCE='SOURCE_EXTERNE',
                   RESULTAT=REPHHTP,
                   NOM_CHAM='DEPL',
                   NOM_CMP='DZ',
                   VALE_CALC=-0.013121050,
                   VALE_REFE=-0.013121050364359999,
                   PRECISION=1.E-3, ),
                _F(GROUP_NO='B',
                   INST=0.5,
                   REFERENCE='SOURCE_EXTERNE',
                   RESULTAT=REPHHTP,
                   NOM_CHAM='ACCE',
                   NOM_CMP='DZ',
                   VALE_CALC=-4.686476425,
                   VALE_REFE=-4.6864764249453774,
                   PRECISION=1.E-3, ),
                _F(GROUP_NO='B',
                   INST=0.69999999999999996,
                   REFERENCE='SOURCE_EXTERNE',
                   RESULTAT=REPHHTP,
                   NOM_CHAM='ACCE',
                   NOM_CMP='DZ',
                   VALE_CALC=2.754032987,
                   VALE_REFE=2.7540329873125979,
                   PRECISION=1.E-3, ),
                _F(GROUP_NO='B',
                   INST=1.0,
                   REFERENCE='SOURCE_EXTERNE',
                   RESULTAT=REPHHTP,
                   NOM_CHAM='ACCE',
                   NOM_CMP='DZ',
                   VALE_CALC=5.958627685,
                   VALE_REFE=5.9586276847714004,
                   PRECISION=1.E-3, ),
                _F(GROUP_NO='B',
                   INST=0.5,
                   REFERENCE='SOURCE_EXTERNE',
                   RESULTAT=REPKRE,
                   NOM_CHAM='DEPL',
                   NOM_CMP='DZ',
                   VALE_CALC= 9.58700213E-03,
                   VALE_REFE=9.5870021341209997E-3,
                   PRECISION=1.E-3, ),
                _F(GROUP_NO='B',
                   INST=0.69999999999999996,
                   REFERENCE='SOURCE_EXTERNE',
                   RESULTAT=REPKRE,
                   NOM_CHAM='DEPL',
                   NOM_CMP='DZ',
                   VALE_CALC=-2.81124604E-03,
                   VALE_REFE=-2.8112460401650001E-3,
                   PRECISION=1.E-3, ),
                _F(GROUP_NO='B',
                   INST=1.0,
                   REFERENCE='SOURCE_EXTERNE',
                   RESULTAT=REPKRE,
                   NOM_CHAM='DEPL',
                   NOM_CMP='DZ',
                   VALE_CALC=-9.41577491E-03,
                   VALE_REFE=-9.4157749054510007E-3,
                   PRECISION=1.E-3, ),
                _F(GROUP_NO='B',
                   INST=0.5,
                   REFERENCE='SOURCE_EXTERNE',
                   RESULTAT=REPKRE,
                   NOM_CHAM='ACCE',
                   NOM_CMP='DZ',
                   VALE_CALC=-4.172504469,
                   VALE_REFE=-4.1725044691245712,
                   PRECISION=1.E-3, ),
                _F(GROUP_NO='B',
                   INST=0.69999999999999996,
                   REFERENCE='SOURCE_EXTERNE',
                   RESULTAT=REPKRE,
                   NOM_CHAM='ACCE',
                   NOM_CMP='DZ',
                   VALE_CALC=1.816774707,
                   VALE_REFE=1.816774707056394,
                   PRECISION=1.E-3, ),
                _F(GROUP_NO='B',
                   INST=1.0,
                   REFERENCE='SOURCE_EXTERNE',
                   RESULTAT=REPKRE,
                   NOM_CHAM='ACCE',
                   NOM_CMP='DZ',
                   VALE_CALC=4.175270665,
                   VALE_REFE=4.175270664768135,
                   PRECISION=1.E-3, ),
                _F(GROUP_NO='B',
                   INST=0.5,
                   REFERENCE='SOURCE_EXTERNE',
                   RESULTAT=REPKRD,
                   NOM_CHAM='DEPL',
                   NOM_CMP='DZ',
                   VALE_CALC= 9.58700213E-03,
                   VALE_REFE=9.5870021341209997E-3,
                   PRECISION=1.E-3, ),
                _F(GROUP_NO='B',
                   INST=0.69999999999999996,
                   REFERENCE='SOURCE_EXTERNE',
                   RESULTAT=REPKRD,
                   NOM_CHAM='DEPL',
                   NOM_CMP='DZ',
                   VALE_CALC=-2.81124604E-03,
                   VALE_REFE=-2.8112460401650001E-3,
                   PRECISION=1.E-3, ),
                _F(GROUP_NO='B',
                   INST=1.0,
                   REFERENCE='SOURCE_EXTERNE',
                   RESULTAT=REPKRD,
                   NOM_CHAM='DEPL',
                   NOM_CMP='DZ',
                   VALE_CALC=-9.41577491E-03,
                   VALE_REFE=-9.4157749054510007E-3,
                   PRECISION=1.E-3, ),
                _F(GROUP_NO='B',
                   INST=0.5,
                   REFERENCE='SOURCE_EXTERNE',
                   RESULTAT=REPKRD,
                   NOM_CHAM='ACCE',
                   NOM_CMP='DZ',
                   VALE_CALC=-4.172504469,
                   VALE_REFE=-4.1725044691245294,
                   PRECISION=1.E-3, ),
                _F(GROUP_NO='B',
                   INST=0.69999999999999996,
                   REFERENCE='SOURCE_EXTERNE',
                   RESULTAT=REPKRD,
                   NOM_CHAM='ACCE',
                   NOM_CMP='DZ',
                   VALE_CALC=1.816774707,
                   VALE_REFE=1.816774707056418,
                   PRECISION=1.E-3, ),
                _F(GROUP_NO='B',
                   INST=1.0,
                   REFERENCE='SOURCE_EXTERNE',
                   RESULTAT=REPKRD,
                   NOM_CHAM='ACCE',
                   NOM_CMP='DZ',
                   VALE_CALC=4.175270665,
                   VALE_REFE=4.1752706647681279,
                   PRECISION=1.E-3, ),
                ),
          )

FIN();
