# TITRE SYSTEME MASSE-RESSORT A 8 DDL AVEC AMORTISSEMENT VISQUEUX
# ======================================================================
# COPYRIGHT (C) 1991 - 2012  EDF R&D                  WWW.CODE-ASTER.ORG
# THIS PROGRAM IS FREE SOFTWARE; YOU CAN REDISTRIBUTE IT AND/OR MODIFY  
# IT UNDER THE TERMS OF THE GNU GENERAL PUBLIC LICENSE AS PUBLISHED BY  
# THE FREE SOFTWARE FOUNDATION; EITHER VERSION 2 OF THE LICENSE, OR     
# (AT YOUR OPTION) ANY LATER VERSION.                                                    
#                                                                       
# THIS PROGRAM IS DISTRIBUTED IN THE HOPE THAT IT WILL BE USEFUL, BUT   
# WITHOUT ANY WARRANTY; WITHOUT EVEN THE IMPLIED WARRANTY OF            
# MERCHANTABILITY OR FITNESS FOR A PARTICULAR PURPOSE. SEE THE GNU      
# GENERAL PUBLIC LICENSE FOR MORE DETAILS.                              
#                                                                       
# YOU SHOULD HAVE RECEIVED A COPY OF THE GNU GENERAL PUBLIC LICENSE     
# ALONG WITH THIS PROGRAM; IF NOT, WRITE TO EDF R&D CODE_ASTER,         
#    1 AVENUE DU GENERAL DE GAULLE, 92141 CLAMART CEDEX, FRANCE.        
# ======================================================================
#
# ----------------------------------------------------------------------
# SYSTEME MASSE-RESSORT A 8 DEGRES DE LIBERTE AVEC AMORTISSEMENT
# VISQUEUX PROPORTIONNEL (ANALYSE MODALE)
# 9 RESSORTS  8 MASSES  -- K =1.E+5    M =10 --
# CALCUL MODAL QUADRATIQUE REEL SYMETRIQUE AVEC SORENSEN ET QZ
#                                                 REF: SFM.VPCS SDLD21 
# ----------------------------------------------------------------------
#
#CAS_TEST__:SDLD21C
#

DEBUT(CODE=_F(NIV_PUB_WEB='INTERNET'),DEBUG=_F(SDVERI='OUI'),
              IMPR_MACRO='OUI')

MA=LIRE_MAILLAGE();

MO=AFFE_MODELE(MAILLAGE=MA,
               AFFE=(_F(TOUT='OUI',
                        PHENOMENE='MECANIQUE',
                        MODELISATION='DIS_T',),
                     _F(GROUP_NO='MASSE',
                        PHENOMENE='MECANIQUE',
                        MODELISATION='DIS_T',),),);

MATER=DEFI_MATERIAU(ELAS=_F(E=200000000000.0,
                            NU=0.3,),);

CHMATER=AFFE_MATERIAU(MAILLAGE=MA,
                      AFFE=_F(TOUT='OUI',
                              MATER=MATER,),);

CARELEM=AFFE_CARA_ELEM(MODELE=MO,
                       DISCRET=(_F(GROUP_MA='RESSORT',
                                   CARA='K_T_D_L',
                                   VALE=(100000.0,1.0,1.0,),),
                                _F(GROUP_NO='MASSE',
                                   CARA='M_T_D_N',
                                   VALE=10.0,),
                                _F(GROUP_NO = 'MASSE',  
                                   CARA = 'A_T_D_N',
                                   VALE = (0.,0.,0.)),
                                _F(GROUP_MA='AMORTIS',
                                   CARA='A_T_D_L',
                                   VALE=(50.0,1.0,1.0,),),),);

CH=AFFE_CHAR_MECA(MODELE=MO,
                  DDL_IMPO=(_F(GROUP_NO='A_ET_B',
                               DX=0.0,
                               DY=0.0,
                               DZ=0.0,),
                            _F(GROUP_NO='MASSE',
                               DY=0.0,
                               DZ=0.0,),),);
# --------------------------------------------------------------------
#
#
#
#


ASSEMBLAGE(MODELE=MO,
           CARA_ELEM=CARELEM,
           CHARGE=CH,
           NUME_DDL=CO('NUM'),
           MATR_ASSE=(_F(MATRICE=CO('MATASSR'),
                         OPTION='RIGI_MECA',),
                      _F(MATRICE=CO('MATASSM'),
                         OPTION='MASS_MECA',),
                      _F(MATRICE=CO('MATASSC'),
                         OPTION='AMOR_MECA',),),);
# --------------------------------------------------------------------
#
#
#
#


MODES=CALC_MODES(MATR_RIGI=MATASSR,
                 OPTION='CENTRE',
                 CALC_FREQ=_F(NMAX_FREQ=5,
                              FREQ=5.0,
                              ),
                 MATR_AMOR=MATASSC,
                 MATR_MASS=MATASSM,
                 SOLVEUR_MODAL=_F(APPROCHE='REEL',
                                  METHODE='SORENSEN',
                                  ),
                 )
MODESN=NORM_MODE(MODE=MODES,NORME='MASS_GENE')

# AVEC QZ + OPTION='CENTRE' + 'QZ_SIMPLE'

MODE_QZ1=CALC_MODES(MATR_RIGI=MATASSR,
                    OPTION='CENTRE',
                    CALC_FREQ=_F(NMAX_FREQ=5,
                                 FREQ=5.0,
                                 ),
                    MATR_AMOR=MATASSC,
                    MATR_MASS=MATASSM,
                    SOLVEUR_MODAL=_F(TYPE_QZ='QZ_SIMPLE',
                                     METHODE='QZ',
                                     ),
                    )
MODE_QZ1=NORM_MODE(MODE=MODE_QZ1,reuse=MODE_QZ1,NORME='MASS_GENE')

# --------------------------------------------------------------------
#

# --------------------------------------------------------------------
#

TEST_RESU(RESU=(_F(NUME_ORDRE=1,
                   PARA='FREQ',
                   REFERENCE='ANALYTIQUE',
                   RESULTAT=MODES,
                   VALE_CALC=5.527184824,
                   VALE_REFE=5.5270999999999999,
                   CRITERE='RELATIF',
                   PRECISION=1.E-3,),
                _F(NUME_ORDRE=2,
                   PARA='FREQ',
                   REFERENCE='ANALYTIQUE',
                   RESULTAT=MODES,
                   VALE_CALC=10.885247275,
                   VALE_REFE=10.886799999999999,
                   CRITERE='RELATIF',
                   PRECISION=1.E-3,),
                _F(NUME_ORDRE=3,
                   PARA='FREQ',
                   REFERENCE='ANALYTIQUE',
                   RESULTAT=MODES,
                   VALE_CALC=15.910519940,
                   VALE_REFE=15.9155,
                   PRECISION=1.E-2,),
                _F(NUME_ORDRE=4,
                   PARA='FREQ',
                   REFERENCE='ANALYTIQUE',
                   RESULTAT=MODES,
                   VALE_CALC=20.449995092,
                   VALE_REFE=20.460599999999999,
                   PRECISION=1.E-2,),
                _F(NUME_ORDRE=5,
                   PARA='FREQ',
                   REFERENCE='ANALYTIQUE',
                   RESULTAT=MODES,
                   VALE_CALC=24.366059022,
                   VALE_REFE=24.384,
                   PRECISION=1.E-2,),
                ),
          )

TEST_RESU(RESU=(_F(NUME_ORDRE=1,
                   PARA='AMOR_REDUIT',
                   REFERENCE='ANALYTIQUE',
                   RESULTAT=MODES,
                   VALE_CALC= 8.68240888E-03,
                   VALE_REFE=8.6824099999999998E-3,
                   CRITERE='RELATIF',
                   PRECISION=1.E-3,),
                _F(NUME_ORDRE=2,
                   PARA='AMOR_REDUIT',
                   REFERENCE='ANALYTIQUE',
                   RESULTAT=MODES,
                   VALE_CALC=0.017101007,
                   VALE_REFE=0.017101000000000002,
                   CRITERE='RELATIF',
                   PRECISION=1.E-3,),
                _F(NUME_ORDRE=3,
                   PARA='AMOR_REDUIT',
                   REFERENCE='ANALYTIQUE',
                   RESULTAT=MODES,
                   VALE_CALC=0.025000000,
                   VALE_REFE=0.025000000000000001,
                   PRECISION=1.E-2,),
                _F(NUME_ORDRE=4,
                   PARA='AMOR_REDUIT',
                   REFERENCE='ANALYTIQUE',
                   RESULTAT=MODES,
                   VALE_CALC=0.032139380,
                   VALE_REFE=0.032139399999999999,
                   PRECISION=1.E-2,),
                _F(NUME_ORDRE=5,
                   PARA='AMOR_REDUIT',
                   REFERENCE='ANALYTIQUE',
                   RESULTAT=MODES,
                   VALE_CALC=0.038302222,
                   VALE_REFE=0.038302200000000002,
                   PRECISION=1.E-2,),
                ),
          )

TEST_RESU(RESU=(_F(NUME_ORDRE=1,
                   VALE_ABS='OUI',
                   VALE_REFE_C=('RI', 4.3258699999999999E-3, -4.3258699999999999E-3),
                   VALE_CALC_C=('RI', 4.3258699999999999E-3, -4.3258699999999999E-3),
                   PRECISION=1.E-3,
                   RESULTAT=MODESN,
                   NOM_CHAM='DEPL',
                   NOEUD='P1',
                   NOM_CMP='DX',
                   CRITERE='RELATIF',
                   REFERENCE='ANALYTIQUE',
                   ),
                _F(NUME_ORDRE=2,
                   VALE_ABS='OUI',
                   VALE_REFE_C=('RI', -5.7932499999999998E-3, 5.7932499999999998E-3),
                   VALE_CALC_C=('RI', -5.7932499999999998E-3, 5.7932499999999998E-3),
                   PRECISION=1.E-3,
                   RESULTAT=MODESN,
                   NOM_CHAM='DEPL',
                   NOEUD='P1',
                   NOM_CMP='DX',
                   REFERENCE='ANALYTIQUE',
                   ),
                _F(NUME_ORDRE=3,
                   VALE_ABS='OUI',
                   VALE_REFE_C=('RI', 6.4559800000000001E-3, 6.4559800000000001E-3),
                   VALE_CALC_C=('RI', 6.4559800000000001E-3, 6.4559800000000001E-3),
                   PRECISION=1.E-3,
                   RESULTAT=MODESN,
                   NOM_CHAM='DEPL',
                   NOEUD='P1',
                   NOM_CMP='DX',
                   CRITERE='RELATIF',
                   REFERENCE='ANALYTIQUE',
                   ),
                _F(NUME_ORDRE=4,
                   VALE_ABS='OUI',
                   VALE_REFE_C=('RI', 6.4755799999999999E-3, -6.4755799999999999E-3),
                   VALE_CALC_C=('RI', 6.4755799999999999E-3, -6.4755799999999999E-3),
                   PRECISION=1.E-3,
                   RESULTAT=MODESN,
                   NOM_CHAM='DEPL',
                   NOEUD='P1',
                   NOM_CMP='DX',
                   CRITERE='RELATIF',
                   REFERENCE='ANALYTIQUE',
                   ),
                _F(NUME_ORDRE=5,
                   VALE_ABS='OUI',
                   VALE_REFE_C=('RI', 5.9324299999999998E-3, -5.9324299999999998E-3),
                   VALE_CALC_C=('RI', 5.9324299999999998E-3, -5.9324299999999998E-3),
                   PRECISION=1.E-3,
                   RESULTAT=MODESN,
                   NOM_CHAM='DEPL',
                   NOEUD='P1',
                   NOM_CMP='DX',
                   CRITERE='RELATIF',
                   REFERENCE='ANALYTIQUE',
                   ),
                ),
          )

# POUR QZ
TEST_RESU(RESU=(_F(NUME_ORDRE=1,
                   PARA='FREQ',
                   REFERENCE='ANALYTIQUE',
                   RESULTAT=MODE_QZ1,
                   VALE_CALC=5.527184824,
                   VALE_REFE=5.5270999999999999,
                   CRITERE='RELATIF',
                   PRECISION=1.E-3,),
                _F(NUME_ORDRE=2,
                   PARA='FREQ',
                   REFERENCE='ANALYTIQUE',
                   RESULTAT=MODE_QZ1,
                   VALE_CALC=10.885247275,
                   VALE_REFE=10.886799999999999,
                   CRITERE='RELATIF',
                   PRECISION=1.E-3,),
                _F(NUME_ORDRE=3,
                   PARA='FREQ',
                   REFERENCE='ANALYTIQUE',
                   RESULTAT=MODE_QZ1,
                   VALE_CALC=15.910519940,
                   VALE_REFE=15.9155,
                   PRECISION=1.E-2,),
                _F(NUME_ORDRE=4,
                   PARA='FREQ',
                   REFERENCE='ANALYTIQUE',
                   RESULTAT=MODE_QZ1,
                   VALE_CALC=20.449995092,
                   VALE_REFE=20.460599999999999,
                   PRECISION=1.E-2,),
                _F(NUME_ORDRE=5,
                   PARA='FREQ',
                   REFERENCE='ANALYTIQUE',
                   RESULTAT=MODE_QZ1,
                   VALE_CALC=24.366059022,
                   VALE_REFE=24.384,
                   PRECISION=1.E-2,),
                ),
          )

TEST_RESU(RESU=(_F(NUME_ORDRE=1,
                   PARA='AMOR_REDUIT',
                   REFERENCE='ANALYTIQUE',
                   RESULTAT=MODE_QZ1,
                   VALE_CALC= 8.68240888E-03,
                   VALE_REFE=8.6824099999999998E-3,
                   CRITERE='RELATIF',
                   PRECISION=1.E-3,),
                _F(NUME_ORDRE=2,
                   PARA='AMOR_REDUIT',
                   REFERENCE='ANALYTIQUE',
                   RESULTAT=MODE_QZ1,
                   VALE_CALC=0.017101007,
                   VALE_REFE=0.017101000000000002,
                   CRITERE='RELATIF',
                   PRECISION=1.E-3,),
                _F(NUME_ORDRE=3,
                   PARA='AMOR_REDUIT',
                   REFERENCE='ANALYTIQUE',
                   RESULTAT=MODE_QZ1,
                   VALE_CALC=0.025000000,
                   VALE_REFE=0.025000000000000001,
                   PRECISION=1.E-2,),
                _F(NUME_ORDRE=4,
                   PARA='AMOR_REDUIT',
                   REFERENCE='ANALYTIQUE',
                   RESULTAT=MODE_QZ1,
                   VALE_CALC=0.032139380,
                   VALE_REFE=0.032139399999999999,
                   PRECISION=1.E-2,),
                _F(NUME_ORDRE=5,
                   PARA='AMOR_REDUIT',
                   REFERENCE='ANALYTIQUE',
                   RESULTAT=MODE_QZ1,
                   VALE_CALC=0.038302222,
                   VALE_REFE=0.038302200000000002,
                   PRECISION=1.E-2,),
                ),
          )

TEST_RESU(RESU=(_F(NUME_ORDRE=1,
                   VALE_ABS='OUI',
                   VALE_REFE_C=('RI', 4.3258699999999999E-3, -4.3258699999999999E-3),
                   VALE_CALC_C=('RI', 4.3258699999999999E-3, -4.3258699999999999E-3),
                   PRECISION=1.E-3,
                   RESULTAT=MODE_QZ1,
                   NOM_CHAM='DEPL',
                   NOEUD='P1',
                   NOM_CMP='DX',
                   CRITERE='RELATIF',
                   REFERENCE='ANALYTIQUE',
                   ),
                _F(NUME_ORDRE=2,
                   VALE_ABS='OUI',
                   VALE_REFE_C=('RI', -5.7932499999999998E-3, 5.7932499999999998E-3),
                   VALE_CALC_C=('RI', -5.7932499999999998E-3, 5.7932499999999998E-3),
                   PRECISION=1.E-3,
                   RESULTAT=MODE_QZ1,
                   NOM_CHAM='DEPL',
                   NOEUD='P1',
                   NOM_CMP='DX',
                   REFERENCE='ANALYTIQUE',
                   ),
                _F(NUME_ORDRE=3,
                   VALE_ABS='OUI',
                   VALE_REFE_C=('RI', 6.4559800000000001E-3, 6.4559800000000001E-3),
                   VALE_CALC_C=('RI', 6.4559800000000001E-3, 6.4559800000000001E-3),
                   PRECISION=1.E-3,
                   RESULTAT=MODE_QZ1,
                   NOM_CHAM='DEPL',
                   NOEUD='P1',
                   NOM_CMP='DX',
                   CRITERE='RELATIF',
                   REFERENCE='ANALYTIQUE',
                   ),
                _F(NUME_ORDRE=4,
                   VALE_ABS='OUI',
                   VALE_REFE_C=('RI', 6.4755799999999999E-3, -6.4755799999999999E-3),
                   VALE_CALC_C=('RI', 6.4755799999999999E-3, -6.4755799999999999E-3),
                   PRECISION=1.E-3,
                   RESULTAT=MODE_QZ1,
                   NOM_CHAM='DEPL',
                   NOEUD='P1',
                   NOM_CMP='DX',
                   CRITERE='RELATIF',
                   REFERENCE='ANALYTIQUE',
                   ),
                _F(NUME_ORDRE=5,
                   VALE_ABS='OUI',
                   VALE_REFE_C=('RI', 5.9324299999999998E-3, -5.9324299999999998E-3),
                   VALE_CALC_C=('RI', 5.9324299999999998E-3, -5.9324299999999998E-3),
                   PRECISION=1.E-3,
                   RESULTAT=MODE_QZ1,
                   NOM_CHAM='DEPL',
                   NOEUD='P1',
                   NOM_CMP='DX',
                   CRITERE='RELATIF',
                   REFERENCE='ANALYTIQUE',
                   ),
                ),
          )

FIN();
