# MODIF  DATE 26/05/2008   AUTEUR BOITEAU O.BOITEAU 
# TITRE  8 MASSES ET 9 RESSORT/AMORTISSEURS SOUS EXCITATION ALEATOIRE
#            CONFIGURATION MANAGEMENT OF EDF VERSION
# ======================================================================
# COPYRIGHT (C) 1991 - 2001  EDF R&D                  WWW.CODE-ASTER.ORG
# THIS PROGRAM IS FREE SOFTWARE; YOU CAN REDISTRIBUTE IT AND/OR MODIFY
# IT UNDER THE TERMS OF THE GNU GENERAL PUBLIC LICENSE AS PUBLISHED BY
# THE FREE SOFTWARE FOUNDATION; EITHER VERSION 2 OF THE LICENSE, OR
# (AT YOUR OPTION) ANY LATER VERSION.
#
# THIS PROGRAM IS DISTRIBUTED IN THE HOPE THAT IT WILL BE USEFUL, BUT
# WITHOUT ANY WARRANTY; WITHOUT EVEN THE IMPLIED WARRANTY OF
# MERCHANTABILITY OR FITNESS FOR A PARTICULAR PURPOSE. SEE THE GNU
# GENERAL PUBLIC LICENSE FOR MORE DETAILS.
#
# YOU SHOULD HAVE RECEIVED A COPY OF THE GNU GENERAL PUBLIC LICENSE
# ALONG WITH THIS PROGRAM; IF NOT, WRITE TO EDF R&D CODE_ASTER,
#    1 AVENUE DU GENERAL DE GAULLE, 92141 CLAMART CEDEX, FRANCE.
# ======================================================================
#
#**CAS TEST DU VPCS: ENSEMBLE DE MASSES ET RESSORTS*******************#
#  CALCUL MODAL QUADRATIQUE REEL SYMETRIQUE AVEC TRI_DIAG ET QZ
#
#*********************************************************************#
DEBUT(CODE=_F(NOM='SDLD23A',NIV_PUB_WEB='INTERNET'),DEBUG=_F(SDVERI='OUI'))

#*********************************************************************#
# *****LECTURE DU MAILLAGE********************************************#
#*********************************************************************#
MA1=LIRE_MAILLAGE( )

#*********************************************************************#
# *****AFFECTATION D ELEMENTS SUR LES MAILLES*************************#
#*********************************************************************#
MO1=AFFE_MODELE(  MAILLAGE=MA1,AFFE=(
       _F(                TOUT = 'OUI',
                            PHENOMENE = 'MECANIQUE',
                            MODELISATION = 'DIS_T'),
       _F(                NOEUD = ('A', 'P1', 'P2', 'P3', 'P4', 'P5', 'P6', 'P7', 'P8', 'B',),
                            PHENOMENE = 'MECANIQUE',
                            MODELISATION = 'DIS_T'))
                            )

#*********************************************************************#
# *****CARACTERISTIQUES DES ELEMENTS DE POUTRE ET DE MASSE************#
#*********************************************************************#
CARELEM1=AFFE_CARA_ELEM(   MODELE=MO1,DISCRET=(
     _F(  NOEUD = ( 'A', 'P1', 'P2', 'P3', 'P4', 'P5', 'P6', 'P7', 'P8', 'B',),
               CARA = 'M_T_D_N',
               VALE = (10., )),
     _F(  MAILLE = ('M1', 'M2', 'M3', 'M4', 'M5', 'M6', 'M7', 'M8', 'M9',),
               CARA = 'K_T_D_L',
               VALE = (1.E+5, 0., 0.,)),
     _F(  MAILLE = ('M1', 'M2', 'M3', 'M4', 'M5', 'M6', 'M7', 'M8', 'M9',),
               CARA = 'A_T_D_L',
               VALE = (50., 0., 0.,)))
                         )

#*********************************************************************#
# *****CONDITIONS AUX LIMITES*****************************************#
#*********************************************************************#
CHARGE1=AFFE_CHAR_MECA(
             MODELE=MO1,DDL_IMPO=(
            _F( TOUT = 'OUI',
                     DZ = 0.0,
                     DY = 0.0),
            _F( NOEUD = ('A', 'B',),
                     DX = 0.0))
                                 )

#*********************************************************************#
# *****MATRICES ELEMENTAIRES ET ASSEMBLAGE****************************#
#*********************************************************************#
MELR1=CALC_MATR_ELEM(  MODELE=MO1,
                        CHARGE=CHARGE1,
                       OPTION='RIGI_MECA',
                        CARA_ELEM=CARELEM1  )

MELM1=CALC_MATR_ELEM(  MODELE=MO1,
                        CHARGE=CHARGE1,
                       OPTION='MASS_MECA',
                        CARA_ELEM=CARELEM1  )

MELA1=CALC_MATR_ELEM(  MODELE=MO1,
                        CHARGE=CHARGE1,
                       OPTION='AMOR_MECA',
                        CARA_ELEM=CARELEM1  )

#
NUM1=NUME_DDL(  MATR_RIGI=MELR1 )

MATASSR1=ASSE_MATRICE(MATR_ELEM=MELR1,NUME_DDL=NUM1)

MATASSM1=ASSE_MATRICE(MATR_ELEM=MELM1,NUME_DDL=NUM1)

MATASSA1=ASSE_MATRICE(MATR_ELEM=MELA1,NUME_DDL=NUM1)

#*********************************************************************#
# *****CALCUL DE MODES PROPRES ET IMPRESSION FORMAT IDEAS*************#
#*********************************************************************#

FREQ3=MODE_ITER_SIMULT(    MATR_A=MATASSR1,
                              MATR_B=MATASSM1,
                              MATR_C=MATASSA1,
                             METHODE='TRI_DIAG',
                           CALC_FREQ=_F(  OPTION = 'PLUS_PETITE',
                                       NMAX_FREQ = 8),
                           VERI_MODE=_F( SEUIL = 1.E-5)
              )
# AVEC QZ + OPTION='PLUS_PETITE' + 'QZ_SIMPLE'
FREQZ=MODE_ITER_SIMULT(    MATR_A=MATASSR1,
                              MATR_B=MATASSM1,
                              MATR_C=MATASSA1,
                             METHODE='QZ',TYPE_QZ='QZ_SIMPLE',
                           CALC_FREQ=_F(  OPTION = 'PLUS_PETITE',
                                       NMAX_FREQ = 8),
                           VERI_MODE=_F( SEUIL = 1.E-5)
              )
#*********************************************************************#
# *****LECTURE DE L INTERSPECTRE EXCITATION***************************#
#*********************************************************************#

FINTER=DEFI_FONCTION(
             NOM_PARA='FREQ',
             NOM_RESU='DSP',
         VALE_C=(0., 0., 0., 2.999, 0., 0., 3., 1., 0., 13., 1., 0., 13.0001, 0., 0.,),
             PROL_DROITE='CONSTANT',
             PROL_GAUCHE='CONSTANT'
                        )

INTEREXC=DEFI_INTE_SPEC(    DIMENSION=1,
                PAR_FONCTION=_F(  NUME_ORDRE_I = 1,
                               NUME_ORDRE_J = 1,
                               FONCTION = FINTER)
                          )

#*********************************************************************#
# *****CALCUL D INTERSPECTRES REPONSE*********************************#
#******   DIFFERENTES DISCRETISATIONS*********************************#
#*********************************************************************#

DYNALEA0=DYNA_ALEA_MODAL(
          BASE_MODALE=_F(
             MODE_MECA = FREQ3,
             NUME_ORDRE = (1, 2, 3, 4, 5, 6, 7, 8,),
             AMOR_REDUIT = (0.00868241, 0.01710101, 0.025, 0.03213938,
                      0.03830222, 0.04331851, 0.04698464, 0.0492404,)),
           EXCIT=_F(
             INTE_SPEC = INTEREXC,
             GRANDEUR = 'EFFO',
             NUME_ORDRE_I = 1,
             NUME_ORDRE_J = 1,
             NOEUD = 'P4',
             NOM_CMP = 'DX'),
              REPONSE=_F(
             FREQ_MIN = 4.5259,
             FREQ_MAX = 10.,
             PAS = 1.)
                              )

INTERRE0=REST_SPEC_PHYS(         MODE_MECA=FREQ3,
                                   NUME_ORDRE=(1, 2, 3, 4, 5, 6, 7, 8,),
                               INTE_SPEC_GENE=DYNALEA0,
                                     NOM_CHAM='DEPL',
                                         NOEUD='P4',
                                      NOM_CMP='DX',
                                       OPTION='TOUT_TOUT'   )

TEST_FONCTION(
     TABL_INTSP=_F(  INTE_SPEC = INTERRE0,
                  NOEUD_I = 'P4',
                  NOM_CMP_I = 'DX',
                  NOEUD_J = 'P4',
                  NOM_CMP_J = 'DX',
                  VALE_PARA = 5.5259,
                  VALE_REFE_C = 0.1059E-5+0.j) )

# POUR QZ
DYNALEAZ=DYNA_ALEA_MODAL(
          BASE_MODALE=_F(
             MODE_MECA = FREQZ,
             NUME_ORDRE = (1, 2, 3, 4, 5, 6, 7, 8,),
             AMOR_REDUIT = (0.00868241, 0.01710101, 0.025, 0.03213938,
                      0.03830222, 0.04331851, 0.04698464, 0.0492404,)),
           EXCIT=_F(
             INTE_SPEC = INTEREXC,
             GRANDEUR = 'EFFO',
             NUME_ORDRE_I = 1,
             NUME_ORDRE_J = 1,
             NOEUD = 'P4',
             NOM_CMP = 'DX'),
              REPONSE=_F(
             FREQ_MIN = 4.5259,
             FREQ_MAX = 10.,
             PAS = 1.)
                              )

INTERREZ=REST_SPEC_PHYS(         MODE_MECA=FREQZ,
                                   NUME_ORDRE=(1, 2, 3, 4, 5, 6, 7, 8,),
                               INTE_SPEC_GENE=DYNALEAZ,
                                     NOM_CHAM='DEPL',
                                         NOEUD='P4',
                                      NOM_CMP='DX',
                                       OPTION='TOUT_TOUT'   )

TEST_FONCTION(
     TABL_INTSP=_F(  INTE_SPEC = INTERREZ,
                  NOEUD_I = 'P4',
                  NOM_CMP_I = 'DX',
                  NOEUD_J = 'P4',
                  NOM_CMP_J = 'DX',
                  VALE_PARA = 5.5259,
                  VALE_REFE_C = 0.1059E-5+0.j) )
#
# PAS PAR DEFAUT
#
DYNALEA1=DYNA_ALEA_MODAL(
          BASE_MODALE=_F(
             MODE_MECA = FREQ3,
             NUME_ORDRE = (1, 2, 3, 4, 5, 6, 7, 8,),
             AMOR_REDUIT = (0.00868241, 0.01710101, 0.025, 0.03213938,
                      0.03830222, 0.04331851, 0.04698464, 0.0492404,)),
           EXCIT=_F(
             INTE_SPEC = INTEREXC,
             GRANDEUR = 'EFFO',
             NUME_ORDRE_I = 1,
             NUME_ORDRE_J = 1,
             NOEUD = 'P4',
             NOM_CMP = 'DX')
                              )

INTERRE1=REST_SPEC_PHYS(         MODE_MECA=FREQ3,
                                   NUME_ORDRE=(1, 2, 3, 4, 5, 6, 7, 8,),
                               INTE_SPEC_GENE=DYNALEA1,
                                     NOM_CHAM='DEPL',
                                         NOEUD='P4',
                                      NOM_CMP='DX',
                                       OPTION='TOUT_TOUT'   )

# PAS FIXE 0.25
#

DYNALEA2=DYNA_ALEA_MODAL(
          BASE_MODALE=_F(
             MODE_MECA = FREQ3,
             NUME_ORDRE = (1, 2, 3, 4, 5, 6, 7, 8,),
             AMOR_REDUIT = (0.00868241, 0.01710101, 0.025, 0.03213938,
                      0.03830222, 0.04331851, 0.04698464, 0.0492404,)),
           EXCIT=_F(
             INTE_SPEC = INTEREXC,
             GRANDEUR = 'EFFO',
             NUME_ORDRE_I = 1,
             NUME_ORDRE_J = 1,
             NOEUD = 'P4',
             NOM_CMP = 'DX'),
              REPONSE=_F(
             FREQ_MIN = 0.,
             FREQ_MAX = 20.,
             PAS = 0.25)
                               )

INTERRE2=REST_SPEC_PHYS(         MODE_MECA=FREQ3,
                                   NUME_ORDRE=(1, 2, 3, 4, 5, 6, 7, 8,),
                               INTE_SPEC_GENE=DYNALEA2,
                                     NOM_CHAM='DEPL',
                                         NOEUD='P4',
                                      NOM_CMP='DX',
                                       OPTION='TOUT_TOUT'   )

#
#  PAS FIXE 0.05
#

DYNALEA3=DYNA_ALEA_MODAL(
          BASE_MODALE=_F(
             MODE_MECA = FREQ3,
             NUME_ORDRE = (1, 2, 3, 4, 5, 6, 7, 8,),
             AMOR_REDUIT = (0.00868241, 0.01710101, 0.025, 0.03213938,
                      0.03830222, 0.04331851, 0.04698464, 0.0492404,)),
           EXCIT=_F(
             INTE_SPEC = INTEREXC,
             GRANDEUR = 'EFFO',
             NUME_ORDRE_I = 1,
             NUME_ORDRE_J = 1,
             NOEUD = 'P4',
             NOM_CMP = 'DX'),
              REPONSE=_F(
             FREQ_MIN = 0.,
             FREQ_MAX = 20.,
             PAS = 0.05)
                               )

INTERRE3=REST_SPEC_PHYS(         MODE_MECA=FREQ3,
                                   NUME_ORDRE=(1, 2, 3, 4, 5, 6, 7, 8,),
                               INTE_SPEC_GENE=DYNALEA3,
                                     NOM_CHAM='DEPL',
                                         NOEUD='P4',
                                      NOM_CMP='DX',
                                       OPTION='TOUT_TOUT'   )

#  PAS FIXE 0.025
#

DYNALEA4=DYNA_ALEA_MODAL(
          BASE_MODALE=_F(
             MODE_MECA = FREQ3,
             NUME_ORDRE = (1, 2, 3, 4, 5, 6, 7, 8,),
             AMOR_REDUIT = (0.00868241, 0.01710101, 0.025, 0.03213938,
                      0.03830222, 0.04331851, 0.04698464, 0.0492404,)),
           EXCIT=_F(
             INTE_SPEC = INTEREXC,
             GRANDEUR = 'EFFO',
             NUME_ORDRE_I = 1,
             NUME_ORDRE_J = 1,
             NOEUD = 'P4',
             NOM_CMP = 'DX'),
              REPONSE=_F(
             FREQ_MIN = 0.,
             FREQ_MAX = 20.,
             PAS = 0.025)
                             )

INTERRE4=REST_SPEC_PHYS(         MODE_MECA=FREQ3,
                                   NUME_ORDRE=(1, 2, 3, 4, 5, 6, 7, 8,),
                               INTE_SPEC_GENE=DYNALEA4,
                                     NOM_CHAM='DEPL',
                                         NOEUD='P4',
                                      NOM_CMP='DX',
                                       OPTION='TOUT_TOUT'   )

#*********************************************************************#
# *****POST-TRAITEMENT:MOMENTS SPECTRAUX*****************************#
#*********************************************************************#
TABREP1=POST_DYNA_ALEA(    INTE_SPEC=INTERRE1,
                               NOEUD_I='P4',
                             NOM_CMP_I='DX',
                               NOEUD_J='P4',
                             NOM_CMP_J='DX',
                                MOMENT=( 6,  8, )
                        )

TABREP2=POST_DYNA_ALEA(    INTE_SPEC=INTERRE2,
                               NOEUD_I='P4',
                             NOM_CMP_I='DX',
                               NOEUD_J='P4',
                             NOM_CMP_J='DX',
                                MOMENT=( 6,  8, )
                        )

TABREP3=POST_DYNA_ALEA(    INTE_SPEC=INTERRE3,
                               NOEUD_I='P4',
                             NOM_CMP_I='DX',
                               NOEUD_J='P4',
                             NOM_CMP_J='DX',
                                MOMENT=( 6,  8, )
                        )

TABREP4=POST_DYNA_ALEA(    INTE_SPEC=INTERRE4,
                               NOEUD_I='P4',
                             NOM_CMP_I='DX',
                               NOEUD_J='P4',
                             NOM_CMP_J='DX',
                                MOMENT=( 6,  8, )
                        )

#
TEST_TABLE(      TABLE=TABREP2,FILTRE=(
                 _F(  NOM_PARA = 'NOEUD_I',
                          VALE_K = 'P4'),
                        _F(  NOM_PARA = 'NOEUD_J',
                          VALE_K = 'P4')),
               NOM_PARA='LAMBDA_00',
                   VALE=2.338953E-07 ,REFERENCE='NON_REGRESSION',)

TEST_TABLE(      TABLE=TABREP2,FILTRE=(
                 _F(  NOM_PARA = 'NOEUD_I',
                          VALE_K = 'P4'),
                        _F(  NOM_PARA = 'NOEUD_J',
                          VALE_K = 'P4')),
                NOM_PARA='LAMBDA_01',
                   VALE=8.068269E-06,REFERENCE='NON_REGRESSION'   )

TEST_TABLE(      TABLE=TABREP2,FILTRE=(
                 _F(  NOM_PARA = 'NOEUD_I',
                          VALE_K = 'P4'),
                        _F(  NOM_PARA = 'NOEUD_J',
                          VALE_K = 'P4')),
                NOM_PARA='LAMBDA_02',
                   VALE=2.790138E-04, REFERENCE='NON_REGRESSION'   )

TEST_TABLE(      TABLE=TABREP2,FILTRE=(
                 _F(  NOM_PARA = 'NOEUD_I',
                          VALE_K = 'P4'),
                        _F(  NOM_PARA = 'NOEUD_J',
                          VALE_K = 'P4')),
                NOM_PARA='LAMBDA_03',
                   VALE=9.6757609E-03, REFERENCE='NON_REGRESSION'   )

TEST_TABLE(      TABLE=TABREP2,FILTRE=(
                 _F(  NOM_PARA = 'NOEUD_I',
                          VALE_K = 'P4'),
                        _F(  NOM_PARA = 'NOEUD_J',
                          VALE_K = 'P4')),
                NOM_PARA='LAMBDA_04',
                   VALE=3.368154E-01 , REFERENCE='NON_REGRESSION'   )

TEST_TABLE(      TABLE=TABREP2,FILTRE=(
                 _F(  NOM_PARA = 'NOEUD_I',
                          VALE_K = 'P4'),
                        _F(  NOM_PARA = 'NOEUD_J',
                          VALE_K = 'P4')),
               NOM_PARA='ECART',
                   VALE=6.839523E-04 , REFERENCE='NON_REGRESSION'   )

TEST_TABLE(      TABLE=TABREP2,FILTRE=(
                 _F(  NOM_PARA = 'NOEUD_I',
                          VALE_K = 'P4'),
                        _F(  NOM_PARA = 'NOEUD_J',
                          VALE_K = 'P4')),
               NOM_PARA='NB_EXTREMA_P_S',
                   VALE=1.10594439E+01 , REFERENCE='NON_REGRESSION'   )

TEST_TABLE(      TABLE=TABREP2,FILTRE=(
                 _F(  NOM_PARA = 'NOEUD_I',
                          VALE_K = 'P4'),
                        _F(  NOM_PARA = 'NOEUD_J',
                          VALE_K = 'P4')),
               NOM_PARA='NB_PASS_ZERO_P_S',
                   VALE=1.09939097E+01  , REFERENCE='NON_REGRESSION'  )

TEST_TABLE(      TABLE=TABREP2,FILTRE=(
                 _F(  NOM_PARA = 'NOEUD_I',
                          VALE_K = 'P4'),
                        _F(  NOM_PARA = 'NOEUD_J',
                          VALE_K = 'P4')),
               NOM_PARA='FREQ_APPAR',
                   VALE=5.49695484E+00 , REFERENCE='NON_REGRESSION'   )

TEST_TABLE(      TABLE=TABREP2,FILTRE=(
                 _F(  NOM_PARA = 'NOEUD_I',
                          VALE_K = 'P4'),
                        _F(  NOM_PARA = 'NOEUD_J',
                          VALE_K = 'P4')),
               NOM_PARA='FACT_IRRE',
                   VALE=9.94074363E-01 , REFERENCE='NON_REGRESSION'   )

TEST_TABLE(      TABLE=TABREP2,FILTRE=(
                 _F(  NOM_PARA = 'NOEUD_I',
                          VALE_K = 'P4'),
                        _F(  NOM_PARA = 'NOEUD_J',
                          VALE_K = 'P4')),
               NOM_PARA='LAMBDA_06',
                   VALE=4.173157E+02 , REFERENCE='NON_REGRESSION'   )

TEST_TABLE(      TABLE=TABREP2,FILTRE=(
                 _F(  NOM_PARA = 'NOEUD_I',
                          VALE_K = 'P4'),
                        _F(  NOM_PARA = 'NOEUD_J',
                          VALE_K = 'P4')),
               NOM_PARA='LAMBDA_08',
                   VALE=5.600113E+05  , REFERENCE='NON_REGRESSION'  )

TEST_TABLE(      TABLE=TABREP3,FILTRE=(
                 _F(  NOM_PARA = 'NOEUD_I',
                          VALE_K = 'P4'),
                        _F(  NOM_PARA = 'NOEUD_J',
                          VALE_K = 'P4')),
               NOM_PARA='LAMBDA_00',
                   VALE=1.577675E-07  , REFERENCE='NON_REGRESSION'  )

TEST_TABLE(      TABLE=TABREP3,FILTRE=(
                 _F(  NOM_PARA = 'NOEUD_I',
                          VALE_K = 'P4'),
                        _F(  NOM_PARA = 'NOEUD_J',
                          VALE_K = 'P4')),
               NOM_PARA='LAMBDA_01',
                   VALE=5.454702E-06  , REFERENCE='NON_REGRESSION'  )

TEST_TABLE(      TABLE=TABREP3,FILTRE=(
                 _F(  NOM_PARA = 'NOEUD_I',
                          VALE_K = 'P4'),
                        _F(  NOM_PARA = 'NOEUD_J',
                          VALE_K = 'P4')),
               NOM_PARA='LAMBDA_02',
                   VALE=1.892842E-04  , REFERENCE='NON_REGRESSION'  )

TEST_TABLE(      TABLE=TABREP3,FILTRE=(
                 _F(  NOM_PARA = 'NOEUD_I',
                          VALE_K = 'P4'),
                        _F(  NOM_PARA = 'NOEUD_J',
                          VALE_K = 'P4')),
               NOM_PARA='LAMBDA_03',
                   VALE=6.5954298E-03   , REFERENCE='NON_REGRESSION' )

TEST_TABLE(      TABLE=TABREP3,FILTRE=(
                 _F(  NOM_PARA = 'NOEUD_I',
                          VALE_K = 'P4'),
                        _F(  NOM_PARA = 'NOEUD_J',
                          VALE_K = 'P4')),
               NOM_PARA='LAMBDA_04',
                   VALE=2.310876E-01  , REFERENCE='NON_REGRESSION'  )

TEST_TABLE(      TABLE=TABREP3,FILTRE=(
                 _F(  NOM_PARA = 'NOEUD_I',
                          VALE_K = 'P4'),
                        _F(  NOM_PARA = 'NOEUD_J',
                          VALE_K = 'P4')),
               NOM_PARA='ECART',
                   VALE=5.61725E-04   , REFERENCE='NON_REGRESSION' )

TEST_TABLE(      TABLE=TABREP3,FILTRE=(
                 _F(  NOM_PARA = 'NOEUD_I',
                          VALE_K = 'P4'),
                        _F(  NOM_PARA = 'NOEUD_J',
                          VALE_K = 'P4')),
               NOM_PARA='NB_EXTREMA_P_S',
                   VALE=1.112196E+01  , REFERENCE='NON_REGRESSION'  )

TEST_TABLE(      TABLE=TABREP3,FILTRE=(
                 _F(  NOM_PARA = 'NOEUD_I',
                          VALE_K = 'P4'),
                        _F(  NOM_PARA = 'NOEUD_J',
                          VALE_K = 'P4')),
               NOM_PARA='NB_PASS_ZERO_P_S',
                   VALE=1.102550E+01  , REFERENCE='NON_REGRESSION'  )

TEST_TABLE(      TABLE=TABREP3,FILTRE=(
                 _F(  NOM_PARA = 'NOEUD_I',
                          VALE_K = 'P4'),
                        _F(  NOM_PARA = 'NOEUD_J',
                          VALE_K = 'P4')),
               NOM_PARA='FACT_IRRE',
                   VALE=9.913275E-01 , REFERENCE='NON_REGRESSION'   )

TEST_TABLE(      TABLE=TABREP3,FILTRE=(
                 _F(  NOM_PARA = 'NOEUD_I',
                          VALE_K = 'P4'),
                        _F(  NOM_PARA = 'NOEUD_J',
                          VALE_K = 'P4')),
               NOM_PARA='FREQ_APPAR',
                   VALE=5.512752E+00  , REFERENCE='NON_REGRESSION'  )

TEST_TABLE(      TABLE=TABREP3,FILTRE=(
                 _F(  NOM_PARA = 'NOEUD_I',
                          VALE_K = 'P4'),
                        _F(  NOM_PARA = 'NOEUD_J',
                          VALE_K = 'P4')),
               NOM_PARA='LAMBDA_06',
                   VALE=2.928071E+02  , REFERENCE='NON_REGRESSION'  )

TEST_TABLE(      TABLE=TABREP3,FILTRE=(
                 _F(  NOM_PARA = 'NOEUD_I',
                          VALE_K = 'P4'),
                        _F(  NOM_PARA = 'NOEUD_J',
                          VALE_K = 'P4')),
               NOM_PARA='LAMBDA_08',
                   VALE=4.130593E+05  , REFERENCE='NON_REGRESSION'  )

TEST_TABLE(      TABLE=TABREP4,FILTRE=(
                 _F(  NOM_PARA = 'NOEUD_I',
                          VALE_K = 'P4'),
                        _F(  NOM_PARA = 'NOEUD_J',
                          VALE_K = 'P4')),
               NOM_PARA='LAMBDA_00',
                   VALE=1.585041E-07  , REFERENCE='NON_REGRESSION'  )

TEST_TABLE(      TABLE=TABREP4,FILTRE=(
                 _F(  NOM_PARA = 'NOEUD_I',
                          VALE_K = 'P4'),
                        _F(  NOM_PARA = 'NOEUD_J',
                          VALE_K = 'P4')),
               NOM_PARA='LAMBDA_01',
                   VALE=5.480401E-06 , REFERENCE='NON_REGRESSION'   )

TEST_TABLE(      TABLE=TABREP4,FILTRE=(
                 _F(  NOM_PARA = 'NOEUD_I',
                          VALE_K = 'P4'),
                        _F(  NOM_PARA = 'NOEUD_J',
                          VALE_K = 'P4')),
               NOM_PARA='LAMBDA_02',
                   VALE=1.901776E-04  , REFERENCE='NON_REGRESSION'  )

TEST_TABLE(      TABLE=TABREP4,FILTRE=(
                 _F(  NOM_PARA = 'NOEUD_I',
                          VALE_K = 'P4'),
                        _F(  NOM_PARA = 'NOEUD_J',
                          VALE_K = 'P4')),
               NOM_PARA='LAMBDA_03',
                   VALE=6.626419E-03  , REFERENCE='NON_REGRESSION'  )

TEST_TABLE(      TABLE=TABREP4,FILTRE=(
                 _F(  NOM_PARA = 'NOEUD_I',
                          VALE_K = 'P4'),
                        _F(  NOM_PARA = 'NOEUD_J',
                          VALE_K = 'P4')),
               NOM_PARA='LAMBDA_04',
                   VALE=2.3215987E-01 , REFERENCE='NON_REGRESSION'   )

TEST_TABLE(      TABLE=TABREP4,FILTRE=(
                 _F(  NOM_PARA = 'NOEUD_I',
                          VALE_K = 'P4'),
                        _F(  NOM_PARA = 'NOEUD_J',
                          VALE_K = 'P4')),
               NOM_PARA='ECART',
                   VALE=5.63035E-04  , REFERENCE='NON_REGRESSION'  )

TEST_TABLE(      TABLE=TABREP4,FILTRE=(
                 _F(  NOM_PARA = 'NOEUD_I',
                          VALE_K = 'P4'),
                        _F(  NOM_PARA = 'NOEUD_J',
                          VALE_K = 'P4')),
               NOM_PARA='NB_EXTREMA_P_S',
                   VALE=1.1121516E+01  , REFERENCE='NON_REGRESSION'  )

TEST_TABLE(      TABLE=TABREP4,FILTRE=(
                 _F(  NOM_PARA = 'NOEUD_I',
                          VALE_K = 'P4'),
                        _F(  NOM_PARA = 'NOEUD_J',
                          VALE_K = 'P4')),
               NOM_PARA='NB_PASS_ZERO_P_S',
                   VALE=1.1025786E+01  , REFERENCE='NON_REGRESSION'  )

TEST_TABLE(      TABLE=TABREP4,FILTRE=(
                 _F(  NOM_PARA = 'NOEUD_I',
                          VALE_K = 'P4'),
                        _F(  NOM_PARA = 'NOEUD_J',
                          VALE_K = 'P4')),
               NOM_PARA='FREQ_APPAR',
                   VALE=5.512893E+00 , REFERENCE='NON_REGRESSION'   )

TEST_TABLE(      TABLE=TABREP4,FILTRE=(
                 _F(  NOM_PARA = 'NOEUD_I',
                          VALE_K = 'P4'),
                        _F(  NOM_PARA = 'NOEUD_J',
                          VALE_K = 'P4')),
               NOM_PARA='FACT_IRRE',
                   VALE=9.9139238E-01 , REFERENCE='NON_REGRESSION'   )

TEST_TABLE(      TABLE=TABREP4,FILTRE=(
                 _F(  NOM_PARA = 'NOEUD_I',
                          VALE_K = 'P4'),
                        _F(  NOM_PARA = 'NOEUD_J',
                          VALE_K = 'P4')),
               NOM_PARA='LAMBDA_06',
                   VALE=2.9407018E+02 , REFERENCE='NON_REGRESSION'   )

TEST_TABLE(      TABLE=TABREP4,FILTRE=(
                 _F(  NOM_PARA = 'NOEUD_I',
                          VALE_K = 'P4'),
                        _F(  NOM_PARA = 'NOEUD_J',
                          VALE_K = 'P4')),
               NOM_PARA='LAMBDA_08',
                   VALE=4.1440819E+05  , REFERENCE='NON_REGRESSION'  )

FIN( )
#
