# person_in_charge: ayaovi-dzifa.kudawoo at edf.fr
# DATE   : 04/04/2000
# AUTEUR : F. LEBOUVIER (DELTACAD)
# ======================================================================
# COPYRIGHT (C) 1991 - 2016  EDF R&D                  WWW.CODE-ASTER.ORG
# THIS PROGRAM IS FREE SOFTWARE; YOU CAN REDISTRIBUTE IT AND/OR MODIFY
# IT UNDER THE TERMS OF THE GNU GENERAL PUBLIC LICENSE AS PUBLISHED BY
# THE FREE SOFTWARE FOUNDATION; EITHER VERSION 2 OF THE LICENSE, OR
# (AT YOUR OPTION) ANY LATER VERSION.
#
# THIS PROGRAM IS DISTRIBUTED IN THE HOPE THAT IT WILL BE USEFUL, BUT
# WITHOUT ANY WARRANTY; WITHOUT EVEN THE IMPLIED WARRANTY OF
# MERCHANTABILITY OR FITNESS FOR A PARTICULAR PURPOSE. SEE THE GNU
# GENERAL PUBLIC LICENSE FOR MORE DETAILS.
#
# YOU SHOULD HAVE RECEIVED A COPY OF THE GNU GENERAL PUBLIC LICENSE
# ALONG WITH THIS PROGRAM; IF NOT, WRITE TO EDF R&D CODE_ASTER,
#    1 AVENUE DU GENERAL DE GAULLE, 92141 CLAMART CEDEX, FRANCE.
# ======================================================================
#---------------------------------------------------------------------
#  - ANALYSE DYNAMIQUE D'UNE TUYAUTERIE COMPORTANT UN COUDE
#  - MODELISATION AVEC DES ELEMENTS 'TUYAU'
#---------------------------------------------------------------------
DEBUT( CODE=_F(NIV_PUB_WEB='INTERNET'))

#
MAILLAGE=LIRE_MAILLAGE(FORMAT='MED',   INFO=2)

#
MAILLAGE=DEFI_GROUP( reuse=MAILLAGE,         MAILLAGE=MAILLAGE,CREA_GROUP_NO=(
                          _F(  NOM = 'A',  NOEUD = 'NO23'),
                          _F(  NOM = 'B',  NOEUD = 'NO2'),
                          _F(  NOM = 'C',  NOEUD = 'NO40'),
                          _F(  NOM = 'D',  NOEUD = 'NO1')))

MODELE=AFFE_MODELE(   MAILLAGE=MAILLAGE,
                            AFFE=_F( TOUT = 'OUI',
                                  PHENOMENE = 'MECANIQUE',
                                  MODELISATION = 'TUYAU_3M')
                     )

#
#---------------------------------------------------------------------
#                        CARACTERISTIQUES ELEMENTAIRES
#---------------------------------------------------------------------
CARELEM=AFFE_CARA_ELEM(   MODELE=MODELE,
                           POUTRE=_F( GROUP_MA = 'TOUT_ELE',
                                   SECTION = 'CERCLE',
                                   CARA = ('R', 'EP',),
                                   VALE = (0.010, 0.002,),
                          MODI_METRIQUE = 'OUI'),
                            ORIENTATION=_F( GROUP_NO = 'D',
                                         CARA = 'GENE_TUYAU',
                                         VALE = (0., 0., 1.,))
                          )

#
#---------------------------------------------------------------------
#                        CARACTERISTIQUES MATERIAUX
#---------------------------------------------------------------------
MATER=DEFI_MATERIAU(   ELAS=_F( E = 2.1E+11, NU = 0.3, RHO = 7800.))

#
AFF_MAT=AFFE_MATERIAU(   MAILLAGE=MAILLAGE,
                               AFFE=_F( TOUT = 'OUI', MATER = MATER)
                         )

#
#---------------------------------------------------------------------
#                        CHARGEMENTS
#---------------------------------------------------------------------
COND_LIM=AFFE_CHAR_MECA(     MODELE=MODELE,DDL_IMPO=(
                             _F( GROUP_NO = ('C', 'D',),
                                      DX = 0., DY = 0., DZ = 0.,
                                      DRX = 0., DRY = 0., DRZ = 0.,
                                      UI2 = 0., VI2 = 0., WI2 = 0.,
                                      UO2 = 0., VO2 = 0., WO2 = 0.,
                                      UI3 = 0., VI3 = 0., WI3 = 0.,
                                      UO3 = 0., VO3 = 0., WO3 = 0.,
                                      WI1 = 0., WO1 = 0., WO = 0.),
                             _F( GROUP_NO = 'B',
                                      DX = 0., DZ = 0.),
                             _F( GROUP_NO = 'A',
                                      DY = 0., DZ = 0.))
                          )

#
#---------------------------------------------------------------------
#                        RESOLUTION
#---------------------------------------------------------------------
ASSEMBLAGE(        MODELE=MODELE,
                      CARA_ELEM=CARELEM,
                     CHAM_MATER=AFF_MAT,
                         CHARGE=(COND_LIM,),
                       NUME_DDL=CO("NU"),
                        MATR_ASSE=(
                      _F(  MATRICE = CO("M"),  OPTION = 'MASS_MECA'),
                      _F(  MATRICE = CO("K"),  OPTION = 'RIGI_MECA'),),
                          TITRE='MAT_ASSE'
                  )

#
MOD_CAL=CALC_MODES(MATR_RIGI=K,
                   OPTION='PLUS_PETITE',
                   CALC_FREQ=_F(NMAX_FREQ=4,
                                ),
                   MATR_MASS=M,
                   SOLVEUR_MODAL=_F(METHODE='TRI_DIAG',
                                    ),
                   )

# CE BLOC POUR TESTER LIRE_RESU POUR LES BASES
IMPR_RESU(FORMAT='MED',
          UNITE=81,
          RESU=_F(MAILLAGE=MAILLAGE,
                  RESULTAT=MOD_CAL,
                  NOM_CHAM='DEPL',),);

MODES=LIRE_RESU(FORMAT='MED',
                UNITE=81,
                FORMAT_MED=_F(NOM_CHAM='DEPL',
                              NOM_CHAM_MED='MOD_CAL_DEPL',),

                TYPE_RESU='MODE_MECA',
                MATR_RIGI=K,
                MATR_MASS=M,
                TOUT_ORDRE='OUI',
                MAILLAGE=MAILLAGE,);
#---------------------------------------------------------------------
#                        VERIFICATION DES RESULTATS
#---------------------------------------------------------------------
TEST_RESU(RESU=(_F(NUME_ORDRE=1,
                   PARA='FREQ',
                   RESULTAT=MODES,
                   VALE_CALC=17.844938864,
                   VALE_REFE=17.899999999999999,
                   REFERENCE='NON_DEFINI',
                   CRITERE='RELATIF',
                   PRECISION=5.0000000000000001E-3,),
                _F(NUME_ORDRE=2,
                   PARA='FREQ',
                   RESULTAT=MODES,
                   VALE_CALC=24.820701389,
                   VALE_REFE=24.800000000000001,
                   REFERENCE='NON_DEFINI',
                   CRITERE='RELATIF',
                   PRECISION=5.0000000000000001E-3,),
                _F(NUME_ORDRE=3,
                   PARA='FREQ',
                   RESULTAT=MODES,
                   VALE_CALC=25.815780419,
                   VALE_REFE=25.300000000000001,
                   REFERENCE='NON_DEFINI',
                   CRITERE='RELATIF',
                   PRECISION=0.029999999999999999,),
                _F(NUME_ORDRE=4,
                   PARA='FREQ',
                   RESULTAT=MODES,
                   VALE_CALC=27.649572193,
                   VALE_REFE=27.0,
                   REFERENCE='NON_DEFINI',
                   CRITERE='RELATIF',
                   PRECISION=0.029999999999999999,),
                ),
          )

#
FIN()
#
