# TITRE CALCUL DES FREQUENCES PROPRES D'UN ANNEAU CIRCULAIRE MINCE   
# ======================================================================
# COPYRIGHT (C) 1991 - 2012  EDF R&D                  WWW.CODE-ASTER.ORG
# THIS PROGRAM IS FREE SOFTWARE; YOU CAN REDISTRIBUTE IT AND/OR MODIFY
# IT UNDER THE TERMS OF THE GNU GENERAL PUBLIC LICENSE AS PUBLISHED BY
# THE FREE SOFTWARE FOUNDATION; EITHER VERSION 2 OF THE LICENSE, OR   
# (AT YOUR OPTION) ANY LATER VERSION.                                 
#
# THIS PROGRAM IS DISTRIBUTED IN THE HOPE THAT IT WILL BE USEFUL, BUT 
# WITHOUT ANY WARRANTY; WITHOUT EVEN THE IMPLIED WARRANTY OF          
# MERCHANTABILITY OR FITNESS FOR A PARTICULAR PURPOSE. SEE THE GNU    
# GENERAL PUBLIC LICENSE FOR MORE DETAILS.                            
#
# YOU SHOULD HAVE RECEIVED A COPY OF THE GNU GENERAL PUBLIC LICENSE   
# ALONG WITH THIS PROGRAM; IF NOT, WRITE TO EDF R&D CODE_ASTER,       
#    1 AVENUE DU GENERAL DE GAULLE, 92141 CLAMART CEDEX, FRANCE.      
# ======================================================================
# EN LIBRE-LIBRE
# ELEMENTS  : HEXA8  
# REFERENCE : GUIDE VPCS

DEBUT(CODE=_F(NIV_PUB_WEB='INTERNET'))

ACIER=DEFI_MATERIAU(          
                         ELAS=_F(  RHO = 2700.,
                           NU = 0.3, 
                           E = 7.2E10))

MAYA=LIRE_MAILLAGE(FORMAT='MED', )

MATER=AFFE_MATERIAU(    MAILLAGE=MAYA, 
                                 AFFE=_F(  TOUT = 'OUI', 
                                        MATER = ACIER))

STRUCTUR=AFFE_MODELE(    MAILLAGE=MAYA,
                               AFFE=_F(  TOUT = 'OUI', 
                                      MODELISATION = '3D', 
                                      PHENOMENE = 'MECANIQUE'))

# CALCUL DES MATRICES ELEMENTAIRES DE RIGIDITE ET DE MASSE

K_ELEM=CALC_MATR_ELEM(        MODELE=STRUCTUR,
                                CHAM_MATER=MATER, 
                                   OPTION='RIGI_MECA' )

M_ELEM=CALC_MATR_ELEM(        MODELE=STRUCTUR,
                                CHAM_MATER=MATER, 
                                   OPTION='MASS_MECA' )

# NUMEROTATION

NUMERO=NUME_DDL(    MATR_RIGI=K_ELEM )

# ASSEMBLAGE DES MATRICES DE RIGIDITE ET DE MASSE


K_ASSE=ASSE_MATRICE(    MATR_ELEM=K_ELEM, 
                             NUME_DDL=NUMERO )

M_ASSE=ASSE_MATRICE(    MATR_ELEM=M_ELEM, 
                             NUME_DDL=NUMERO )

# CALCUL DES MODES PAR SORENSEN

MODE1=CALC_MODES(MATR_RIGI=K_ASSE,
                 OPTION='BANDE',
                 CALC_FREQ=_F(FREQ=( 200.,3500.,),
                              ),
                 MATR_MASS=M_ASSE,
                 )


TEST_RESU(RESU=(_F(PARA='FREQ',
                   NUME_MODE=7,
                   REFERENCE='SOURCE_EXTERNE',
                   RESULTAT=MODE1,
                   VALE_CALC=323.909292284,
                   VALE_REFE=318.36000000000001,
                   CRITERE='RELATIF',
                   PRECISION=0.017999999999999999,),
                _F(PARA='FREQ',
                   NUME_MODE=8,
                   REFERENCE='SOURCE_EXTERNE',
                   RESULTAT=MODE1,
                   VALE_CALC=323.909308665,
                   VALE_REFE=318.36000000000001,
                   CRITERE='RELATIF',
                   PRECISION=0.017999999999999999,),
                _F(PARA='FREQ',
                   NUME_MODE=9,
                   REFERENCE='SOURCE_EXTERNE',
                   RESULTAT=MODE1,
                   VALE_CALC=519.204581202,
                   VALE_REFE=511.0,
                   CRITERE='RELATIF',
                   PRECISION=0.017000000000000001,),
                _F(PARA='FREQ',
                   NUME_MODE=10,
                   REFERENCE='SOURCE_EXTERNE',
                   RESULTAT=MODE1,
                   VALE_CALC=519.204587359,
                   VALE_REFE=511.0,
                   CRITERE='RELATIF',
                   PRECISION=0.017000000000000001,),
                _F(PARA='FREQ',
                   NUME_MODE=11,
                   REFERENCE='SOURCE_EXTERNE',
                   RESULTAT=MODE1,
                   VALE_CALC=914.500805370,
                   VALE_REFE=900.46000000000004,
                   CRITERE='RELATIF',
                   PRECISION=0.016,),
                _F(PARA='FREQ',
                   NUME_MODE=12,
                   REFERENCE='SOURCE_EXTERNE',
                   RESULTAT=MODE1,
                   VALE_CALC=914.500805373,
                   VALE_REFE=900.46000000000004,
                   CRITERE='RELATIF',
                   PRECISION=0.016,),
                _F(PARA='FREQ',
                   NUME_MODE=13,
                   REFERENCE='SOURCE_EXTERNE',
                   RESULTAT=MODE1,
                   VALE_CALC= 1.59597938E+03,
                   VALE_REFE=1590.0,
                   CRITERE='RELATIF',
                   PRECISION=4.0000000000000001E-3,),
                _F(PARA='FREQ',
                   NUME_MODE=14,
                   REFERENCE='SOURCE_EXTERNE',
                   RESULTAT=MODE1,
                   VALE_CALC= 1.59597938E+03,
                   VALE_REFE=1590.0,
                   CRITERE='RELATIF',
                   PRECISION=4.0000000000000001E-3,),
                _F(PARA='FREQ',
                   NUME_MODE=15,
                   REFERENCE='SOURCE_EXTERNE',
                   RESULTAT=MODE1,
                   VALE_CALC= 1.74895800E+03,
                   VALE_REFE=1726.55,
                   CRITERE='RELATIF',
                   PRECISION=0.0135,),
                _F(PARA='FREQ',
                   NUME_MODE=16,
                   REFERENCE='SOURCE_EXTERNE',
                   RESULTAT=MODE1,
                   VALE_CALC= 1.74895836E+03,
                   VALE_REFE=1726.55,
                   CRITERE='RELATIF',
                   PRECISION=0.0135,),
                _F(PARA='FREQ',
                   NUME_MODE=17,
                   REFERENCE='SOURCE_EXTERNE',
                   RESULTAT=MODE1,
                   VALE_CALC= 2.81909613E+03,
                   VALE_REFE=2792.21,
                   CRITERE='RELATIF',
                   PRECISION=1.E-2,),
                _F(PARA='FREQ',
                   NUME_MODE=18,
                   REFERENCE='SOURCE_EXTERNE',
                   RESULTAT=MODE1,
                   VALE_CALC= 2.81909613E+03,
                   VALE_REFE=2792.21,
                   CRITERE='RELATIF',
                   PRECISION=1.E-2,),
                _F(PARA='FREQ',
                   NUME_MODE=19,
                   REFERENCE='SOURCE_EXTERNE',
                   RESULTAT=MODE1,
                   VALE_CALC= 3.15967966E+03,
                   VALE_REFE=3184.0,
                   CRITERE='RELATIF',
                   PRECISION=8.0000000000000002E-3,),
                _F(PARA='FREQ',
                   NUME_MODE=20,
                   REFERENCE='SOURCE_EXTERNE',
                   RESULTAT=MODE1,
                   VALE_CALC= 3.15967989E+03,
                   VALE_REFE=3184.0,
                   CRITERE='RELATIF',
                   PRECISION=8.0000000000000002E-3,),
                ),
          )

FIN()
#
