# TITRE CALCUL SISMIQUE DE LA TUYAUTERIE BM3 (TEST NRC)
# ======================================================================
# COPYRIGHT (C) 1991 - 2012  EDF R&D                  WWW.CODE-ASTER.ORG
# THIS PROGRAM IS FREE SOFTWARE; YOU CAN REDISTRIBUTE IT AND/OR MODIFY  
# IT UNDER THE TERMS OF THE GNU GENERAL PUBLIC LICENSE AS PUBLISHED BY  
# THE FREE SOFTWARE FOUNDATION; EITHER VERSION 2 OF THE LICENSE, OR     
# (AT YOUR OPTION) ANY LATER VERSION.                                                    
#                                                                       
# THIS PROGRAM IS DISTRIBUTED IN THE HOPE THAT IT WILL BE USEFUL, BUT   
# WITHOUT ANY WARRANTY; WITHOUT EVEN THE IMPLIED WARRANTY OF            
# MERCHANTABILITY OR FITNESS FOR A PARTICULAR PURPOSE. SEE THE GNU      
# GENERAL PUBLIC LICENSE FOR MORE DETAILS.                              
#                                                                       
# YOU SHOULD HAVE RECEIVED A COPY OF THE GNU GENERAL PUBLIC LICENSE     
# ALONG WITH THIS PROGRAM; IF NOT, WRITE TO EDF R&D CODE_ASTER,         
#    1 AVENUE DU GENERAL DE GAULLE, 92141 CLAMART CEDEX, FRANCE.        
# ======================================================================

DEBUT(CODE=_F(
              NIV_PUB_WEB='INTERNET'),)

MA=LIRE_MAILLAGE(FORMAT='MED',)

# -------------------------------------------------------------
# DEFINTION DES GROUPES DE SECTIONS : SEC1, SEC2 ET SEC3
# -------------------------------------------------------------

MA=DEFI_GROUP(reuse=MA,
              MAILLAGE=MA,
              CREA_GROUP_MA=(_F(NOM='SEC1',
                                UNION=('E1','E2','E3','E4','E5','E6','E7','E8','E9','E10',
                                       'E11','E12','E13','E14','E15','E16','E17','E18','E19','E20',),),
                             _F(NOM='SEC2',
                                UNION=('E21','E22','E23','E24','E25','E26','E27','E28','E29','E30',),),
                             _F(NOM='SEC3',
                                UNION=('E31','E32','E33','E34','E35','E36','E37',),),),);

# -------------------------------------------------------------
# MODELISATION POUTRES DROITES ET COURBES DE TIMOCHENKO
# ------------------------------------------------------------- 

MODELE=AFFE_MODELE(MAILLAGE=MA,
                   AFFE=(_F(TOUT='OUI',
                            PHENOMENE='MECANIQUE',
                            MODELISATION='POU_D_T'),
                         _F(GROUP_MA=('E2','E5','E7','E13','E16','E19','E23','E26','E29','E35',),
                            PHENOMENE='MECANIQUE',
                            MODELISATION='POU_C_T'),
                         _F(GROUP_MA=('R1','R4','R7','R11','R15','R17','R23','R36','R38','R31',),
                            PHENOMENE='MECANIQUE', 
                            MODELISATION='DIS_TR',),),);

# -------------------------------------------------------------
# CARACTERISTIQUES DES SECTIONS ET DES RAIDEURS
# ------------------------------------------------------------- 

#SEC1:

R1 = 1.75
e1 = 0.2160
rc1 = 4.5
lambda1 = ((e1 * rc1) / ((R1 - (e1 / 2.0)) ** 2));
cflex1 = (1.65 / lambda1)

#SEC2:

R2 = 2.25
e2 = 0.2370
rc2 = 6.0
lambda2 = ((e2 * rc2) / ((R2 - (e2 / 2.0)) ** 2))
cflex2 = (1.65 / lambda2)

#SEC3:

R3 = 4.3125
e3 = 0.3220
rc3 = 12.0
lambda3 = ((e3 * rc3) / ((R3 - (e3 / 2.0)) ** 2))
cflex3 = (1.65 / lambda3)

#RAIDEUR :

raideur1 = 1.E20;
raideur2 = 1.E11;
raideur3 = 1.E8;
raideur4 = 1.E5;

#AFFECTATION :

CARA_ELE=AFFE_CARA_ELEM(MODELE=MODELE,
                        POUTRE=(_F(GROUP_MA='SEC1',
                                   SECTION='CERCLE',
                                   CARA=('R','EP',), 
                                   VALE=(R1,e1,),),
                                _F(GROUP_MA='SEC2',
                                   SECTION='CERCLE',
                                   CARA=('R','EP',), 
                                   VALE=(R2,e2,),),
                                _F(GROUP_MA='SEC3',
                                   SECTION='CERCLE',
                                   CARA=('R','EP',), 
                                   VALE=(R3,e3,),),),
                        DISCRET=(_F(CARA='K_TR_D_L', 
                                    GROUP_MA=('R1',),
                                    VALE=(raideur2,raideur2,raideur2,raideur1,raideur1,raideur1,),),
                                 _F(CARA='K_TR_D_L', 
                                    GROUP_MA=('R4',),
                                    VALE=(raideur3,0.,raideur3,0.,0.,0.,),),
                                 _F(CARA='K_TR_D_L', 
                                    GROUP_MA=('R7',),
                                    VALE=(0.,raideur3,0.,0.,0.,0.,),),
                                 _F(CARA='K_TR_D_L', 
                                    GROUP_MA=('R11',),
                                    VALE=(0.,raideur3,raideur4,0.,0.,0.,),),
                                 _F(CARA='K_TR_D_L', 
                                    GROUP_MA=('R15',),
                                    VALE=(raideur4,0.,0.,0.,0.,0.,),),
                                 _F(CARA='K_TR_D_L', 
                                    GROUP_MA=('R17',),
                                    VALE=(0.,raideur3,raideur4,0.,0.,0.,),),
                                 _F(CARA='K_TR_D_L', 
                                    GROUP_MA=('R36',),
                                    VALE=(0.,raideur3,raideur4,0.,0.,0.,),),
                                 _F(CARA='K_TR_D_L', 
                                    GROUP_MA=('R38',),
                                    VALE=(raideur2,raideur2,raideur2,raideur1,raideur1,raideur1,),),
                                 _F(CARA='K_TR_D_L', 
                                    GROUP_MA=('R23',),
                                    VALE=(raideur4,raideur3,0.,0.,0.,0.,),),
                                 _F(CARA='K_TR_D_L', 
                                    GROUP_MA=('R31',),
                                    VALE=(raideur2,raideur2,raideur2,raideur1,raideur1,raideur1,),),
                                 _F(CARA='M_TR_D_L', 
                                    GROUP_MA=('R1',),
                                    VALE=(0.0,0.0,0.0,0.0,),),
                                 _F(CARA='M_TR_D_L', 
                                    GROUP_MA=('R4',),
                                    VALE=(0.0,0.0,0.0,0.0,),),
                                 _F(CARA='M_TR_D_L', 
                                    GROUP_MA=('R7',),
                                    VALE=(0.0,0.0,0.0,0.0,),),
                                 _F(CARA='M_TR_D_L', 
                                    GROUP_MA=('R11',),
                                    VALE=(0.0,0.0,0.0,0.0,),),
                                 _F(CARA='M_TR_D_L', 
                                    GROUP_MA=('R15',),
                                    VALE=(0.0,0.0,0.0,0.0,),),
                                 _F(CARA='M_TR_D_L', 
                                    GROUP_MA=('R17',),
                                    VALE=(0.0,0.0,0.0,0.0,),),
                                 _F(CARA='M_TR_D_L', 
                                    GROUP_MA=('R36',),
                                    VALE=(0.0,0.0,0.0,0.0,),),
                                 _F(CARA='M_TR_D_L', 
                                    GROUP_MA=('R38',),
                                    VALE=(0.0,0.0,0.0,0.0,),),
                                 _F(CARA='M_TR_D_L', 
                                    GROUP_MA=('R23',),
                                    VALE=(0.0,0.0,0.0,0.0,),),
                                 _F(CARA='M_TR_D_L', 
                                    GROUP_MA=('R31',),
                                    VALE=(0.0,0.0,0.0,0.0,),),),
                        DEFI_ARC=(_F(GROUP_MA='E2',
                                     CENTRE=(15.,-4.5,0.,),
                                     COEF_FLEX=cflex1,
                                     RAYON=rc1,),
                                  _F(GROUP_MA='E5',
                                     CENTRE=(19.5,-199.5,4.5,),
                                     COEF_FLEX=cflex1,
                                     RAYON=rc1,),
                                  _F(GROUP_MA='E7',
                                     CENTRE=(24.,-204.,139.5,),
                                     COEF_FLEX=cflex1,
                                     RAYON=rc1,),
                                  _F(GROUP_MA='E13',
                                     CENTRE=(483.,-204.,148.5,),
                                     COEF_FLEX=cflex1,
                                     RAYON=rc1,),
                                  _F(GROUP_MA='E16',
                                     CENTRE=(492.,-204,235.5,),
                                     COEF_FLEX=cflex1,
                                     RAYON=rc1,),
                                  _F(GROUP_MA='E19',
                                     CENTRE=(723.,-208.5,240.,),
                                     COEF_FLEX=cflex1,
                                     RAYON=rc1,),
                                  _F(GROUP_MA='E23',
                                     CENTRE=(733.5,-264.,190.,),
                                     COEF_FLEX=cflex2,
                                     RAYON=rc2,),
                                  _F(GROUP_MA='E26',
                                     CENTRE=(845.5,-264.,178.,),
                                     COEF_FLEX=cflex2,
                                     RAYON=rc2,),
                                  _F(GROUP_MA='E29',
                                     CENTRE=(851.5,-270.,142.,),
                                     COEF_FLEX=cflex2,
                                     RAYON=rc2,),
                                  _F(GROUP_MA='E35',
                                     CENTRE=(739.5,-264.,414.,),
                                     COEF_FLEX=cflex3,
                                     RAYON=rc3,),),);

# -------------------------------------------------------------
# CARACTERISTIQUES MATERIAUX
# ------------------------------------------------------------- 

YOUNG = 2.9E7;
POISSON = 0.3;

MAT1=DEFI_MATERIAU(ELAS=_F(E=YOUNG,  
                           NU=POISSON,  
                           RHO=1.0429E-3,),);
                           
MAT2=DEFI_MATERIAU(ELAS=_F(E=YOUNG,  
                           NU=POISSON,  
                           RHO=1.1073E-3,),);
                           
MAT3=DEFI_MATERIAU(ELAS=_F(E=YOUNG,  
                           NU=POISSON,  
                           RHO=1.2901E-3,),);                                                      
                   
CHMAT=AFFE_MATERIAU(MAILLAGE=MA,
                    MODELE=MODELE,
                    AFFE=(_F(GROUP_MA='SEC1',
                             MATER=MAT1,),
                          _F(GROUP_MA='SEC2',
                             MATER=MAT2,),
                          _F(GROUP_MA='SEC3',
                             MATER=MAT3,),),);

# -------------------------------------------------------------
# ANALYSE MODALE
# -------------------------------------------------------------

SUPPORT=AFFE_CHAR_MECA(MODELE=MODELE,
                      DDL_IMPO=_F(GROUP_NO=('N1B','N4B','N7B','N11B','N15B','N17B','N36B','N38B','N23B','N31B',),
                                  DX=0,
                                  DY=0,
                                  DZ=0,
                                  DRX=0,
                                  DRY=0,
                                  DRZ=0,),);
                                    
ASSEMBLAGE(MODELE=MODELE,
                CHAM_MATER=CHMAT,
                CARA_ELEM=CARA_ELE,
                CHARGE=SUPPORT,
                NUME_DDL=CO('NUMEDDL'),
                MATR_ASSE=(_F(MATRICE=CO('RIGIDITE'),
                              OPTION='RIGI_MECA',),
                           _F(MATRICE=CO('MASSE'),
                              OPTION='MASS_MECA',),),);

MODECA=CALC_MODES(MATR_RIGI=RIGIDITE,
                  OPTION='BANDE',
                  CALC_FREQ=_F(FREQ=(0.,16.,),
                               ),
                  MATR_MASS=MASSE,
                  )

# -------------------------------------------------------------
# VALIDATION DES FREQUENCES PROPRES
# -------------------------------------------------------------

TEST_RESU(RESU=(_F(PARA='FREQ',
                   NUME_MODE=1,
                   REFERENCE='SOURCE_EXTERNE',
                   RESULTAT=MODECA,
                   VALE_CALC=2.90615560985,
                   VALE_REFE=2.9100000000000001,
                   PRECISION=1.E-2,
                   ),
                _F(PARA='FREQ',
                   NUME_MODE=1,
                   RESULTAT=MODECA,
                   VALE_CALC=2.90615560985,
                   
                   ),
                _F(PARA='FREQ',
                   NUME_MODE=2,
                   REFERENCE='SOURCE_EXTERNE',
                   RESULTAT=MODECA,
                   VALE_CALC=4.39373509728,
                   VALE_REFE=4.4400000000000004,
                   PRECISION=0.02,
                   ),
                _F(PARA='FREQ',
                   NUME_MODE=2,
                   RESULTAT=MODECA,
                   VALE_CALC=4.39373509728,
                   
                   ),
                _F(PARA='FREQ',
                   NUME_MODE=3,
                   REFERENCE='SOURCE_EXTERNE',
                   RESULTAT=MODECA,
                   VALE_CALC=4.83404641844,
                   VALE_REFE=4.8600000000000003,
                   PRECISION=1.E-2,
                   ),
                _F(PARA='FREQ',
                   NUME_MODE=3,
                   RESULTAT=MODECA,
                   VALE_CALC=4.83404641844,
                   
                   ),
                _F(PARA='FREQ',
                   NUME_MODE=4,
                   REFERENCE='SOURCE_EXTERNE',
                   RESULTAT=MODECA,
                   VALE_CALC=5.00596976656,
                   VALE_REFE=5.0199999999999996,
                   PRECISION=1.E-2,
                   ),
                _F(PARA='FREQ',
                   NUME_MODE=4,
                   RESULTAT=MODECA,
                   VALE_CALC=5.00596976656,
                   
                   ),
                _F(PARA='FREQ',
                   NUME_MODE=5,
                   REFERENCE='SOURCE_EXTERNE',
                   RESULTAT=MODECA,
                   VALE_CALC=6.88216208481,
                   VALE_REFE=6.9500000000000002,
                   PRECISION=1.E-2,
                   ),
                _F(PARA='FREQ',
                   NUME_MODE=5,
                   RESULTAT=MODECA,
                   VALE_CALC=6.88216208481,
                   
                   ),
                _F(PARA='FREQ',
                   NUME_MODE=6,
                   REFERENCE='SOURCE_EXTERNE',
                   RESULTAT=MODECA,
                   VALE_CALC=7.44128451604,
                   VALE_REFE=7.5800000000000001,
                   PRECISION=0.02,
                   ),
                _F(PARA='FREQ',
                   NUME_MODE=6,
                   RESULTAT=MODECA,
                   VALE_CALC=7.44128451604,
                   
                   ),
                _F(PARA='FREQ',
                   NUME_MODE=7,
                   REFERENCE='SOURCE_EXTERNE',
                   RESULTAT=MODECA,
                   VALE_CALC=7.76458563363,
                   VALE_REFE=7.8200000000000003,
                   PRECISION=1.E-2,
                   ),
                _F(PARA='FREQ',
                   NUME_MODE=7,
                   RESULTAT=MODECA,
                   VALE_CALC=7.76458563363,
                   
                   ),
                _F(PARA='FREQ',
                   NUME_MODE=8,
                   REFERENCE='SOURCE_EXTERNE',
                   RESULTAT=MODECA,
                   VALE_CALC=10.7765939504,
                   VALE_REFE=10.94,
                   PRECISION=0.02,
                   ),
                _F(PARA='FREQ',
                   NUME_MODE=8,
                   RESULTAT=MODECA,
                   VALE_CALC=10.7765939504,
                   
                   ),
                _F(PARA='FREQ',
                   NUME_MODE=9,
                   REFERENCE='SOURCE_EXTERNE',
                   RESULTAT=MODECA,
                   VALE_CALC=11.4117468543,
                   VALE_REFE=11.65,
                   PRECISION=0.029999999999999999,
                   ),
                _F(PARA='FREQ',
                   NUME_MODE=9,
                   RESULTAT=MODECA,
                   VALE_CALC=11.4117468543,
                   
                   ),
                _F(PARA='FREQ',
                   NUME_MODE=10,
                   REFERENCE='SOURCE_EXTERNE',
                   RESULTAT=MODECA,
                   VALE_CALC=11.5539786123,
                   VALE_REFE=11.779999999999999,
                   PRECISION=0.02,
                   ),
                _F(PARA='FREQ',
                   NUME_MODE=10,
                   RESULTAT=MODECA,
                   VALE_CALC=11.5539786123,
                   
                   ),
                _F(PARA='FREQ',
                   NUME_MODE=11,
                   REFERENCE='SOURCE_EXTERNE',
                   RESULTAT=MODECA,
                   VALE_CALC=12.5564414375,
                   VALE_REFE=12.800000000000001,
                   PRECISION=0.02,
                   ),
                _F(PARA='FREQ',
                   NUME_MODE=11,
                   RESULTAT=MODECA,
                   VALE_CALC=12.5564414375,
                   
                   ),
                _F(PARA='FREQ',
                   NUME_MODE=12,
                   REFERENCE='SOURCE_EXTERNE',
                   RESULTAT=MODECA,
                   VALE_CALC=13.9047884561,
                   VALE_REFE=14.32,
                   PRECISION=0.029999999999999999,
                   ),
                _F(PARA='FREQ',
                   NUME_MODE=12,
                   RESULTAT=MODECA,
                   VALE_CALC=13.9047884561,
                   
                   ),
                _F(PARA='FREQ',
                   NUME_MODE=13,
                   REFERENCE='SOURCE_EXTERNE',
                   RESULTAT=MODECA,
                   VALE_CALC=14.0729973901,
                   VALE_REFE=15.17,
                   PRECISION=0.080000000000000002,
                   ),
                _F(PARA='FREQ',
                   NUME_MODE=13,
                   RESULTAT=MODECA,
                   VALE_CALC=14.0729973901,
                   
                   ),
                _F(PARA='FREQ',
                   NUME_MODE=14,
                   REFERENCE='SOURCE_EXTERNE',
                   RESULTAT=MODECA,
                   VALE_CALC=14.9415672752,
                   VALE_REFE=15.789999999999999,
                   PRECISION=0.059999999999999998,
                   ),
                _F(PARA='FREQ',
                   NUME_MODE=14,
                   RESULTAT=MODECA,
                   VALE_CALC=14.9415672752,
                   
                   ),
                ),
          )

MODECA=NORM_MODE(reuse=MODECA,
                 MODE=MODECA,
                 NORME='MASS_GENE',);

MODECA=CALC_CHAMP(reuse=MODECA,
                  RESULTAT=MODECA,   
                  FORCE='REAC_NODA')

# -------------------------------------------------------------
# LECTURE DU SRO
# -------------------------------------------------------------              

SPECTRE=LIRE_FONCTION(UNITE=21,
                      NOM_PARA='FREQ',
                      PROL_GAUCHE='CONSTANT',
                      PROL_DROITE='CONSTANT',);

SRO=DEFI_NAPPE(NOM_PARA='AMOR',
               PARA=0.01,
               FONCTION=SPECTRE,);

###############################################################
# -------------------------------------------------------------
# ANALYSE SPECTRALE AVEC COMBINAISON SRSS : A1
# -------------------------------------------------------------                      

ANA_A1=COMB_SISM_MODAL(MODE_MECA=MODECA,
                       AMOR_REDUIT=0.01,
                       MONO_APPUI='OUI',
                       EXCIT=_F(AXE=(1.,0.,0.),
                                SPEC_OSCI=SRO,
                                ECHELLE=386.4,),
                       COMB_MODE=_F(TYPE='SRSS',),
                       OPTION=('REAC_NODA',),);

# -------------------------------------------------------------
# VALIDATION DES REACTIONS NODALES
# -------------------------------------------------------------

TEST_RESU(RESU=(_F(NUME_ORDRE=1,
                   GROUP_NO='N1B',
                   REFERENCE='SOURCE_EXTERNE',
                   RESULTAT=ANA_A1,
                   NOM_CHAM='REAC_NODA',
                   NOM_CMP='DX',
                   VALE_CALC=27.0828918814,
                   VALE_REFE=30.690000000000001,
                   PRECISION=0.12,),
                _F(NUME_ORDRE=1,
                   GROUP_NO='N1B',
                   RESULTAT=ANA_A1,
                   NOM_CHAM='REAC_NODA',
                   NOM_CMP='DX',
                   VALE_CALC=27.0828918814,
                   
                   ),
                _F(NUME_ORDRE=1,
                   GROUP_NO='N1B',
                   REFERENCE='SOURCE_EXTERNE',
                   RESULTAT=ANA_A1,
                   NOM_CHAM='REAC_NODA',
                   NOM_CMP='DY',
                   VALE_CALC=13.9393289406,
                   VALE_REFE=15.34,
                   PRECISION=0.10000000000000001,),
                _F(NUME_ORDRE=1,
                   GROUP_NO='N1B',
                   RESULTAT=ANA_A1,
                   NOM_CHAM='REAC_NODA',
                   NOM_CMP='DY',
                   VALE_CALC=13.9393289406,
                   
                   ),
                _F(NUME_ORDRE=1,
                   GROUP_NO='N1B',
                   REFERENCE='SOURCE_EXTERNE',
                   RESULTAT=ANA_A1,
                   NOM_CHAM='REAC_NODA',
                   NOM_CMP='DZ',
                   VALE_CALC=45.0455065347,
                   VALE_REFE=49.039999999999999,
                   PRECISION=0.089999999999999997,),
                _F(NUME_ORDRE=1,
                   GROUP_NO='N1B',
                   RESULTAT=ANA_A1,
                   NOM_CHAM='REAC_NODA',
                   NOM_CMP='DZ',
                   VALE_CALC=45.0455065347,
                   
                   ),
                _F(NUME_ORDRE=1,
                   GROUP_NO='N1B',
                   REFERENCE='SOURCE_EXTERNE',
                   RESULTAT=ANA_A1,
                   NOM_CHAM='REAC_NODA',
                   NOM_CMP='DRX',
                   VALE_CALC=1428.14433072,
                   VALE_REFE=1515.03,
                   PRECISION=0.059999999999999998,),
                _F(NUME_ORDRE=1,
                   GROUP_NO='N1B',
                   RESULTAT=ANA_A1,
                   NOM_CHAM='REAC_NODA',
                   NOM_CMP='DRX',
                   VALE_CALC=1428.14433072,
                   
                   ),
                _F(NUME_ORDRE=1,
                   GROUP_NO='N1B',
                   REFERENCE='SOURCE_EXTERNE',
                   RESULTAT=ANA_A1,
                   NOM_CHAM='REAC_NODA',
                   NOM_CMP='DRY',
                   VALE_CALC=1156.85377366,
                   VALE_REFE=1219.6199999999999,
                   PRECISION=0.059999999999999998,),
                _F(NUME_ORDRE=1,
                   GROUP_NO='N1B',
                   RESULTAT=ANA_A1,
                   NOM_CHAM='REAC_NODA',
                   NOM_CMP='DRY',
                   VALE_CALC=1156.85377366,
                   
                   ),
                _F(NUME_ORDRE=1,
                   GROUP_NO='N1B',
                   REFERENCE='SOURCE_EXTERNE',
                   RESULTAT=ANA_A1,
                   NOM_CHAM='REAC_NODA',
                   NOM_CMP='DRZ',
                   VALE_CALC=973.192826082,
                   VALE_REFE=1100.6600000000001,
                   PRECISION=0.12,),
                _F(NUME_ORDRE=1,
                   GROUP_NO='N1B',
                   RESULTAT=ANA_A1,
                   NOM_CHAM='REAC_NODA',
                   NOM_CMP='DRZ',
                   VALE_CALC=973.192826082,
                   
                   ),
                _F(NUME_ORDRE=1,
                   GROUP_NO='N4B',
                   REFERENCE='SOURCE_EXTERNE',
                   RESULTAT=ANA_A1,
                   NOM_CHAM='REAC_NODA',
                   NOM_CMP='DX',
                   VALE_CALC=43.1849149849,
                   VALE_REFE=45.189999999999998,
                   PRECISION=0.050000000000000003,),
                _F(NUME_ORDRE=1,
                   GROUP_NO='N4B',
                   RESULTAT=ANA_A1,
                   NOM_CHAM='REAC_NODA',
                   NOM_CMP='DX',
                   VALE_CALC=43.1849149849,
                   
                   ),
                _F(NUME_ORDRE=1,
                   GROUP_NO='N4B',
                   REFERENCE='SOURCE_EXTERNE',
                   RESULTAT=ANA_A1,
                   NOM_CHAM='REAC_NODA',
                   NOM_CMP='DZ',
                   VALE_CALC=80.6177496811,
                   VALE_REFE=82.150000000000006,
                   PRECISION=0.02,),
                _F(NUME_ORDRE=1,
                   GROUP_NO='N4B',
                   RESULTAT=ANA_A1,
                   NOM_CHAM='REAC_NODA',
                   NOM_CMP='DZ',
                   VALE_CALC=80.6177496811,
                   
                   ),
                _F(NUME_ORDRE=1,
                   GROUP_NO='N7B',
                   REFERENCE='SOURCE_EXTERNE',
                   RESULTAT=ANA_A1,
                   NOM_CHAM='REAC_NODA',
                   NOM_CMP='DY',
                   VALE_CALC=27.3722234834,
                   VALE_REFE=27.870000000000001,
                   PRECISION=0.02,),
                _F(NUME_ORDRE=1,
                   GROUP_NO='N7B',
                   RESULTAT=ANA_A1,
                   NOM_CHAM='REAC_NODA',
                   NOM_CMP='DY',
                   VALE_CALC=27.3722234834,
                   
                   ),
                _F(NUME_ORDRE=1,
                   GROUP_NO='N11B',
                   REFERENCE='SOURCE_EXTERNE',
                   RESULTAT=ANA_A1,
                   NOM_CHAM='REAC_NODA',
                   NOM_CMP='DY',
                   VALE_CALC=17.396041657,
                   VALE_REFE=21.539999999999999,
                   PRECISION=0.20000000000000001,),
                _F(NUME_ORDRE=1,
                   GROUP_NO='N11B',
                   RESULTAT=ANA_A1,
                   NOM_CHAM='REAC_NODA',
                   NOM_CMP='DY',
                   VALE_CALC=17.396041657,
                   
                   ),
                _F(NUME_ORDRE=1,
                   GROUP_NO='N11B',
                   REFERENCE='SOURCE_EXTERNE',
                   RESULTAT=ANA_A1,
                   NOM_CHAM='REAC_NODA',
                   NOM_CMP='DZ',
                   VALE_CALC=44.2739103824,
                   VALE_REFE=42.909999999999997,
                   PRECISION=0.040000000000000001,),
                _F(NUME_ORDRE=1,
                   GROUP_NO='N11B',
                   RESULTAT=ANA_A1,
                   NOM_CHAM='REAC_NODA',
                   NOM_CMP='DZ',
                   VALE_CALC=44.2739103824,
                   
                   ),
                _F(NUME_ORDRE=1,
                   GROUP_NO='N15B',
                   REFERENCE='SOURCE_EXTERNE',
                   RESULTAT=ANA_A1,
                   NOM_CHAM='REAC_NODA',
                   NOM_CMP='DX',
                   VALE_CALC=374.963433248,
                   VALE_REFE=368.82999999999998,
                   PRECISION=0.02,),
                _F(NUME_ORDRE=1,
                   GROUP_NO='N15B',
                   RESULTAT=ANA_A1,
                   NOM_CHAM='REAC_NODA',
                   NOM_CMP='DX',
                   VALE_CALC=374.963433248,
                   
                   ),
                _F(NUME_ORDRE=1,
                   GROUP_NO='N17B',
                   REFERENCE='SOURCE_EXTERNE',
                   RESULTAT=ANA_A1,
                   NOM_CHAM='REAC_NODA',
                   NOM_CMP='DY',
                   VALE_CALC=44.2037972661,
                   VALE_REFE=44.280000000000001,
                   PRECISION=2.E-3,),
                _F(NUME_ORDRE=1,
                   GROUP_NO='N17B',
                   RESULTAT=ANA_A1,
                   NOM_CHAM='REAC_NODA',
                   NOM_CMP='DY',
                   VALE_CALC=44.2037972661,
                   
                   ),
                _F(NUME_ORDRE=1,
                   GROUP_NO='N17B',
                   REFERENCE='SOURCE_EXTERNE',
                   RESULTAT=ANA_A1,
                   NOM_CHAM='REAC_NODA',
                   NOM_CMP='DZ',
                   VALE_CALC=52.213355154,
                   VALE_REFE=53.119999999999997,
                   PRECISION=0.02,),
                _F(NUME_ORDRE=1,
                   GROUP_NO='N17B',
                   RESULTAT=ANA_A1,
                   NOM_CHAM='REAC_NODA',
                   NOM_CMP='DZ',
                   VALE_CALC=52.213355154,
                   
                   ),
                _F(NUME_ORDRE=1,
                   GROUP_NO='N36B',
                   REFERENCE='SOURCE_EXTERNE',
                   RESULTAT=ANA_A1,
                   NOM_CHAM='REAC_NODA',
                   NOM_CMP='DY',
                   VALE_CALC=166.375764471,
                   VALE_REFE=162.84,
                   PRECISION=0.029999999999999999,),
                _F(NUME_ORDRE=1,
                   GROUP_NO='N36B',
                   RESULTAT=ANA_A1,
                   NOM_CHAM='REAC_NODA',
                   NOM_CMP='DY',
                   VALE_CALC=166.375764471,
                   
                   ),
                _F(NUME_ORDRE=1,
                   GROUP_NO='N36B',
                   REFERENCE='SOURCE_EXTERNE',
                   RESULTAT=ANA_A1,
                   NOM_CHAM='REAC_NODA',
                   NOM_CMP='DZ',
                   VALE_CALC=75.2656506234,
                   VALE_REFE=80.959999999999994,
                   PRECISION=0.080000000000000002,),
                _F(NUME_ORDRE=1,
                   GROUP_NO='N36B',
                   RESULTAT=ANA_A1,
                   NOM_CHAM='REAC_NODA',
                   NOM_CMP='DZ',
                   VALE_CALC=75.2656506234,
                   
                   ),
                _F(NUME_ORDRE=1,
                   GROUP_NO='N38B',
                   REFERENCE='SOURCE_EXTERNE',
                   RESULTAT=ANA_A1,
                   NOM_CHAM='REAC_NODA',
                   NOM_CMP='DX',
                   VALE_CALC=120.704856075,
                   VALE_REFE=116.92,
                   PRECISION=0.040000000000000001,),
                _F(NUME_ORDRE=1,
                   GROUP_NO='N38B',
                   RESULTAT=ANA_A1,
                   NOM_CHAM='REAC_NODA',
                   NOM_CMP='DX',
                   VALE_CALC=120.704856075,
                   
                   ),
                _F(NUME_ORDRE=1,
                   GROUP_NO='N38B',
                   REFERENCE='SOURCE_EXTERNE',
                   RESULTAT=ANA_A1,
                   NOM_CHAM='REAC_NODA',
                   NOM_CMP='DY',
                   VALE_CALC=53.1885060195,
                   VALE_REFE=52.460000000000001,
                   PRECISION=0.02,),
                _F(NUME_ORDRE=1,
                   GROUP_NO='N38B',
                   RESULTAT=ANA_A1,
                   NOM_CHAM='REAC_NODA',
                   NOM_CMP='DY',
                   VALE_CALC=53.1885060195,
                   
                   ),
                _F(NUME_ORDRE=1,
                   GROUP_NO='N38B',
                   REFERENCE='SOURCE_EXTERNE',
                   RESULTAT=ANA_A1,
                   NOM_CHAM='REAC_NODA',
                   NOM_CMP='DZ',
                   VALE_CALC=36.4247504165,
                   VALE_REFE=39.119999999999997,
                   PRECISION=0.070000000000000007,),
                _F(NUME_ORDRE=1,
                   GROUP_NO='N38B',
                   RESULTAT=ANA_A1,
                   NOM_CHAM='REAC_NODA',
                   NOM_CMP='DZ',
                   VALE_CALC=36.4247504165,
                   
                   ),
                _F(NUME_ORDRE=1,
                   GROUP_NO='N38B',
                   REFERENCE='SOURCE_EXTERNE',
                   RESULTAT=ANA_A1,
                   NOM_CHAM='REAC_NODA',
                   NOM_CMP='DRX',
                   VALE_CALC=2553.419127,
                   VALE_REFE=2543.4400000000001,
                   PRECISION=1.E-2,),
                _F(NUME_ORDRE=1,
                   GROUP_NO='N38B',
                   RESULTAT=ANA_A1,
                   NOM_CHAM='REAC_NODA',
                   NOM_CMP='DRX',
                   VALE_CALC=2553.419127,
                   
                   ),
                _F(NUME_ORDRE=1,
                   GROUP_NO='N38B',
                   REFERENCE='SOURCE_EXTERNE',
                   RESULTAT=ANA_A1,
                   NOM_CHAM='REAC_NODA',
                   NOM_CMP='DRY',
                   VALE_CALC=2383.8311473,
                   VALE_REFE=2533.4099999999999,
                   PRECISION=0.059999999999999998,),
                _F(NUME_ORDRE=1,
                   GROUP_NO='N38B',
                   RESULTAT=ANA_A1,
                   NOM_CHAM='REAC_NODA',
                   NOM_CMP='DRY',
                   VALE_CALC=2383.8311473,
                   
                   ),
                _F(NUME_ORDRE=1,
                   GROUP_NO='N38B',
                   REFERENCE='SOURCE_EXTERNE',
                   RESULTAT=ANA_A1,
                   NOM_CHAM='REAC_NODA',
                   NOM_CMP='DRZ',
                   VALE_CALC=3707.84000383,
                   VALE_REFE=3650.4499999999998,
                   PRECISION=0.02,),
                _F(NUME_ORDRE=1,
                   GROUP_NO='N38B',
                   RESULTAT=ANA_A1,
                   NOM_CHAM='REAC_NODA',
                   NOM_CMP='DRZ',
                   VALE_CALC=3707.84000383,
                   
                   ),
                _F(NUME_ORDRE=1,
                   GROUP_NO='N23B',
                   REFERENCE='SOURCE_EXTERNE',
                   RESULTAT=ANA_A1,
                   NOM_CHAM='REAC_NODA',
                   NOM_CMP='DX',
                   VALE_CALC=184.456104682,
                   VALE_REFE=177.22999999999999,
                   PRECISION=0.050000000000000003,),
                _F(NUME_ORDRE=1,
                   GROUP_NO='N23B',
                   RESULTAT=ANA_A1,
                   NOM_CHAM='REAC_NODA',
                   NOM_CMP='DX',
                   VALE_CALC=184.456104682,
                   
                   ),
                _F(NUME_ORDRE=1,
                   GROUP_NO='N23B',
                   REFERENCE='SOURCE_EXTERNE',
                   RESULTAT=ANA_A1,
                   NOM_CHAM='REAC_NODA',
                   NOM_CMP='DY',
                   VALE_CALC=150.38488675,
                   VALE_REFE=145.37,
                   PRECISION=0.040000000000000001,),
                _F(NUME_ORDRE=1,
                   GROUP_NO='N23B',
                   RESULTAT=ANA_A1,
                   NOM_CHAM='REAC_NODA',
                   NOM_CMP='DY',
                   VALE_CALC=150.38488675,
                   
                   ),
                _F(NUME_ORDRE=1,
                   GROUP_NO='N31B',
                   REFERENCE='SOURCE_EXTERNE',
                   RESULTAT=ANA_A1,
                   NOM_CHAM='REAC_NODA',
                   NOM_CMP='DX',
                   VALE_CALC=9.55390289103,
                   VALE_REFE=9.4100000000000001,
                   PRECISION=0.02,),
                _F(NUME_ORDRE=1,
                   GROUP_NO='N31B',
                   RESULTAT=ANA_A1,
                   NOM_CHAM='REAC_NODA',
                   NOM_CMP='DX',
                   VALE_CALC=9.55390289103,
                   
                   ),
                _F(NUME_ORDRE=1,
                   GROUP_NO='N31B',
                   REFERENCE='SOURCE_EXTERNE',
                   RESULTAT=ANA_A1,
                   NOM_CHAM='REAC_NODA',
                   NOM_CMP='DY',
                   VALE_CALC=23.3667770566,
                   VALE_REFE=22.079999999999998,
                   PRECISION=0.059999999999999998,),
                _F(NUME_ORDRE=1,
                   GROUP_NO='N31B',
                   RESULTAT=ANA_A1,
                   NOM_CHAM='REAC_NODA',
                   NOM_CMP='DY',
                   VALE_CALC=23.3667770566,
                   
                   ),
                _F(NUME_ORDRE=1,
                   GROUP_NO='N31B',
                   REFERENCE='SOURCE_EXTERNE',
                   RESULTAT=ANA_A1,
                   NOM_CHAM='REAC_NODA',
                   NOM_CMP='DZ',
                   VALE_CALC=33.7170533187,
                   VALE_REFE=31.359999999999999,
                   PRECISION=0.080000000000000002,),
                _F(NUME_ORDRE=1,
                   GROUP_NO='N31B',
                   RESULTAT=ANA_A1,
                   NOM_CHAM='REAC_NODA',
                   NOM_CMP='DZ',
                   VALE_CALC=33.7170533187,
                   
                   ),
                _F(NUME_ORDRE=1,
                   GROUP_NO='N31B',
                   REFERENCE='SOURCE_EXTERNE',
                   RESULTAT=ANA_A1,
                   NOM_CHAM='REAC_NODA',
                   NOM_CMP='DRX',
                   VALE_CALC=2278.09712708,
                   VALE_REFE=1971.5799999999999,
                   PRECISION=0.16,),
                _F(NUME_ORDRE=1,
                   GROUP_NO='N31B',
                   RESULTAT=ANA_A1,
                   NOM_CHAM='REAC_NODA',
                   NOM_CMP='DRX',
                   VALE_CALC=2278.09712708,
                   
                   ),
                _F(NUME_ORDRE=1,
                   GROUP_NO='N31B',
                   REFERENCE='SOURCE_EXTERNE',
                   RESULTAT=ANA_A1,
                   NOM_CHAM='REAC_NODA',
                   NOM_CMP='DRY',
                   VALE_CALC=207.239477991,
                   VALE_REFE=267.63,
                   PRECISION=0.23000000000000001,),
                _F(NUME_ORDRE=1,
                   GROUP_NO='N31B',
                   RESULTAT=ANA_A1,
                   NOM_CHAM='REAC_NODA',
                   NOM_CMP='DRY',
                   VALE_CALC=207.239477991,
                   
                   ),
                _F(NUME_ORDRE=1,
                   GROUP_NO='N31B',
                   REFERENCE='SOURCE_EXTERNE',
                   RESULTAT=ANA_A1,
                   NOM_CHAM='REAC_NODA',
                   NOM_CMP='DRZ',
                   VALE_CALC=636.31125372,
                   VALE_REFE=603.05999999999995,
                   PRECISION=0.059999999999999998,),
                _F(NUME_ORDRE=1,
                   GROUP_NO='N31B',
                   RESULTAT=ANA_A1,
                   NOM_CHAM='REAC_NODA',
                   NOM_CMP='DRZ',
                   VALE_CALC=636.31125372,
                   
                   ),
                ),
          )

###############################################################
# -------------------------------------------------------------
# ANALYSE SPECTRALE AVEC COMBINAISON CQC : A2
# -------------------------------------------------------------        

ANA_A2=COMB_SISM_MODAL(MODE_MECA=MODECA,
                       AMOR_REDUIT=0.01,
                       MONO_APPUI='OUI',
                       EXCIT=_F(AXE=(1.,0.,0.),
                                SPEC_OSCI=SRO,
                                ECHELLE=386.4,),
                       COMB_MODE=_F(TYPE='CQC',),
                       OPTION=('REAC_NODA',),);


# -------------------------------------------------------------
# VALIDATION DES REACTIONS NODALES
# -------------------------------------------------------------

TEST_RESU(RESU=(_F(NUME_ORDRE=1,
                   GROUP_NO='N1B',
                   REFERENCE='SOURCE_EXTERNE',
                   RESULTAT=ANA_A2,
                   NOM_CHAM='REAC_NODA',
                   NOM_CMP='DX',
                   VALE_CALC=27.1936278125,
                   VALE_REFE=30.809999999999999,
                   PRECISION=0.12,),
                _F(NUME_ORDRE=1,
                   GROUP_NO='N1B',
                   RESULTAT=ANA_A2,
                   NOM_CHAM='REAC_NODA',
                   NOM_CMP='DX',
                   VALE_CALC=27.1936278125,
                   
                   ),
                _F(NUME_ORDRE=1,
                   GROUP_NO='N1B',
                   REFERENCE='SOURCE_EXTERNE',
                   RESULTAT=ANA_A2,
                   NOM_CHAM='REAC_NODA',
                   NOM_CMP='DY',
                   VALE_CALC=11.5553635487,
                   VALE_REFE=12.59,
                   PRECISION=0.089999999999999997,),
                _F(NUME_ORDRE=1,
                   GROUP_NO='N1B',
                   RESULTAT=ANA_A2,
                   NOM_CHAM='REAC_NODA',
                   NOM_CMP='DY',
                   VALE_CALC=11.5553635487,
                   
                   ),
                _F(NUME_ORDRE=1,
                   GROUP_NO='N1B',
                   REFERENCE='SOURCE_EXTERNE',
                   RESULTAT=ANA_A2,
                   NOM_CHAM='REAC_NODA',
                   NOM_CMP='DZ',
                   VALE_CALC=25.9397805019,
                   VALE_REFE=24.91,
                   PRECISION=0.050000000000000003,),
                _F(NUME_ORDRE=1,
                   GROUP_NO='N1B',
                   RESULTAT=ANA_A2,
                   NOM_CHAM='REAC_NODA',
                   NOM_CMP='DZ',
                   VALE_CALC=25.9397805019,
                   
                   ),
                _F(NUME_ORDRE=1,
                   GROUP_NO='N1B',
                   REFERENCE='SOURCE_EXTERNE',
                   RESULTAT=ANA_A2,
                   NOM_CHAM='REAC_NODA',
                   NOM_CMP='DRX',
                   VALE_CALC=815.082054989,
                   VALE_REFE=764.28999999999996,
                   PRECISION=0.070000000000000007,),
                _F(NUME_ORDRE=1,
                   GROUP_NO='N1B',
                   RESULTAT=ANA_A2,
                   NOM_CHAM='REAC_NODA',
                   NOM_CMP='DRX',
                   VALE_CALC=815.082054989,
                   
                   ),
                _F(NUME_ORDRE=1,
                   GROUP_NO='N1B',
                   REFERENCE='SOURCE_EXTERNE',
                   RESULTAT=ANA_A2,
                   NOM_CHAM='REAC_NODA',
                   NOM_CMP='DRY',
                   VALE_CALC=931.693581136,
                   VALE_REFE=932.32000000000005,
                   PRECISION=1.E-3,),
                _F(NUME_ORDRE=1,
                   GROUP_NO='N1B',
                   RESULTAT=ANA_A2,
                   NOM_CHAM='REAC_NODA',
                   NOM_CMP='DRY',
                   VALE_CALC=931.693581136,
                   
                   ),
                _F(NUME_ORDRE=1,
                   GROUP_NO='N1B',
                   REFERENCE='SOURCE_EXTERNE',
                   RESULTAT=ANA_A2,
                   NOM_CHAM='REAC_NODA',
                   NOM_CMP='DRZ',
                   VALE_CALC=972.04928324,
                   VALE_REFE=1096.5799999999999,
                   PRECISION=0.12,),
                _F(NUME_ORDRE=1,
                   GROUP_NO='N1B',
                   RESULTAT=ANA_A2,
                   NOM_CHAM='REAC_NODA',
                   NOM_CMP='DRZ',
                   VALE_CALC=972.04928324,
                   
                   ),
                _F(NUME_ORDRE=1,
                   GROUP_NO='N4B',
                   REFERENCE='SOURCE_EXTERNE',
                   RESULTAT=ANA_A2,
                   NOM_CHAM='REAC_NODA',
                   NOM_CMP='DX',
                   VALE_CALC=43.0706150808,
                   VALE_REFE=45.020000000000003,
                   PRECISION=0.050000000000000003,),
                _F(NUME_ORDRE=1,
                   GROUP_NO='N4B',
                   RESULTAT=ANA_A2,
                   NOM_CHAM='REAC_NODA',
                   NOM_CMP='DX',
                   VALE_CALC=43.0706150808,
                   
                   ),
                _F(NUME_ORDRE=1,
                   GROUP_NO='N4B',
                   REFERENCE='SOURCE_EXTERNE',
                   RESULTAT=ANA_A2,
                   NOM_CHAM='REAC_NODA',
                   NOM_CMP='DZ',
                   VALE_CALC=55.8579809996,
                   VALE_REFE=55.609999999999999,
                   PRECISION=1.E-2,),
                _F(NUME_ORDRE=1,
                   GROUP_NO='N4B',
                   RESULTAT=ANA_A2,
                   NOM_CHAM='REAC_NODA',
                   NOM_CMP='DZ',
                   VALE_CALC=55.8579809996,
                   
                   ),
                _F(NUME_ORDRE=1,
                   GROUP_NO='N7B',
                   REFERENCE='SOURCE_EXTERNE',
                   RESULTAT=ANA_A2,
                   NOM_CHAM='REAC_NODA',
                   NOM_CMP='DY',
                   VALE_CALC=17.3596067112,
                   VALE_REFE=15.779999999999999,
                   PRECISION=0.11,),
                _F(NUME_ORDRE=1,
                   GROUP_NO='N7B',
                   RESULTAT=ANA_A2,
                   NOM_CHAM='REAC_NODA',
                   NOM_CMP='DY',
                   VALE_CALC=17.3596067112,
                   
                   ),
                _F(NUME_ORDRE=1,
                   GROUP_NO='N11B',
                   REFERENCE='SOURCE_EXTERNE',
                   RESULTAT=ANA_A2,
                   NOM_CHAM='REAC_NODA',
                   NOM_CMP='DY',
                   VALE_CALC=15.7664328088,
                   VALE_REFE=19.57,
                   PRECISION=0.20000000000000001,),
                _F(NUME_ORDRE=1,
                   GROUP_NO='N11B',
                   RESULTAT=ANA_A2,
                   NOM_CHAM='REAC_NODA',
                   NOM_CMP='DY',
                   VALE_CALC=15.7664328088,
                   
                   ),
                _F(NUME_ORDRE=1,
                   GROUP_NO='N11B',
                   REFERENCE='SOURCE_EXTERNE',
                   RESULTAT=ANA_A2,
                   NOM_CHAM='REAC_NODA',
                   NOM_CMP='DZ',
                   VALE_CALC=42.9954281986,
                   VALE_REFE=42.350000000000001,
                   PRECISION=0.02,),
                _F(NUME_ORDRE=1,
                   GROUP_NO='N11B',
                   RESULTAT=ANA_A2,
                   NOM_CHAM='REAC_NODA',
                   NOM_CMP='DZ',
                   VALE_CALC=42.9954281986,
                   
                   ),
                _F(NUME_ORDRE=1,
                   GROUP_NO='N15B',
                   REFERENCE='SOURCE_EXTERNE',
                   RESULTAT=ANA_A2,
                   NOM_CHAM='REAC_NODA',
                   NOM_CMP='DX',
                   VALE_CALC=398.283066174,
                   VALE_REFE=388.99000000000001,
                   PRECISION=0.029999999999999999,),
                _F(NUME_ORDRE=1,
                   GROUP_NO='N15B',
                   RESULTAT=ANA_A2,
                   NOM_CHAM='REAC_NODA',
                   NOM_CMP='DX',
                   VALE_CALC=398.283066174,
                   
                   ),
                _F(NUME_ORDRE=1,
                   GROUP_NO='N17B',
                   REFERENCE='SOURCE_EXTERNE',
                   RESULTAT=ANA_A2,
                   NOM_CHAM='REAC_NODA',
                   NOM_CMP='DY',
                   VALE_CALC=45.1244008302,
                   VALE_REFE=45.829999999999998,
                   PRECISION=0.02,),
                _F(NUME_ORDRE=1,
                   GROUP_NO='N17B',
                   RESULTAT=ANA_A2,
                   NOM_CHAM='REAC_NODA',
                   NOM_CMP='DY',
                   VALE_CALC=45.1244008302,
                   
                   ),
                _F(NUME_ORDRE=1,
                   GROUP_NO='N17B',
                   REFERENCE='SOURCE_EXTERNE',
                   RESULTAT=ANA_A2,
                   NOM_CHAM='REAC_NODA',
                   NOM_CMP='DZ',
                   VALE_CALC=54.6377571378,
                   VALE_REFE=55.060000000000002,
                   PRECISION=1.E-2,),
                _F(NUME_ORDRE=1,
                   GROUP_NO='N17B',
                   RESULTAT=ANA_A2,
                   NOM_CHAM='REAC_NODA',
                   NOM_CMP='DZ',
                   VALE_CALC=54.6377571378,
                   
                   ),
                _F(NUME_ORDRE=1,
                   GROUP_NO='N36B',
                   REFERENCE='SOURCE_EXTERNE',
                   RESULTAT=ANA_A2,
                   NOM_CHAM='REAC_NODA',
                   NOM_CMP='DY',
                   VALE_CALC=167.606891467,
                   VALE_REFE=169.13999999999999,
                   PRECISION=1.E-2,),
                _F(NUME_ORDRE=1,
                   GROUP_NO='N36B',
                   RESULTAT=ANA_A2,
                   NOM_CHAM='REAC_NODA',
                   NOM_CMP='DY',
                   VALE_CALC=167.606891467,
                   
                   ),
                _F(NUME_ORDRE=1,
                   GROUP_NO='N36B',
                   REFERENCE='SOURCE_EXTERNE',
                   RESULTAT=ANA_A2,
                   NOM_CHAM='REAC_NODA',
                   NOM_CMP='DZ',
                   VALE_CALC=76.6813216996,
                   VALE_REFE=81.340000000000003,
                   PRECISION=0.059999999999999998,),
                _F(NUME_ORDRE=1,
                   GROUP_NO='N36B',
                   RESULTAT=ANA_A2,
                   NOM_CHAM='REAC_NODA',
                   NOM_CMP='DZ',
                   VALE_CALC=76.6813216996,
                   
                   ),
                _F(NUME_ORDRE=1,
                   GROUP_NO='N38B',
                   REFERENCE='SOURCE_EXTERNE',
                   RESULTAT=ANA_A2,
                   NOM_CHAM='REAC_NODA',
                   NOM_CMP='DX',
                   VALE_CALC=142.25571409,
                   VALE_REFE=135.99000000000001,
                   PRECISION=0.050000000000000003,),
                _F(NUME_ORDRE=1,
                   GROUP_NO='N38B',
                   RESULTAT=ANA_A2,
                   NOM_CHAM='REAC_NODA',
                   NOM_CMP='DX',
                   VALE_CALC=142.25571409,
                   
                   ),
                _F(NUME_ORDRE=1,
                   GROUP_NO='N38B',
                   REFERENCE='SOURCE_EXTERNE',
                   RESULTAT=ANA_A2,
                   NOM_CHAM='REAC_NODA',
                   NOM_CMP='DY',
                   VALE_CALC=54.6307077671,
                   VALE_REFE=54.259999999999998,
                   PRECISION=1.E-2,),
                _F(NUME_ORDRE=1,
                   GROUP_NO='N38B',
                   RESULTAT=ANA_A2,
                   NOM_CHAM='REAC_NODA',
                   NOM_CMP='DY',
                   VALE_CALC=54.6307077671,
                   
                   ),
                _F(NUME_ORDRE=1,
                   GROUP_NO='N38B',
                   REFERENCE='SOURCE_EXTERNE',
                   RESULTAT=ANA_A2,
                   NOM_CHAM='REAC_NODA',
                   NOM_CMP='DZ',
                   VALE_CALC=42.2523975619,
                   VALE_REFE=44.549999999999997,
                   PRECISION=0.059999999999999998,),
                _F(NUME_ORDRE=1,
                   GROUP_NO='N38B',
                   RESULTAT=ANA_A2,
                   NOM_CHAM='REAC_NODA',
                   NOM_CMP='DZ',
                   VALE_CALC=42.2523975619,
                   
                   ),
                _F(NUME_ORDRE=1,
                   GROUP_NO='N38B',
                   REFERENCE='SOURCE_EXTERNE',
                   RESULTAT=ANA_A2,
                   NOM_CHAM='REAC_NODA',
                   NOM_CMP='DRX',
                   VALE_CALC=2543.3772841,
                   VALE_REFE=2606.6900000000001,
                   PRECISION=0.029999999999999999,),
                _F(NUME_ORDRE=1,
                   GROUP_NO='N38B',
                   RESULTAT=ANA_A2,
                   NOM_CHAM='REAC_NODA',
                   NOM_CMP='DRX',
                   VALE_CALC=2543.3772841,
                   
                   ),
                _F(NUME_ORDRE=1,
                   GROUP_NO='N38B',
                   REFERENCE='SOURCE_EXTERNE',
                   RESULTAT=ANA_A2,
                   NOM_CHAM='REAC_NODA',
                   NOM_CMP='DRY',
                   VALE_CALC=2767.56610843,
                   VALE_REFE=2894.27,
                   PRECISION=0.050000000000000003,),
                _F(NUME_ORDRE=1,
                   GROUP_NO='N38B',
                   RESULTAT=ANA_A2,
                   NOM_CHAM='REAC_NODA',
                   NOM_CMP='DRY',
                   VALE_CALC=2767.56610843,
                   
                   ),
                _F(NUME_ORDRE=1,
                   GROUP_NO='N38B',
                   REFERENCE='SOURCE_EXTERNE',
                   RESULTAT=ANA_A2,
                   NOM_CHAM='REAC_NODA',
                   NOM_CMP='DRZ',
                   VALE_CALC=3797.69882507,
                   VALE_REFE=3763.0100000000002,
                   PRECISION=1.E-2,),
                _F(NUME_ORDRE=1,
                   GROUP_NO='N38B',
                   RESULTAT=ANA_A2,
                   NOM_CHAM='REAC_NODA',
                   NOM_CMP='DRZ',
                   VALE_CALC=3797.69882507,
                   
                   ),
                _F(NUME_ORDRE=1,
                   GROUP_NO='N23B',
                   REFERENCE='SOURCE_EXTERNE',
                   RESULTAT=ANA_A2,
                   NOM_CHAM='REAC_NODA',
                   NOM_CMP='DX',
                   VALE_CALC=201.93141739,
                   VALE_REFE=193.91999999999999,
                   PRECISION=0.050000000000000003,),
                _F(NUME_ORDRE=1,
                   GROUP_NO='N23B',
                   RESULTAT=ANA_A2,
                   NOM_CHAM='REAC_NODA',
                   NOM_CMP='DX',
                   VALE_CALC=201.93141739,
                   
                   ),
                _F(NUME_ORDRE=1,
                   GROUP_NO='N23B',
                   REFERENCE='SOURCE_EXTERNE',
                   RESULTAT=ANA_A2,
                   NOM_CHAM='REAC_NODA',
                   NOM_CMP='DY',
                   VALE_CALC=151.652566807,
                   VALE_REFE=151.53,
                   PRECISION=1.E-2,),
                _F(NUME_ORDRE=1,
                   GROUP_NO='N23B',
                   RESULTAT=ANA_A2,
                   NOM_CHAM='REAC_NODA',
                   NOM_CMP='DY',
                   VALE_CALC=151.652566807,
                   
                   ),
                _F(NUME_ORDRE=1,
                   GROUP_NO='N31B',
                   REFERENCE='SOURCE_EXTERNE',
                   RESULTAT=ANA_A2,
                   NOM_CHAM='REAC_NODA',
                   NOM_CMP='DX',
                   VALE_CALC=10.923368633,
                   VALE_REFE=11.09,
                   PRECISION=0.02,),
                _F(NUME_ORDRE=1,
                   GROUP_NO='N31B',
                   RESULTAT=ANA_A2,
                   NOM_CHAM='REAC_NODA',
                   NOM_CMP='DX',
                   VALE_CALC=10.923368633,
                   
                   ),
                _F(NUME_ORDRE=1,
                   GROUP_NO='N31B',
                   REFERENCE='SOURCE_EXTERNE',
                   RESULTAT=ANA_A2,
                   NOM_CHAM='REAC_NODA',
                   NOM_CMP='DY',
                   VALE_CALC=25.8899742728,
                   VALE_REFE=24.77,
                   PRECISION=0.050000000000000003,),
                _F(NUME_ORDRE=1,
                   GROUP_NO='N31B',
                   RESULTAT=ANA_A2,
                   NOM_CHAM='REAC_NODA',
                   NOM_CMP='DY',
                   VALE_CALC=25.8899742728,
                   
                   ),
                _F(NUME_ORDRE=1,
                   GROUP_NO='N31B',
                   REFERENCE='SOURCE_EXTERNE',
                   RESULTAT=ANA_A2,
                   NOM_CHAM='REAC_NODA',
                   NOM_CMP='DZ',
                   VALE_CALC=34.0508262034,
                   VALE_REFE=32.109999999999999,
                   PRECISION=0.070000000000000007,),
                _F(NUME_ORDRE=1,
                   GROUP_NO='N31B',
                   RESULTAT=ANA_A2,
                   NOM_CHAM='REAC_NODA',
                   NOM_CMP='DZ',
                   VALE_CALC=34.0508262034,
                   
                   ),
                _F(NUME_ORDRE=1,
                   GROUP_NO='N31B',
                   REFERENCE='SOURCE_EXTERNE',
                   RESULTAT=ANA_A2,
                   NOM_CHAM='REAC_NODA',
                   NOM_CMP='DRX',
                   VALE_CALC=2341.77658299,
                   VALE_REFE=2068.0,
                   PRECISION=0.14000000000000001,),
                _F(NUME_ORDRE=1,
                   GROUP_NO='N31B',
                   RESULTAT=ANA_A2,
                   NOM_CHAM='REAC_NODA',
                   NOM_CMP='DRX',
                   VALE_CALC=2341.77658299,
                   
                   ),
                _F(NUME_ORDRE=1,
                   GROUP_NO='N31B',
                   REFERENCE='SOURCE_EXTERNE',
                   RESULTAT=ANA_A2,
                   NOM_CHAM='REAC_NODA',
                   NOM_CMP='DRY',
                   VALE_CALC=234.662354406,
                   VALE_REFE=304.18000000000001,
                   PRECISION=0.23000000000000001,),
                _F(NUME_ORDRE=1,
                   GROUP_NO='N31B',
                   RESULTAT=ANA_A2,
                   NOM_CHAM='REAC_NODA',
                   NOM_CMP='DRY',
                   VALE_CALC=234.662354406,
                   
                   ),
                _F(NUME_ORDRE=1,
                   GROUP_NO='N31B',
                   REFERENCE='SOURCE_EXTERNE',
                   RESULTAT=ANA_A2,
                   NOM_CHAM='REAC_NODA',
                   NOM_CMP='DRZ',
                   VALE_CALC=725.640867797,
                   VALE_REFE=706.86000000000001,
                   PRECISION=0.029999999999999999,),
                _F(NUME_ORDRE=1,
                   GROUP_NO='N31B',
                   RESULTAT=ANA_A2,
                   NOM_CHAM='REAC_NODA',
                   NOM_CMP='DRZ',
                   VALE_CALC=725.640867797,
                   
                   ),
                ),
          )

###############################################################
# -------------------------------------------------------------
# ANALYSE SPECTRALE AVEC COMBINAISON CQC ET CORRECTION STATIQUE
# A3
# -------------------------------------------------------------        

CORR=MODE_STATIQUE(MATR_RIGI=RIGIDITE,
                   MATR_MASS=MASSE,
                   PSEUDO_MODE=_F(AXE=('X',),),);

CORR=CALC_CHAMP(reuse=CORR,
                RESULTAT=CORR,   
                FORCE='REAC_NODA')

ANA_A3=COMB_SISM_MODAL(MODE_MECA=MODECA,
                       AMOR_REDUIT=0.01,
                       MODE_CORR=CORR,
                       MONO_APPUI='OUI',
                       EXCIT=_F(AXE=(1.,0.,0.),
                                SPEC_OSCI=SRO,
                                ECHELLE=386.4,),
                       COMB_MODE=_F(TYPE='CQC',),
                       OPTION=('REAC_NODA',),);

# -------------------------------------------------------------
# VALIDATION DES REACTIONS NODALES
# -------------------------------------------------------------

TEST_RESU(RESU=(_F(NUME_ORDRE=1,
                   GROUP_NO='N1B',
                   REFERENCE='SOURCE_EXTERNE',
                   RESULTAT=ANA_A3,
                   NOM_CHAM='REAC_NODA',
                   NOM_CMP='DX',
                   VALE_CALC=42.7156780074,
                   VALE_REFE=43.850000000000001,
                   PRECISION=0.029999999999999999,),
                _F(NUME_ORDRE=1,
                   GROUP_NO='N1B',
                   RESULTAT=ANA_A3,
                   NOM_CHAM='REAC_NODA',
                   NOM_CMP='DX',
                   VALE_CALC=42.7156780074,
                   
                   ),
                _F(NUME_ORDRE=1,
                   GROUP_NO='N1B',
                   REFERENCE='SOURCE_EXTERNE',
                   RESULTAT=ANA_A3,
                   NOM_CHAM='REAC_NODA',
                   NOM_CMP='DY',
                   VALE_CALC=14.1389485515,
                   VALE_REFE=15.210000000000001,
                   PRECISION=0.080000000000000002,),
                _F(NUME_ORDRE=1,
                   GROUP_NO='N1B',
                   RESULTAT=ANA_A3,
                   NOM_CHAM='REAC_NODA',
                   NOM_CMP='DY',
                   VALE_CALC=14.1389485515,
                   
                   ),
                _F(NUME_ORDRE=1,
                   GROUP_NO='N1B',
                   REFERENCE='SOURCE_EXTERNE',
                   RESULTAT=ANA_A3,
                   NOM_CHAM='REAC_NODA',
                   NOM_CMP='DZ',
                   VALE_CALC=26.0448365749,
                   VALE_REFE=24.91,
                   PRECISION=0.050000000000000003,),
                _F(NUME_ORDRE=1,
                   GROUP_NO='N1B',
                   RESULTAT=ANA_A3,
                   NOM_CHAM='REAC_NODA',
                   NOM_CMP='DZ',
                   VALE_CALC=26.0448365749,
                   
                   ),
                _F(NUME_ORDRE=1,
                   GROUP_NO='N1B',
                   REFERENCE='SOURCE_EXTERNE',
                   RESULTAT=ANA_A3,
                   NOM_CHAM='REAC_NODA',
                   NOM_CMP='DRX',
                   VALE_CALC=816.813636614,
                   VALE_REFE=766.72000000000003,
                   PRECISION=0.070000000000000007,),
                _F(NUME_ORDRE=1,
                   GROUP_NO='N1B',
                   RESULTAT=ANA_A3,
                   NOM_CHAM='REAC_NODA',
                   NOM_CMP='DRX',
                   VALE_CALC=816.813636614,
                   
                   ),
                _F(NUME_ORDRE=1,
                   GROUP_NO='N1B',
                   REFERENCE='SOURCE_EXTERNE',
                   RESULTAT=ANA_A3,
                   NOM_CHAM='REAC_NODA',
                   NOM_CMP='DRY',
                   VALE_CALC=938.753588721,
                   VALE_REFE=934.02999999999997,
                   PRECISION=1.E-2,),
                _F(NUME_ORDRE=1,
                   GROUP_NO='N1B',
                   RESULTAT=ANA_A3,
                   NOM_CHAM='REAC_NODA',
                   NOM_CMP='DRY',
                   VALE_CALC=938.753588721,
                   
                   ),
                _F(NUME_ORDRE=1,
                   GROUP_NO='N1B',
                   REFERENCE='SOURCE_EXTERNE',
                   RESULTAT=ANA_A3,
                   NOM_CHAM='REAC_NODA',
                   NOM_CMP='DRZ',
                   VALE_CALC=994.992485651,
                   VALE_REFE=1108.78,
                   PRECISION=0.11,),
                _F(NUME_ORDRE=1,
                   GROUP_NO='N1B',
                   RESULTAT=ANA_A3,
                   NOM_CHAM='REAC_NODA',
                   NOM_CMP='DRZ',
                   VALE_CALC=994.992485651,
                   
                   ),
                _F(NUME_ORDRE=1,
                   GROUP_NO='N4B',
                   REFERENCE='SOURCE_EXTERNE',
                   RESULTAT=ANA_A3,
                   NOM_CHAM='REAC_NODA',
                   NOM_CMP='DX',
                   VALE_CALC=79.4536436539,
                   VALE_REFE=77.359999999999999,
                   PRECISION=0.029999999999999999,),
                _F(NUME_ORDRE=1,
                   GROUP_NO='N4B',
                   RESULTAT=ANA_A3,
                   NOM_CHAM='REAC_NODA',
                   NOM_CMP='DX',
                   VALE_CALC=79.4536436539,
                   
                   ),
                _F(NUME_ORDRE=1,
                   GROUP_NO='N4B',
                   REFERENCE='SOURCE_EXTERNE',
                   RESULTAT=ANA_A3,
                   NOM_CHAM='REAC_NODA',
                   NOM_CMP='DZ',
                   VALE_CALC=56.2787091866,
                   VALE_REFE=56.119999999999997,
                   PRECISION=1.E-2,),
                _F(NUME_ORDRE=1,
                   GROUP_NO='N4B',
                   RESULTAT=ANA_A3,
                   NOM_CHAM='REAC_NODA',
                   NOM_CMP='DZ',
                   VALE_CALC=56.2787091866,
                   
                   ),
                _F(NUME_ORDRE=1,
                   GROUP_NO='N7B',
                   REFERENCE='SOURCE_EXTERNE',
                   RESULTAT=ANA_A3,
                   NOM_CHAM='REAC_NODA',
                   NOM_CMP='DY',
                   VALE_CALC=17.3611657489,
                   VALE_REFE=15.99,
                   PRECISION=0.089999999999999997,),
                _F(NUME_ORDRE=1,
                   GROUP_NO='N7B',
                   RESULTAT=ANA_A3,
                   NOM_CHAM='REAC_NODA',
                   NOM_CMP='DY',
                   VALE_CALC=17.3611657489,
                   
                   ),
                _F(NUME_ORDRE=1,
                   GROUP_NO='N11B',
                   REFERENCE='SOURCE_EXTERNE',
                   RESULTAT=ANA_A3,
                   NOM_CHAM='REAC_NODA',
                   NOM_CMP='DY',
                   VALE_CALC=15.7670252221,
                   VALE_REFE=19.59,
                   PRECISION=0.20000000000000001,),
                _F(NUME_ORDRE=1,
                   GROUP_NO='N11B',
                   RESULTAT=ANA_A3,
                   NOM_CHAM='REAC_NODA',
                   NOM_CMP='DY',
                   VALE_CALC=15.7670252221,
                   
                   ),
                _F(NUME_ORDRE=1,
                   GROUP_NO='N11B',
                   REFERENCE='SOURCE_EXTERNE',
                   RESULTAT=ANA_A3,
                   NOM_CHAM='REAC_NODA',
                   NOM_CMP='DZ',
                   VALE_CALC=44.5151651082,
                   VALE_REFE=43.43,
                   PRECISION=0.029999999999999999,),
                _F(NUME_ORDRE=1,
                   GROUP_NO='N11B',
                   RESULTAT=ANA_A3,
                   NOM_CHAM='REAC_NODA',
                   NOM_CMP='DZ',
                   VALE_CALC=44.5151651082,
                   
                   ),
                _F(NUME_ORDRE=1,
                   GROUP_NO='N15B',
                   REFERENCE='SOURCE_EXTERNE',
                   RESULTAT=ANA_A3,
                   NOM_CHAM='REAC_NODA',
                   NOM_CMP='DX',
                   VALE_CALC=399.148777949,
                   VALE_REFE=389.63999999999999,
                   PRECISION=0.029999999999999999,),
                _F(NUME_ORDRE=1,
                   GROUP_NO='N15B',
                   RESULTAT=ANA_A3,
                   NOM_CHAM='REAC_NODA',
                   NOM_CMP='DX',
                   VALE_CALC=399.148777949,
                   
                   ),
                _F(NUME_ORDRE=1,
                   GROUP_NO='N17B',
                   REFERENCE='SOURCE_EXTERNE',
                   RESULTAT=ANA_A3,
                   NOM_CHAM='REAC_NODA',
                   NOM_CMP='DY',
                   VALE_CALC=45.1252718386,
                   VALE_REFE=45.950000000000003,
                   PRECISION=0.02,),
                _F(NUME_ORDRE=1,
                   GROUP_NO='N17B',
                   RESULTAT=ANA_A3,
                   NOM_CHAM='REAC_NODA',
                   NOM_CMP='DY',
                   VALE_CALC=45.1252718386,
                   
                   ),
                _F(NUME_ORDRE=1,
                   GROUP_NO='N17B',
                   REFERENCE='SOURCE_EXTERNE',
                   RESULTAT=ANA_A3,
                   NOM_CHAM='REAC_NODA',
                   NOM_CMP='DZ',
                   VALE_CALC=55.2636584683,
                   VALE_REFE=55.310000000000002,
                   PRECISION=1.E-3,),
                _F(NUME_ORDRE=1,
                   GROUP_NO='N17B',
                   RESULTAT=ANA_A3,
                   NOM_CHAM='REAC_NODA',
                   NOM_CMP='DZ',
                   VALE_CALC=55.2636584683,
                   
                   ),
                _F(NUME_ORDRE=1,
                   GROUP_NO='N36B',
                   REFERENCE='SOURCE_EXTERNE',
                   RESULTAT=ANA_A3,
                   NOM_CHAM='REAC_NODA',
                   NOM_CMP='DY',
                   VALE_CALC=167.614811424,
                   VALE_REFE=171.56999999999999,
                   PRECISION=0.029999999999999999,),
                _F(NUME_ORDRE=1,
                   GROUP_NO='N36B',
                   RESULTAT=ANA_A3,
                   NOM_CHAM='REAC_NODA',
                   NOM_CMP='DY',
                   VALE_CALC=167.614811424,
                   
                   ),
                _F(NUME_ORDRE=1,
                   GROUP_NO='N36B',
                   REFERENCE='SOURCE_EXTERNE',
                   RESULTAT=ANA_A3,
                   NOM_CHAM='REAC_NODA',
                   NOM_CMP='DZ',
                   VALE_CALC=81.8163051603,
                   VALE_REFE=90.689999999999998,
                   PRECISION=0.10000000000000001,),
                _F(NUME_ORDRE=1,
                   GROUP_NO='N36B',
                   RESULTAT=ANA_A3,
                   NOM_CHAM='REAC_NODA',
                   NOM_CMP='DZ',
                   VALE_CALC=81.8163051603,
                   
                   ),
                _F(NUME_ORDRE=1,
                   GROUP_NO='N38B',
                   REFERENCE='SOURCE_EXTERNE',
                   RESULTAT=ANA_A3,
                   NOM_CHAM='REAC_NODA',
                   NOM_CMP='DX',
                   VALE_CALC=631.526537933,
                   VALE_REFE=566.64999999999998,
                   PRECISION=0.12,),
                _F(NUME_ORDRE=1,
                   GROUP_NO='N38B',
                   RESULTAT=ANA_A3,
                   NOM_CHAM='REAC_NODA',
                   NOM_CMP='DX',
                   VALE_CALC=631.526537933,
                   
                   ),
                _F(NUME_ORDRE=1,
                   GROUP_NO='N38B',
                   REFERENCE='SOURCE_EXTERNE',
                   RESULTAT=ANA_A3,
                   NOM_CHAM='REAC_NODA',
                   NOM_CMP='DY',
                   VALE_CALC=54.634718846,
                   VALE_REFE=54.289999999999999,
                   PRECISION=1.E-2,),
                _F(NUME_ORDRE=1,
                   GROUP_NO='N38B',
                   RESULTAT=ANA_A3,
                   NOM_CHAM='REAC_NODA',
                   NOM_CMP='DY',
                   VALE_CALC=54.634718846,
                   
                   ),
                _F(NUME_ORDRE=1,
                   GROUP_NO='N38B',
                   REFERENCE='SOURCE_EXTERNE',
                   RESULTAT=ANA_A3,
                   NOM_CHAM='REAC_NODA',
                   NOM_CMP='DZ',
                   VALE_CALC=47.994051203,
                   VALE_REFE=50.450000000000003,
                   PRECISION=0.050000000000000003,),
                _F(NUME_ORDRE=1,
                   GROUP_NO='N38B',
                   RESULTAT=ANA_A3,
                   NOM_CHAM='REAC_NODA',
                   NOM_CMP='DZ',
                   VALE_CALC=47.994051203,
                   
                   ),
                _F(NUME_ORDRE=1,
                   GROUP_NO='N38B',
                   REFERENCE='SOURCE_EXTERNE',
                   RESULTAT=ANA_A3,
                   NOM_CHAM='REAC_NODA',
                   NOM_CMP='DRX',
                   VALE_CALC=2543.42017434,
                   VALE_REFE=2606.6900000000001,
                   PRECISION=0.029999999999999999,),
                _F(NUME_ORDRE=1,
                   GROUP_NO='N38B',
                   RESULTAT=ANA_A3,
                   NOM_CHAM='REAC_NODA',
                   NOM_CMP='DRX',
                   VALE_CALC=2543.42017434,
                   
                   ),
                _F(NUME_ORDRE=1,
                   GROUP_NO='N38B',
                   REFERENCE='SOURCE_EXTERNE',
                   RESULTAT=ANA_A3,
                   NOM_CHAM='REAC_NODA',
                   NOM_CMP='DRY',
                   VALE_CALC=3017.36778737,
                   VALE_REFE=3142.75,
                   PRECISION=0.040000000000000001,),
                _F(NUME_ORDRE=1,
                   GROUP_NO='N38B',
                   RESULTAT=ANA_A3,
                   NOM_CHAM='REAC_NODA',
                   NOM_CMP='DRY',
                   VALE_CALC=3017.36778737,
                   
                   ),
                _F(NUME_ORDRE=1,
                   GROUP_NO='N38B',
                   REFERENCE='SOURCE_EXTERNE',
                   RESULTAT=ANA_A3,
                   NOM_CHAM='REAC_NODA',
                   NOM_CMP='DRZ',
                   VALE_CALC=3797.94901611,
                   VALE_REFE=3764.9699999999998,
                   PRECISION=1.E-2,),
                _F(NUME_ORDRE=1,
                   GROUP_NO='N38B',
                   RESULTAT=ANA_A3,
                   NOM_CHAM='REAC_NODA',
                   NOM_CMP='DRZ',
                   VALE_CALC=3797.94901611,
                   
                   ),
                _F(NUME_ORDRE=1,
                   GROUP_NO='N23B',
                   REFERENCE='SOURCE_EXTERNE',
                   RESULTAT=ANA_A3,
                   NOM_CHAM='REAC_NODA',
                   NOM_CMP='DX',
                   VALE_CALC=254.809541417,
                   VALE_REFE=245.05000000000001,
                   PRECISION=0.040000000000000001,),
                _F(NUME_ORDRE=1,
                   GROUP_NO='N23B',
                   RESULTAT=ANA_A3,
                   NOM_CHAM='REAC_NODA',
                   NOM_CMP='DX',
                   VALE_CALC=254.809541417,
                   
                   ),
                _F(NUME_ORDRE=1,
                   GROUP_NO='N23B',
                   REFERENCE='SOURCE_EXTERNE',
                   RESULTAT=ANA_A3,
                   NOM_CHAM='REAC_NODA',
                   NOM_CMP='DY',
                   VALE_CALC=151.714895461,
                   VALE_REFE=151.99000000000001,
                   PRECISION=1.E-2,),
                _F(NUME_ORDRE=1,
                   GROUP_NO='N23B',
                   RESULTAT=ANA_A3,
                   NOM_CHAM='REAC_NODA',
                   NOM_CMP='DY',
                   VALE_CALC=151.714895461,
                   
                   ),
                _F(NUME_ORDRE=1,
                   GROUP_NO='N31B',
                   REFERENCE='SOURCE_EXTERNE',
                   RESULTAT=ANA_A3,
                   NOM_CHAM='REAC_NODA',
                   NOM_CMP='DX',
                   VALE_CALC=57.3885854485,
                   VALE_REFE=54.420000000000002,
                   PRECISION=0.059999999999999998,),
                _F(NUME_ORDRE=1,
                   GROUP_NO='N31B',
                   RESULTAT=ANA_A3,
                   NOM_CHAM='REAC_NODA',
                   NOM_CMP='DX',
                   VALE_CALC=57.3885854485,
                   
                   ),
                _F(NUME_ORDRE=1,
                   GROUP_NO='N31B',
                   REFERENCE='SOURCE_EXTERNE',
                   RESULTAT=ANA_A3,
                   NOM_CHAM='REAC_NODA',
                   NOM_CMP='DY',
                   VALE_CALC=28.7665676629,
                   VALE_REFE=27.73,
                   PRECISION=0.040000000000000001,),
                _F(NUME_ORDRE=1,
                   GROUP_NO='N31B',
                   RESULTAT=ANA_A3,
                   NOM_CHAM='REAC_NODA',
                   NOM_CMP='DY',
                   VALE_CALC=28.7665676629,
                   
                   ),
                _F(NUME_ORDRE=1,
                   GROUP_NO='N31B',
                   REFERENCE='SOURCE_EXTERNE',
                   RESULTAT=ANA_A3,
                   NOM_CHAM='REAC_NODA',
                   NOM_CMP='DZ',
                   VALE_CALC=34.4533784793,
                   VALE_REFE=32.259999999999998,
                   PRECISION=0.070000000000000007,),
                _F(NUME_ORDRE=1,
                   GROUP_NO='N31B',
                   RESULTAT=ANA_A3,
                   NOM_CHAM='REAC_NODA',
                   NOM_CMP='DZ',
                   VALE_CALC=34.4533784793,
                   
                   ),
                _F(NUME_ORDRE=1,
                   GROUP_NO='N31B',
                   REFERENCE='SOURCE_EXTERNE',
                   RESULTAT=ANA_A3,
                   NOM_CHAM='REAC_NODA',
                   NOM_CMP='DRX',
                   VALE_CALC=2351.74416167,
                   VALE_REFE=2072.0300000000002,
                   PRECISION=0.14000000000000001,),
                _F(NUME_ORDRE=1,
                   GROUP_NO='N31B',
                   RESULTAT=ANA_A3,
                   NOM_CHAM='REAC_NODA',
                   NOM_CMP='DRX',
                   VALE_CALC=2351.74416167,
                   
                   ),
                _F(NUME_ORDRE=1,
                   GROUP_NO='N31B',
                   REFERENCE='SOURCE_EXTERNE',
                   RESULTAT=ANA_A3,
                   NOM_CHAM='REAC_NODA',
                   NOM_CMP='DRY',
                   VALE_CALC=414.425827523,
                   VALE_REFE=567.60000000000002,
                   PRECISION=0.28000000000000003,),
                _F(NUME_ORDRE=1,
                   GROUP_NO='N31B',
                   RESULTAT=ANA_A3,
                   NOM_CHAM='REAC_NODA',
                   NOM_CMP='DRY',
                   VALE_CALC=414.425827523,
                   
                   ),
                _F(NUME_ORDRE=1,
                   GROUP_NO='N31B',
                   REFERENCE='SOURCE_EXTERNE',
                   RESULTAT=ANA_A3,
                   NOM_CHAM='REAC_NODA',
                   NOM_CMP='DRZ',
                   VALE_CALC=1982.9908161,
                   VALE_REFE=1912.28,
                   PRECISION=0.040000000000000001,),
                _F(NUME_ORDRE=1,
                   GROUP_NO='N31B',
                   RESULTAT=ANA_A3,
                   NOM_CHAM='REAC_NODA',
                   NOM_CMP='DRZ',
                   VALE_CALC=1982.9908161,
                   
                   ),
                ),
          )

###############################################################
# -------------------------------------------------------------
# ANALYSE SPECTRALE AVEC CORRECTION STATIQUE ET 
# LA METHODE DE GUPTA : A4
# -------------------------------------------------------------        

ANA_A4=COMB_SISM_MODAL(MODE_MECA=MODECA,
                       AMOR_REDUIT=0.01,
                       MONO_APPUI='OUI',
                       MODE_CORR=CORR,
                       EXCIT=_F(AXE=(1.,0.,0.),
                                SPEC_OSCI=SRO,
                                ECHELLE=386.4,),
                       COMB_MODE=_F(TYPE='GUPTA',
                                    FREQ_1=2.80,
                                    FREQ_2=11.90,),
                       OPTION=('REAC_NODA',),);

# -------------------------------------------------------------
# VALIDATION DES REACTIONS NODALES
[...]
                   NOM_CMP='DRZ',
                   VALE_CALC=2426.56070124,
                   
                   ),
                ),
          )

###############################################################
# -------------------------------------------------------------
# ANALYSE SPECTRALE AVEC CORRECTION STATIQUE ET 
# LA METHODE DE GUPTA : A4
# -------------------------------------------------------------        

ANA_A6=COMB_SISM_MODAL(MODE_MECA=MODECA,
                       AMOR_REDUIT=0.01,
                       MONO_APPUI='OUI',
                       MODE_CORR=CORR,
                       EXCIT=_F(AXE=(1.,0.,0.),
                                SPEC_OSCI=SRO,
                                ECHELLE=386.4,),
                       COMB_MODE=_F(TYPE='GUPTA',
                                    FREQ_1=2.80,
                                    FREQ_2=6.,),
                       OPTION=('REAC_NODA',),);

# -------------------------------------------------------------
# VALIDATION DES REACTIONS NODALES
# -------------------------------------------------------------

TEST_RESU(RESU=(_F(NUME_ORDRE=1,
                   GROUP_NO='N1B',
                   REFERENCE='SOURCE_EXTERNE',
                   RESULTAT=ANA_A6,
                   NOM_CHAM='REAC_NODA',
                   NOM_CMP='DX',
                   VALE_CALC=52.1228485072,
                   VALE_REFE=52.049999999999997,
                   PRECISION=1.E-2,),
                _F(NUME_ORDRE=1,
                   GROUP_NO='N1B',
                   RESULTAT=ANA_A6,
                   NOM_CHAM='REAC_NODA',
                   NOM_CMP='DX',
                   VALE_CALC=52.1228485072,
                   
                   ),
                _F(NUME_ORDRE=1,
                   GROUP_NO='N1B',
                   REFERENCE='SOURCE_EXTERNE',
                   RESULTAT=ANA_A6,
                   NOM_CHAM='REAC_NODA',
                   NOM_CMP='DY',
                   VALE_CALC=3.14530337494,
                   VALE_REFE=2.73,
                   PRECISION=0.16,),
                _F(NUME_ORDRE=1,
                   GROUP_NO='N1B',
                   RESULTAT=ANA_A6,
                   NOM_CHAM='REAC_NODA',
                   NOM_CMP='DY',
                   VALE_CALC=3.14530337494,
                   
                   ),
                _F(NUME_ORDRE=1,
                   GROUP_NO='N1B',
                   REFERENCE='SOURCE_EXTERNE',
                   RESULTAT=ANA_A6,
                   NOM_CHAM='REAC_NODA',
                   NOM_CMP='DZ',
                   VALE_CALC=3.72962636829,
                   VALE_REFE=4.9299999999999997,
                   PRECISION=0.25,),
                _F(NUME_ORDRE=1,
                   GROUP_NO='N1B',
                   RESULTAT=ANA_A6,
                   NOM_CHAM='REAC_NODA',
                   NOM_CMP='DZ',
                   VALE_CALC=3.72962636829,
                   
                   ),
                _F(NUME_ORDRE=1,
                   GROUP_NO='N1B',
                   REFERENCE='SOURCE_EXTERNE',
                   RESULTAT=ANA_A6,
                   NOM_CHAM='REAC_NODA',
                   NOM_CMP='DRX',
                   VALE_CALC=121.389998574,
                   VALE_REFE=135.38999999999999,
                   PRECISION=0.11,),
                _F(NUME_ORDRE=1,
                   GROUP_NO='N1B',
                   RESULTAT=ANA_A6,
                   NOM_CHAM='REAC_NODA',
                   NOM_CMP='DRX',
                   VALE_CALC=121.389998574,
                   
                   ),
                _F(NUME_ORDRE=1,
                   GROUP_NO='N1B',
                   REFERENCE='SOURCE_EXTERNE',
                   RESULTAT=ANA_A6,
                   NOM_CHAM='REAC_NODA',
                   NOM_CMP='DRY',
                   VALE_CALC=905.240888297,
                   VALE_REFE=877.80999999999995,
                   PRECISION=0.040000000000000001,),
                _F(NUME_ORDRE=1,
                   GROUP_NO='N1B',
                   RESULTAT=ANA_A6,
                   NOM_CHAM='REAC_NODA',
                   NOM_CMP='DRY',
                   VALE_CALC=905.240888297,
                   
                   ),
                _F(NUME_ORDRE=1,
                   GROUP_NO='N1B',
                   REFERENCE='SOURCE_EXTERNE',
                   RESULTAT=ANA_A6,
                   NOM_CHAM='REAC_NODA',
                   NOM_CMP='DRZ',
                   VALE_CALC=851.00735658,
                   VALE_REFE=864.96000000000004,
                   PRECISION=0.02,),
                _F(NUME_ORDRE=1,
                   GROUP_NO='N1B',
                   RESULTAT=ANA_A6,
                   NOM_CHAM='REAC_NODA',
                   NOM_CMP='DRZ',
                   VALE_CALC=851.00735658,
                   
                   ),
                _F(NUME_ORDRE=1,
                   GROUP_NO='N4B',
                   REFERENCE='SOURCE_EXTERNE',
                   RESULTAT=ANA_A6,
                   NOM_CHAM='REAC_NODA',
                   NOM_CMP='DX',
                   VALE_CALC=114.663309997,
                   VALE_REFE=114.06,
                   PRECISION=1.E-2,),
                _F(NUME_ORDRE=1,
                   GROUP_NO='N4B',
                   RESULTAT=ANA_A6,
                   NOM_CHAM='REAC_NODA',
                   NOM_CMP='DX',
                   VALE_CALC=114.663309997,
                   
                   ),
                _F(NUME_ORDRE=1,
                   GROUP_NO='N4B',
                   REFERENCE='SOURCE_EXTERNE',
                   RESULTAT=ANA_A6,
                   NOM_CHAM='REAC_NODA',
                   NOM_CMP='DZ',
                   VALE_CALC=32.995072247,
                   VALE_REFE=34.899999999999999,
                   PRECISION=0.059999999999999998,),
                _F(NUME_ORDRE=1,
                   GROUP_NO='N4B',
                   RESULTAT=ANA_A6,
                   NOM_CHAM='REAC_NODA',
                   NOM_CMP='DZ',
                   VALE_CALC=32.995072247,
                   
                   ),
                _F(NUME_ORDRE=1,
                   GROUP_NO='N7B',
                   REFERENCE='SOURCE_EXTERNE',
                   RESULTAT=ANA_A6,
                   NOM_CHAM='REAC_NODA',
                   NOM_CMP='DY',
                   VALE_CALC=9.36754766897,
                   VALE_REFE=6.7699999999999996,
                   PRECISION=0.39000000000000001,),
                _F(NUME_ORDRE=1,
                   GROUP_NO='N7B',
                   RESULTAT=ANA_A6,
                   NOM_CHAM='REAC_NODA',
                   NOM_CMP='DY',
                   VALE_CALC=9.36754766897,
                   
                   ),
                _F(NUME_ORDRE=1,
                   GROUP_NO='N11B',
                   REFERENCE='SOURCE_EXTERNE',
                   RESULTAT=ANA_A6,
                   NOM_CHAM='REAC_NODA',
                   NOM_CMP='DY',
                   VALE_CALC=7.92832275015,
                   VALE_REFE=12.44,
                   PRECISION=0.37,),
                _F(NUME_ORDRE=1,
                   GROUP_NO='N11B',
                   RESULTAT=ANA_A6,
                   NOM_CHAM='REAC_NODA',
                   NOM_CMP='DY',
                   VALE_CALC=7.92832275015,
                   
                   ),
                _F(NUME_ORDRE=1,
                   GROUP_NO='N11B',
                   REFERENCE='SOURCE_EXTERNE',
                   RESULTAT=ANA_A6,
                   NOM_CHAM='REAC_NODA',
                   NOM_CMP='DZ',
                   VALE_CALC=60.289910567,
                   VALE_REFE=61.990000000000002,
                   PRECISION=0.029999999999999999,),
                _F(NUME_ORDRE=1,
                   GROUP_NO='N11B',
                   RESULTAT=ANA_A6,
                   NOM_CHAM='REAC_NODA',
                   NOM_CMP='DZ',
                   VALE_CALC=60.289910567,
                   
                   ),
                _F(NUME_ORDRE=1,
                   GROUP_NO='N15B',
                   REFERENCE='SOURCE_EXTERNE',
                   RESULTAT=ANA_A6,
                   NOM_CHAM='REAC_NODA',
                   NOM_CMP='DX',
                   VALE_CALC=646.590108217,
                   VALE_REFE=641.84000000000003,
                   PRECISION=1.E-2,),
                _F(NUME_ORDRE=1,
                   GROUP_NO='N15B',
                   RESULTAT=ANA_A6,
                   NOM_CHAM='REAC_NODA',
                   NOM_CMP='DX',
                   VALE_CALC=646.590108217,
                   
                   ),
                _F(NUME_ORDRE=1,
                   GROUP_NO='N17B',
                   REFERENCE='SOURCE_EXTERNE',
                   RESULTAT=ANA_A6,
                   NOM_CHAM='REAC_NODA',
                   NOM_CMP='DY',
                   VALE_CALC=26.7095397541,
                   VALE_REFE=26.390000000000001,
                   PRECISION=0.02,),
                _F(NUME_ORDRE=1,
                   GROUP_NO='N17B',
                   RESULTAT=ANA_A6,
                   NOM_CHAM='REAC_NODA',
                   NOM_CMP='DY',
                   VALE_CALC=26.7095397541,
                   
                   ),
                _F(NUME_ORDRE=1,
                   GROUP_NO='N17B',
                   REFERENCE='SOURCE_EXTERNE',
                   RESULTAT=ANA_A6,
                   NOM_CHAM='REAC_NODA',
                   NOM_CMP='DZ',
                   VALE_CALC=48.119675342,
                   VALE_REFE=46.859999999999999,
                   PRECISION=0.029999999999999999,),
                _F(NUME_ORDRE=1,
                   GROUP_NO='N17B',
                   RESULTAT=ANA_A6,
                   NOM_CHAM='REAC_NODA',
                   NOM_CMP='DZ',
                   VALE_CALC=48.119675342,
                   
                   ),
                _F(NUME_ORDRE=1,
                   GROUP_NO='N36B',
                   REFERENCE='SOURCE_EXTERNE',
                   RESULTAT=ANA_A6,
                   NOM_CHAM='REAC_NODA',
                   NOM_CMP='DY',
                   VALE_CALC=48.5371184212,
                   VALE_REFE=61.159999999999997,
                   PRECISION=0.20999999999999999,),
                _F(NUME_ORDRE=1,
                   GROUP_NO='N36B',
                   RESULTAT=ANA_A6,
                   NOM_CHAM='REAC_NODA',
                   NOM_CMP='DY',
                   VALE_CALC=48.5371184212,
                   
                   ),
                _F(NUME_ORDRE=1,
                   GROUP_NO='N36B',
                   REFERENCE='SOURCE_EXTERNE',
                   RESULTAT=ANA_A6,
                   NOM_CHAM='REAC_NODA',
                   NOM_CMP='DZ',
                   VALE_CALC=50.4185858779,
                   VALE_REFE=42.380000000000003,
                   PRECISION=0.20000000000000001,),
                _F(NUME_ORDRE=1,
                   GROUP_NO='N36B',
                   RESULTAT=ANA_A6,
                   NOM_CHAM='REAC_NODA',
                   NOM_CMP='DZ',
                   VALE_CALC=50.4185858779,
                   
                   ),
                _F(NUME_ORDRE=1,
                   GROUP_NO='N38B',
                   REFERENCE='SOURCE_EXTERNE',
                   RESULTAT=ANA_A6,
                   NOM_CHAM='REAC_NODA',
                   NOM_CMP='DX',
                   VALE_CALC=812.132215778,
                   VALE_REFE=739.28999999999996,
                   PRECISION=0.10000000000000001,),
                _F(NUME_ORDRE=1,
                   GROUP_NO='N38B',
                   RESULTAT=ANA_A6,
                   NOM_CHAM='REAC_NODA',
                   NOM_CMP='DX',
                   VALE_CALC=812.132215778,
                   
                   ),
                _F(NUME_ORDRE=1,
                   GROUP_NO='N38B',
                   REFERENCE='SOURCE_EXTERNE',
                   RESULTAT=ANA_A6,
                   NOM_CHAM='REAC_NODA',
                   NOM_CMP='DY',
                   VALE_CALC=43.2632320507,
                   VALE_REFE=42.920000000000002,
                   PRECISION=1.E-2,),
                _F(NUME_ORDRE=1,
                   GROUP_NO='N38B',
                   RESULTAT=ANA_A6,
                   NOM_CHAM='REAC_NODA',
                   NOM_CMP='DY',
                   VALE_CALC=43.2632320507,
                   
                   ),
                _F(NUME_ORDRE=1,
                   GROUP_NO='N38B',
                   REFERENCE='SOURCE_EXTERNE',
                   RESULTAT=ANA_A6,
                   NOM_CHAM='REAC_NODA',
                   NOM_CMP='DZ',
                   VALE_CALC=39.1918441903,
                   VALE_REFE=41.670000000000002,
                   PRECISION=0.059999999999999998,),
                _F(NUME_ORDRE=1,
                   GROUP_NO='N38B',
                   RESULTAT=ANA_A6,
                   NOM_CHAM='REAC_NODA',
                   NOM_CMP='DZ',
                   VALE_CALC=39.1918441903,
                   
                   ),
                _F(NUME_ORDRE=1,
                   GROUP_NO='N38B',
                   REFERENCE='SOURCE_EXTERNE',
                   RESULTAT=ANA_A6,
                   NOM_CHAM='REAC_NODA',
                   NOM_CMP='DRX',
                   VALE_CALC=378.265004835,
                   VALE_REFE=369.63999999999999,
                   PRECISION=0.029999999999999999,),
                _F(NUME_ORDRE=1,
                   GROUP_NO='N38B',
                   RESULTAT=ANA_A6,
                   NOM_CHAM='REAC_NODA',
                   NOM_CMP='DRX',
                   VALE_CALC=378.265004835,
                   
                   ),
                _F(NUME_ORDRE=1,
                   GROUP_NO='N38B',
                   REFERENCE='SOURCE_EXTERNE',
                   RESULTAT=ANA_A6,
                   NOM_CHAM='REAC_NODA',
                   NOM_CMP='DRY',
                   VALE_CALC=2750.0105122,
                   VALE_REFE=2909.0100000000002,
                   PRECISION=0.059999999999999998,),
                _F(NUME_ORDRE=1,
                   GROUP_NO='N38B',
                   RESULTAT=ANA_A6,
                   NOM_CHAM='REAC_NODA',
                   NOM_CMP='DRY',
                   VALE_CALC=2750.0105122,
                   
                   ),
                _F(NUME_ORDRE=1,
                   GROUP_NO='N38B',
                   REFERENCE='SOURCE_EXTERNE',
                   RESULTAT=ANA_A6,
                   NOM_CHAM='REAC_NODA',
                   NOM_CMP='DRZ',
                   VALE_CALC=3062.19086917,
                   VALE_REFE=3036.6199999999999,
                   PRECISION=1.E-2,),
                _F(NUME_ORDRE=1,
                   GROUP_NO='N38B',
                   RESULTAT=ANA_A6,
                   NOM_CHAM='REAC_NODA',
                   NOM_CMP='DRZ',
                   VALE_CALC=3062.19086917,
                   
                   ),
                _F(NUME_ORDRE=1,
                   GROUP_NO='N23B',
                   REFERENCE='SOURCE_EXTERNE',
                   RESULTAT=ANA_A6,
                   NOM_CHAM='REAC_NODA',
                   NOM_CMP='DX',
                   VALE_CALC=319.08445229,
                   VALE_REFE=304.80000000000001,
                   PRECISION=0.050000000000000003,),
                _F(NUME_ORDRE=1,
                   GROUP_NO='N23B',
                   RESULTAT=ANA_A6,
                   NOM_CHAM='REAC_NODA',
                   NOM_CMP='DX',
                   VALE_CALC=319.08445229,
                   
                   ),
                _F(NUME_ORDRE=1,
                   GROUP_NO='N23B',
                   REFERENCE='SOURCE_EXTERNE',
                   RESULTAT=ANA_A6,
                   NOM_CHAM='REAC_NODA',
                   NOM_CMP='DY',
                   VALE_CALC=18.6823138049,
                   VALE_REFE=16.75,
                   PRECISION=0.12,),
                _F(NUME_ORDRE=1,
                   GROUP_NO='N23B',
                   RESULTAT=ANA_A6,
                   NOM_CHAM='REAC_NODA',
                   NOM_CMP='DY',
                   VALE_CALC=18.6823138049,
                   
                   ),
                _F(NUME_ORDRE=1,
                   GROUP_NO='N31B',
                   REFERENCE='SOURCE_EXTERNE',
                   RESULTAT=ANA_A6,
                   NOM_CHAM='REAC_NODA',
                   NOM_CMP='DX',
                   VALE_CALC=63.2678853717,
                   VALE_REFE=61.950000000000003,
                   PRECISION=0.029999999999999999,),
                _F(NUME_ORDRE=1,
                   GROUP_NO='N31B',
                   RESULTAT=ANA_A6,
                   NOM_CHAM='REAC_NODA',
                   NOM_CMP='DX',
                   VALE_CALC=63.2678853717,
                   
                   ),
                _F(NUME_ORDRE=1,
                   GROUP_NO='N31B',
                   REFERENCE='SOURCE_EXTERNE',
                   RESULTAT=ANA_A6,
                   NOM_CHAM='REAC_NODA',
                   NOM_CMP='DY',
                   VALE_CALC=14.0690259552,
                   VALE_REFE=13.34,
                   PRECISION=0.059999999999999998,),
                _F(NUME_ORDRE=1,
                   GROUP_NO='N31B',
                   RESULTAT=ANA_A6,
                   NOM_CHAM='REAC_NODA',
                   NOM_CMP='DY',
                   VALE_CALC=14.0690259552,
                   
                   ),
                _F(NUME_ORDRE=1,
                   GROUP_NO='N31B',
                   REFERENCE='SOURCE_EXTERNE',
                   RESULTAT=ANA_A6,
                   NOM_CHAM='REAC_NODA',
                   NOM_CMP='DZ',
                   VALE_CALC=13.4681180374,
                   VALE_REFE=12.960000000000001,
                   PRECISION=0.040000000000000001,),
                _F(NUME_ORDRE=1,
                   GROUP_NO='N31B',
                   RESULTAT=ANA_A6,
                   NOM_CHAM='REAC_NODA',
                   NOM_CMP='DZ',
                   VALE_CALC=13.4681180374,
                   
                   ),
                _F(NUME_ORDRE=1,
                   GROUP_NO='N31B',
                   REFERENCE='SOURCE_EXTERNE',
                   RESULTAT=ANA_A6,
                   NOM_CHAM='REAC_NODA',
                   NOM_CMP='DRX',
                   VALE_CALC=820.560192486,
                   VALE_REFE=695.40999999999997,
                   PRECISION=0.19,),
                _F(NUME_ORDRE=1,
                   GROUP_NO='N31B',
                   RESULTAT=ANA_A6,
                   NOM_CHAM='REAC_NODA',
                   NOM_CMP='DRX',
                   VALE_CALC=820.560192486,
                   
                   ),
                _F(NUME_ORDRE=1,
                   GROUP_NO='N31B',
                   REFERENCE='SOURCE_EXTERNE',
                   RESULTAT=ANA_A6,
                   NOM_CHAM='REAC_NODA',
                   NOM_CMP='DRY',
                   VALE_CALC=516.777471999,
                   VALE_REFE=757.20000000000005,
                   PRECISION=0.32000000000000001,),
                _F(NUME_ORDRE=1,
                   GROUP_NO='N31B',
                   RESULTAT=ANA_A6,
                   NOM_CHAM='REAC_NODA',
                   NOM_CMP='DRY',
                   VALE_CALC=516.777471999,
                   
                   ),
                _F(NUME_ORDRE=1,
                   GROUP_NO='N31B',
                   REFERENCE='SOURCE_EXTERNE',
                   RESULTAT=ANA_A6,
                   NOM_CHAM='REAC_NODA',
                   NOM_CMP='DRZ',
                   VALE_CALC=2267.74414106,
                   VALE_REFE=2319.4899999999998,
                   PRECISION=0.029999999999999999,),
                _F(NUME_ORDRE=1,
                   GROUP_NO='N31B',
                   RESULTAT=ANA_A6,
                   NOM_CHAM='REAC_NODA',
                   NOM_CMP='DRZ',
                   VALE_CALC=2267.74414106,
                   
                   ),
                ),
          )

FIN()
