# MODIF  DATE 09/05/2011   AUTEUR VERRIER A.VERRIER 
# TITRE TEST INFORMATIQUE QZ ET SORENSEN NON SYMETRIQUES
# sdll123b.para = tps_job 60 mem_job 32Mo ncpus 1 liste_test R
#            CONFIGURATION MANAGEMENT OF EDF VERSION
# ======================================================================
# COPYRIGHT (C) 1991 - 2011  EDF R&D                  WWW.CODE-ASTER.ORG
# THIS PROGRAM IS FREE SOFTWARE; YOU CAN REDISTRIBUTE IT AND/OR MODIFY  
# IT UNDER THE TERMS OF THE GNU GENERAL PUBLIC LICENSE AS PUBLISHED BY  
# THE FREE SOFTWARE FOUNDATION; EITHER VERSION 2 OF THE LICENSE, OR     
# (AT YOUR OPTION) ANY LATER VERSION.                                                    
#                                                                       
# THIS PROGRAM IS DISTRIBUTED IN THE HOPE THAT IT WILL BE USEFUL, BUT   
# WITHOUT ANY WARRANTY; WITHOUT EVEN THE IMPLIED WARRANTY OF            
# MERCHANTABILITY OR FITNESS FOR A PARTICULAR PURPOSE. SEE THE GNU      
# GENERAL PUBLIC LICENSE FOR MORE DETAILS.                              
#                                                                       
# YOU SHOULD HAVE RECEIVED A COPY OF THE GNU GENERAL PUBLIC LICENSE     
# ALONG WITH THIS PROGRAM; IF NOT, WRITE TO EDF R&D CODE_ASTER,         
#    1 AVENUE DU GENERAL DE GAULLE, 92141 CLAMART CEDEX, FRANCE.        
# ======================================================================
# ======================================================================
# CAS TEST INFORMATIQUE DE VALIDATION DES SOLVEURS MODAUX SORENSEN ET QZ
# EN GENERALISE ET QUADRATIQUE NON SYMETRIQUES (EN STRUCTURE ET EN 
# VALEURS NUMERIQUES)
# ON TESTE LES 3 APPROCHES DE SORENSEN EN QUADRATIQUE
# PERIMETRE: MATRICES K, M (ET C EN QUAD) REELLES ET NON SYMETRIQUES
#
# CAS TEST DOUBLONS DU SDLL123A EXPLOITANT LE CARACTERE NON SYMETRIQUE
# DES MATRICES ISSUES DU CALCUL ELEMENTAIRE 'MECA_GYRO'
# SUR LES VALEURS PROPRES: ON COMPARE QZ ET SORENSEN A PYTHON/LAPACK
#
# DETAILS:
# CE CAS-TEST EST INSTRUMENTE POUR JOUER SUR:
#   - CONSTRUCTION DE PBS MODAUX SYM, NON SYM STRUCTUREL AVEC VALEURS
#     SYM ET AVEC VALEURS NON SYM.
#   - TECHNIQUE DE REDUCTION LINEAIRE POUR PASSAGE ASTER/PYTHON
#   - EN QUADRATIQUE, VARIANTES DE SORENSEN
# ======================================================================

import numpy as NP
import numpy.linalg as LA


def EXTR_MATR(matrrr,option) :
# fonction permettant de recuperer les matrices assemblees au format numpy
# attention a l'espace memoire

# construction des vecteurs jeveux
                nommatr=matrrr.nom
                lenm=len(nommatr)
                nommatr=nommatr+' '*(8-lenm+1)
                vectrav=nommatr+'          .REFA        '
                nom=aster.getvectjev(vectrav)
                nomnume=nom[1]
                typm=nom[8]
                lenm=len(nomnume)
                nomnume=nomnume[0:9]

                nvar=nommatr+'          .VALM'
                nadia=nomnume+'     .SMOS.SMDI        '
                nnuml=nomnume+'     .SMOS.SMHC        '
                nrtt=nomnume+'     .NUME.DELG        '
                nrtt2=nomnume+'     .NUME.DEEQ        '

                var=aster.getcolljev(nvar)
                adia=aster.getvectjev(nadia)
                numl=aster.getvectjev(nnuml)
                rtt=aster.getvectjev(nrtt)
                rtt2=aster.getvectjev(nrtt2)

                valr=var[1]
                if (option==1):
                  valr2=var[1]
                if (option==2):
                  valr2=var[2]

                vc=len(rtt)
                ddltot=0
                nnddl=[0]
                tryy=0

# calc nbre de ddl au total et vect contenant le nbre de ddl pr chaque noeud (ex : barre =3, poutre=6...)
                for jj in range(0,vc):
                        if (rtt2[2*jj+1]==1) and (tryy==1):
                                if (tryy==1):
                                        nnddl=nnddl+[0]
                                        tryy=0
                        if (rtt2[2*jj+1]>0) :
                                ddltot=ddltot+1
                                nnddl[len(nnddl)-1]=nnddl[len(nnddl)-1]+1
                                tryy=1
                nnddl=nnddl+[0]
                ddlag=(vc-ddltot)//2
                ddlphy=ddltot-ddlag
                indint=[None]*ddlphy

# contruction du vect contenant les indices des ddls non lagr et non nuls
                gg=0
                tt=0
                pp=0
                limm=nnddl[pp]
                vecc=[1]*limm
                ste=limm
                for ii in range(0,vc):
                        if (rtt2[2*ii+1]<0):
                                if (rtt[ii]==-1):
                                        varr=-1*rtt2[2*ii+1]-1
                                        vecc[varr]=0
                                ste=limm
                        if (rtt2[2*ii+1]>0) and (ste==limm):

                                for hh in range(0,limm):
                                        if (vecc[hh]==1):
                                                indint[gg]=ii+hh
                                                gg=gg+1
                                        vecc[hh]=1
                                ste=0                           
                                pp=pp+1
                                limm=nnddl[pp-1]
                                vecc=[1]*limm
                        if (rtt2[2*ii+1]>0) and (ste<limm):
                                ste=ste+1

# construction de la matrice complete ddl lag compris (cette etape peut etre fusionnee avec la suivante mais ca devient complique)
                lon=len(adia)
                valeu=NP.zeros([lon,lon])
                opi=0
                indc=0
                indl=0
                for ii in range(0,lon):
                        if (ii==0):
                                opi=adia[ii]
                        else:
                                opi=adia[ii]-adia[ii-1]
                        for jj in range(0, opi):
                                if (ii==0):
                                        indc=jj
                                        indd=numl[indc]-1
                                else:
                                        indc=adia[ii-1]+jj
                                        indd=numl[indc]-1
                                valeu[indd][ii]=valr[indc]
                                if (ii!=indd):
                                  valeu[ii][indd]=valr2[indc]
                matrig=valeu

# elimination des ddl de lagrange et des ddl nuls
                rig11=NP.zeros([ddlphy,ddlphy])
                for ii in range(0,ddlphy):
                        for jj in range(0,ddlphy):
                                rig11[ii][jj]=matrig[indint[ii]][indint[jj]]
                return rig11


DEBUT( CODE=_F(NOM='SDLL123B', NIV_PUB_WEB='INTERNET'),
       PAR_LOT='NON')
aster.matfpe(-1)

nddl=19*6-4-4

MAIL=LIRE_MAILLAGE()

MODELE=AFFE_MODELE(MAILLAGE=MAIL,
                   AFFE=(_F(GROUP_MA='ROTOR',
                           PHENOMENE='MECANIQUE',
                           MODELISATION='POU_D_E',),
                         _F(GROUP_MA=('DISQUES'),
                           PHENOMENE='MECANIQUE',
                           MODELISATION='DIS_TR',),
                         )
                       )

ACIER=DEFI_MATERIAU(ELAS=_F(E=2.06E11,
                            NU=0.0,
                            RHO=7800.0,),);



CHMAT=AFFE_MATERIAU(MAILLAGE=MAIL,
                    AFFE=(_F(GROUP_MA='ROTOR',
                            MATER=ACIER,),))

CARELEM=AFFE_CARA_ELEM(MODELE=MODELE,
                       POUTRE=(_F(GROUP_MA='ROTOR',
                                 SECTION='CERCLE',
                                 CARA='R',
                                 VALE=(.025),),),
                        DISCRET=(
                                   _F(GROUP_MA='DISQUES',
                                     CARA='M_TR_D_N',
                                     VALE=(0.03829,3.000E-6,1.8000E-6,1.8000E-6,0.,0.,0.,0.,0.,0.),),
                                   _F(GROUP_MA='DISQUES',
                                     CARA='K_TR_D_N',
                                     VALE=(0.,0.,0.,0.,0.,0.,), ),
                                   _F(GROUP_MA='DISQUES',
                                     CARA='A_TR_D_N',
                                     VALE=(0.,0.,0.,0.,0.,0.,), )
                        )
                        )
                                 
                                 

BLOQUAGE=AFFE_CHAR_MECA(MODELE=MODELE,
                               DDL_IMPO=(
                                 _F(GROUP_NO=('PALIER_A','PALIER_B'),
                                     DX=0, DY=0, DZ=0,
                                     DRX=0,
                                     ),
                          ))
                                    

MACRO_MATR_ASSE(MODELE=MODELE,
                CHAM_MATER=CHMAT,
                CARA_ELEM=CARELEM,
                CHARGE=BLOQUAGE,
                NUME_DDL=CO('NUMEDDL'),
                MATR_ASSE=(_F(MATRICE=CO('RIGIDITE'),
                              OPTION='RIGI_MECA',),
                           _F(MATRICE=CO('MASSE'),
                              OPTION='MASS_MECA',),
                           _F(MATRICE=CO('GYASS'),
                              OPTION='MECA_GYRO',),
                           _F(MATRICE=CO('AMOR'),
                              OPTION='AMOR_MECA',),),);



######################################                    
# TEST GENERALISE REEL SYM ET NON SYM
######################################
sym='oui'
sym='non'
if (sym=='oui') :
# TEST SORENSEN + QZ + PYTHON EN GENERALISE REEL SYM
  option=1
  MATK=RIGIDITE
  MATM=MASSE
else:
# TEST SORENSEN + QZ + PYTHON EN GENERALISE REEL NON SYM
  option=2
  MATK=COMB_MATR_ASSE(COMB_R=(_F(MATR_ASSE=GYASS,    COEF_R=100.,),
                              _F(MATR_ASSE=RIGIDITE, COEF_R=1.,),))

  MATM=COMB_MATR_ASSE(COMB_R=(_F(MATR_ASSE=GYASS,    COEF_R=10.,),
                              _F(MATR_ASSE=MASSE,    COEF_R=1.,),))


# CALCUL VIA SORENSEN                          
MG_SO=MODE_ITER_SIMULT( INFO=1,
                       MATR_A=MATK,
                       MATR_B=MATM,
                       METHODE='SORENSEN',
                       CALC_FREQ=_F(OPTION='CENTRE',FREQ=1000.,NMAX_FREQ=10),
                        )
# CALCUL VIA QZ
MG_QZ=MODE_ITER_SIMULT( INFO=1,
                       MATR_A=MATK,
                       MATR_B=MATM,
                       METHODE='QZ',
                       CALC_FREQ=_F(OPTION='CENTRE',FREQ=1000.,NMAX_FREQ=10),
                        )

# CALCUL VIA PYTHON
rig=EXTR_MATR(MATK,option)
mas=EXTR_MATR(MATM,option)
variante=2
# variante 1: K-1*M U = 1/lambda  * U
if (variante==1) :
  masI=LA.inv(rig)
  HPRIME=NP.dot(masI,mas)
  frequence=LA.eigvals(HPRIME)
  fr=list(frequence)
  i=0
  for vp in fr:
     i=i+1
     if (abs(vp)==0) :
       print i,'infinity'
     else       :
       vp1=(1/vp)
       if (sym=='oui') :
         vp1r=NP.sqrt(abs(vp1))/2/NP.pi
         print i,vp1r
       else :
         vp1r=NP.sqrt(abs(vp1.real))/2/NP.pi
         vp1i=0.5*vp1.imag/vp1.real
         print i,vp1r,vp1i

else :
# variante 2 : M-1*K U = lambda * U
  masI=LA.inv(mas)
  HPRIME=NP.dot(masI,rig)
  frequence=LA.eigvals(HPRIME)
  fr=list(frequence)
  i=0
  for vp in fr:
     i=i+1
     if (abs(vp)==0) :
       print i,'zero'
     else       :
       vp1=vp
       if (sym=='oui') :
         vp1r=sqrt(abs(vp1))/2/pi
         print i,vp1r
       else :
         vp1r=sqrt(abs(vp1.real))/2/pi
         vp1i=0.5*vp1.imag/vp1.real
         print i,vp1r,vp1i

TEST_RESU(RESU=(
# POUR SORENSEN
          _F( RESULTAT = MG_SO, PARA = 'FREQ',
                CRITERE = 'RELATIF', PRECISION = 1.E-6,
                NUME_ORDRE = 1,  VALE = 1.2414153990951E+02,REFERENCE='NON_REGRESSION',),
          _F( RESULTAT = MG_SO, PARA = 'AMOR_REDUIT',
                CRITERE = 'RELATIF', PRECISION = 1.E-6,
                NUME_ORDRE = 1,  VALE = 1.8933070326089E-02, VALE_ABS = 'OUI', REFERENCE='NON_REGRESSION',),
          _F( RESULTAT = MG_SO, PARA = 'FREQ',
                CRITERE = 'RELATIF', PRECISION = 1.E-6,
                NUME_ORDRE = 3,  VALE = 4.9260572017935E+02, REFERENCE='NON_REGRESSION',),
          _F( RESULTAT = MG_SO, PARA = 'AMOR_REDUIT',
                CRITERE = 'RELATIF', PRECISION = 1.E-6,
                NUME_ORDRE = 3,  VALE = 7.6259398235487E-02, VALE_ABS = 'OUI', REFERENCE='NON_REGRESSION',),
          _F( RESULTAT = MG_SO, PARA = 'FREQ',
                CRITERE = 'RELATIF', PRECISION = 1.E-6,
                NUME_ORDRE = 9,  VALE = 2.019974939820E+03, REFERENCE='NON_REGRESSION',),
          _F( RESULTAT = MG_SO, PARA = 'AMOR_REDUIT',
                CRITERE = 'ABSOLU', PRECISION = 1.E-4,
                NUME_ORDRE = 9,  VALE = 0.0E+00, VALE_ABS = 'OUI', REFERENCE='NON_REGRESSION',),
# POUR QZ
          _F( RESULTAT = MG_QZ, PARA = 'FREQ',
                CRITERE = 'RELATIF', PRECISION = 1.E-6,
                NUME_ORDRE = 1,  VALE = 1.2414153991024E+02, REFERENCE='NON_REGRESSION',),
          _F( RESULTAT = MG_QZ, PARA = 'AMOR_REDUIT',
                CRITERE = 'RELATIF', PRECISION = 1.E-6,
                NUME_ORDRE = 1,  VALE = 1.8933070322205E-02, VALE_ABS = 'OUI', REFERENCE='NON_REGRESSION',),
          _F( RESULTAT = MG_QZ, PARA = 'FREQ',
                CRITERE = 'RELATIF', PRECISION = 1.E-6,
                NUME_ORDRE = 3,  VALE = 4.9260572017924E+02, REFERENCE='NON_REGRESSION',),
          _F( RESULTAT = MG_QZ, PARA = 'AMOR_REDUIT',
                CRITERE = 'RELATIF', PRECISION = 1.E-6,
                NUME_ORDRE = 3,  VALE = 7.6259398235344E-02, VALE_ABS = 'OUI', REFERENCE='NON_REGRESSION',),
          _F( RESULTAT = MG_QZ, PARA = 'FREQ',
                CRITERE = 'RELATIF', PRECISION = 1.E-6,
                NUME_ORDRE = 9,  VALE = 2.019974939820E+03, REFERENCE='NON_REGRESSION',),
          _F( RESULTAT = MG_QZ, PARA = 'AMOR_REDUIT',
                CRITERE = 'ABSOLU', PRECISION = 1.E-4,
                NUME_ORDRE = 9,  VALE = 0.0E+00, VALE_ABS = 'OUI', REFERENCE='NON_REGRESSION',),
            ),)
######################################                    
# TEST QUADRATIQUE REEL SYM ET NON SYM
######################################
sym='oui'
sym='non'
if (sym=='oui') :
# TEST SORENSEN + QZ + PYTHON EN QUADRATIQUE REEL SYM
  option=1
  MATK1=RIGIDITE
  MATM1=MASSE
  MATC1=GYASS
else:
# TEST SORENSEN + QZ + PYTHON EN QUADRATIQUE REEL NON SYM
  option=2
  MATK1=COMB_MATR_ASSE(COMB_R=(_F(MATR_ASSE=GYASS,    COEF_R=100.,),
                              _F(MATR_ASSE=RIGIDITE, COEF_R=1.,),))

  MATM1=COMB_MATR_ASSE(COMB_R=(_F(MATR_ASSE=GYASS,    COEF_R=10.,),
                              _F(MATR_ASSE=MASSE,    COEF_R=1.,),))
  MATC1=GYASS

# CALCUL VIA SORENSEN (APPROCHE COMPLEXE, REELLE ET IMAGINAIRE)
MQ_SO=MODE_ITER_SIMULT( INFO=1,
                       MATR_A=MATK1,
                       MATR_B=MATM1,
                       MATR_C=MATC1,
                       METHODE='SORENSEN',
                       CALC_FREQ=_F(OPTION='CENTRE',FREQ=1000.,NMAX_FREQ=10,
                       APPROCHE='COMPLEXE',),
                        )
MQ_SOR=MODE_ITER_SIMULT( INFO=1,
                       MATR_A=MATK1,
                       MATR_B=MATM1,
                       MATR_C=MATC1,
                       METHODE='SORENSEN',
                       CALC_FREQ=_F(OPTION='CENTRE',FREQ=1000.,NMAX_FREQ=10,
                       APPROCHE='REEL',),
                       VERI_MODE=_F(SEUIL=1.E-04),
                        )
MQ_SOI=MODE_ITER_SIMULT( INFO=1,
                       MATR_A=MATK1,
                       MATR_B=MATM1,
                       MATR_C=MATC1,
                       METHODE='SORENSEN',
                       CALC_FREQ=_F(OPTION='CENTRE',FREQ=1000.,NMAX_FREQ=10,
                       APPROCHE='IMAG',),
                        )                                                     
# CALCUL VIA QZ
MQ_QZ=MODE_ITER_SIMULT( INFO=1,
                       MATR_A=MATK1,
                       MATR_B=MATM1,
                       MATR_C=MATC1,
                       METHODE='QZ',
                       CALC_FREQ=_F(OPTION='CENTRE',FREQ=1000.,NMAX_FREQ=10,),
                       VERI_MODE=_F(SEUIL=1.E-04),
                        )

# CALCUL VIA PYTHON
rig=EXTR_MATR(MATK1,option)
mas=EXTR_MATR(MATM1,option)
amor=EXTR_MATR(MATC1,option)
variante=1
if (variante==1) :
  masI=LA.inv(mas)
  HPRIME=NP.zeros((nddl*2,nddl*2))
  HPRIME[0:nddl,0:nddl]=NP.dot(amor,masI)
  HPRIME[0:nddl,nddl:2*nddl]=NP.dot(rig,masI)
  HPRIME[nddl:2*nddl,0:nddl]=-NP.identity(nddl)
  frequence=LA.eigvals(HPRIME)
  fr=list(frequence)
  i=0
  for vp in fr:
     i=i+1
     if (abs(vp)==0) :
       print i,'zero'
     else       :       
       vp1r=vp.real
       vp1i=vp.imag/2/pi
       print i,vp1i,-vp1r/abs(vp)

aster.matfpe(+1)

TEST_RESU(RESU=(
# POUR SORENSEN APPROCHE COMPLEXE
          _F( RESULTAT = MQ_SO, PARA = 'FREQ',
                CRITERE = 'RELATIF', PRECISION = 1.E-6,
                NUME_ORDRE = 1,  VALE = 1.2416347900468E+02, REFERENCE='NON_REGRESSION',),
          _F( RESULTAT = MQ_SO, PARA = 'AMOR_REDUIT',
                CRITERE = 'RELATIF', PRECISION = 1.E-6,
                NUME_ORDRE = 1,  VALE = 1.8922853711594E-02, VALE_ABS = 'OUI', REFERENCE='NON_REGRESSION',),
          _F( RESULTAT = MQ_SO, PARA = 'FREQ',
                CRITERE = 'RELATIF', PRECISION = 1.E-6,
                NUME_ORDRE = 3,  VALE = 4.9402662017179E+02, REFERENCE='NON_REGRESSION',),
          _F( RESULTAT = MQ_SO, PARA = 'AMOR_REDUIT',
                CRITERE = 'RELATIF', PRECISION = 1.E-6,
                NUME_ORDRE = 3,  VALE = 7.5603808282835E-02, VALE_ABS = 'OUI', REFERENCE='NON_REGRESSION',),
# POUR SORENSEN APPROCHE REELLE
          _F( RESULTAT = MQ_SOR, PARA = 'FREQ',
                CRITERE = 'RELATIF', PRECISION = 1.E-6,
                NUME_ORDRE = 1,  VALE = 4.9402662040152E+02, REFERENCE='NON_REGRESSION',),
          _F( RESULTAT = MQ_SOR, PARA = 'AMOR_REDUIT',
                CRITERE = 'RELATIF', PRECISION = 1.E-6,
                NUME_ORDRE = 1,  VALE = 7.5603807827126E-02, VALE_ABS = 'OUI', REFERENCE='NON_REGRESSION',),
          _F( RESULTAT = MQ_SOR, PARA = 'FREQ',
                CRITERE = 'RELATIF', PRECISION = 1.E-6,
                NUME_ORDRE = 3,  VALE = 1.0732061056200E+03, REFERENCE='NON_REGRESSION',),
          _F( RESULTAT = MQ_SOR, PARA = 'AMOR_REDUIT',
                CRITERE = 'RELATIF', PRECISION = 1.E-6,
                NUME_ORDRE = 3,  VALE = 1.6349405212033E-01, VALE_ABS = 'OUI', REFERENCE='NON_REGRESSION',),
# POUR SORENSEN APPROCHE IMAGINAIRE
          _F( RESULTAT = MQ_SOI, PARA = 'FREQ',
                CRITERE = 'RELATIF', PRECISION = 1.E-6,
                NUME_ORDRE = 1,  VALE = 4.9402662017181E+02, REFERENCE='NON_REGRESSION',),
          _F( RESULTAT = MQ_SOI, PARA = 'AMOR_REDUIT',
                CRITERE = 'RELATIF', PRECISION = 1.E-6,
                NUME_ORDRE = 1,  VALE = 7.5603808282853E-02, VALE_ABS = 'OUI', REFERENCE='NON_REGRESSION',),
          _F( RESULTAT = MQ_SOI, PARA = 'FREQ',
                CRITERE = 'RELATIF', PRECISION = 1.E-6,
                NUME_ORDRE = 3,  VALE = 1.0732061057100E+03, REFERENCE='NON_REGRESSION',),
          _F( RESULTAT = MQ_SOI, PARA = 'AMOR_REDUIT',
                CRITERE = 'RELATIF', PRECISION = 1.E-6,
                NUME_ORDRE = 3,  VALE = 1.6349405220253E-01, VALE_ABS = 'OUI', REFERENCE='NON_REGRESSION',),
# POUR QZ
          _F( RESULTAT = MQ_QZ, PARA = 'FREQ',
                CRITERE = 'RELATIF', PRECISION = 1.E-6,
                NUME_ORDRE = 1,  VALE = 1.2416347940866E+02, REFERENCE='NON_REGRESSION',),
          _F( RESULTAT = MQ_QZ, PARA = 'AMOR_REDUIT',
                CRITERE = 'RELATIF', PRECISION = 1.E-6,
                NUME_ORDRE = 1,  VALE = 1.8922850338749E-02, VALE_ABS = 'OUI', REFERENCE='NON_REGRESSION',),
          _F( RESULTAT = MQ_QZ, PARA = 'FREQ',
                CRITERE = 'RELATIF', PRECISION = 1.E-6,
                NUME_ORDRE = 3,  VALE = 4.9402661647037E+02, REFERENCE='NON_REGRESSION',),
          _F( RESULTAT = MQ_QZ, PARA = 'AMOR_REDUIT',
                CRITERE = 'RELATIF', PRECISION = 1.E-6,
                NUME_ORDRE = 3,  VALE = 7.5603827111568E-02, VALE_ABS = 'OUI', REFERENCE='NON_REGRESSION',),
          _F( RESULTAT = MQ_QZ, PARA = 'FREQ',
                CRITERE = 'RELATIF', PRECISION = 1.E-6,
                NUME_ORDRE = 10,  VALE = 2.4598045634288E+03, REFERENCE='NON_REGRESSION',),
          _F( RESULTAT = MQ_QZ, PARA = 'AMOR_REDUIT',
                CRITERE = 'RELATIF', PRECISION = 1.E-6,
                NUME_ORDRE = 10,  VALE = 3.7000877864494E-01, VALE_ABS = 'OUI', REFERENCE='NON_REGRESSION',),
                ),)
FIN()

