# TITRE : Table de Neubert
# ======================================================================
# COPYRIGHT (C) 1991 - 2012  EDF R&D                  WWW.CODE-ASTER.ORG
# THIS PROGRAM IS FREE SOFTWARE; YOU CAN REDISTRIBUTE IT AND/OR MODIFY
# IT UNDER THE TERMS OF THE GNU GENERAL PUBLIC LICENSE AS PUBLISHED BY
# THE FREE SOFTWARE FOUNDATION; EITHER VERSION 2 OF THE LICENSE, OR
# (AT YOUR OPTION) ANY LATER VERSION.
#
# THIS PROGRAM IS DISTRIBUTED IN THE HOPE THAT IT WILL BE USEFUL, BUT
# WITHOUT ANY WARRANTY; WITHOUT EVEN THE IMPLIED WARRANTY OF
# MERCHANTABILITY OR FITNESS FOR A PARTICULAR PURPOSE. SEE THE GNU
# GENERAL PUBLIC LICENSE FOR MORE DETAILS.
#
# YOU SHOULD HAVE RECEIVED A COPY OF THE GNU GENERAL PUBLIC LICENSE
# ALONG WITH THIS PROGRAM; IF NOT, WRITE TO EDF R&D CODE_ASTER,
#    1 AVENUE DU GENERAL DE GAULLE, 92141 CLAMART CEDEX, FRANCE.
# ======================================================================
#         ----------------
# MAILLAGE :
#   28 noeuds
#   52 mailles : (28 POU_D_T, 24 DIS_T)

DEBUT(CODE=_F(NOM='SDLL108A', NIV_PUB_WEB='INTERNET'), DEBUG=_F(SDVERI='OUI'))

MA=LIRE_MAILLAGE(FORMAT='MED', )

MA=DEFI_GROUP( reuse=MA,   MAILLAGE=MA,
                     CREA_GROUP_MA=_F(  NOM = 'TOUT', TOUT = 'OUI'))

MAT=DEFI_MATERIAU(  ELAS=_F(  E = 1.92276E+11, NU = 0.3, RHO = 0.) )

CHMAT=AFFE_MATERIAU(  MAILLAGE=MA,
                         AFFE=_F(  GROUP_MA = 'POU_D_T',   MATER = MAT)  )

MOD=AFFE_MODELE(  MAILLAGE=MA,AFFE=(
                   _F(  GROUP_MA = 'POU_D_T',  PHENOMENE = 'MECANIQUE',
                          MODELISATION = 'POU_D_T'),
                        _F(  GROUP_MA = 'MAS_COIN',  PHENOMENE = 'MECANIQUE',
                          MODELISATION = 'DIS_T'),
                        _F(  GROUP_MA = 'MAS_INTE',  PHENOMENE = 'MECANIQUE',
                          MODELISATION = 'DIS_T'))                 )

CARLEM=AFFE_CARA_ELEM(   MODELE=MOD,
                 POUTRE=_F(  GROUP_MA = 'POU_D_T',
                          SECTION = 'GENERALE',
                          CARA = ('A',  'IZ', 'IY', 'AY', 'AZ', 'JX',
                                 'EZ', 'EY', 'RY', 'RZ', 'RT', ),
                          VALE = ( 7.0370E-04,  2.7720E-07,  2.7720E-07,
                                  2.0,  2.0,  5.5450E-07, 0.0,  0.0,
                                  0.030,  0.030,  0.030,        )),DISCRET=(
                 _F(  GROUP_MA = 'MAS_COIN',  CARA = 'M_T_D_N',
                           VALE = 4.444),
                 _F(  GROUP_MA = 'MAS_COIN',  CARA = 'K_T_D_N',
                           VALE = (0.,0.,0.)),
                         _F(  GROUP_MA = 'MAS_INTE',  CARA = 'M_T_D_N',
                           VALE = 0.783))
                         )

COND_LIM=AFFE_CHAR_MECA(  MODELE=MOD,
                   DDL_IMPO=_F(  GROUP_NO = 'ENCASTRE',
                              DX = 0.,   DY = 0.,   DZ = 0.,
                              DRX = 0.,  DRY = 0.,  DRZ = 0.)       )

TABL_MAS=POST_ELEM(  MODELE=MOD,
                         CHAM_MATER=CHMAT,   CARA_ELEM=CARLEM,
                         MASS_INER=(_F(  TOUT = 'OUI',),
                                 _F( GROUP_MA = ( 'POU_D_T',  'MAS_COIN',
                                                 'MAS_INTE', ))) )

RIGI_ELE=CALC_MATR_ELEM(  MODELE=MOD,   OPTION='RIGI_MECA',
                              CHAM_MATER=CHMAT,   CARA_ELEM=CARLEM,
                              CHARGE=COND_LIM                        )

MASS_ELE=CALC_MATR_ELEM(  MODELE=MOD,   OPTION='MASS_MECA',
                              CHAM_MATER=CHMAT,   CARA_ELEM=CARLEM,
                              CHARGE=COND_LIM                        )

NUME1=NUME_DDL(  MATR_RIGI=RIGI_ELE)

RIGIDITE=ASSE_MATRICE(  MATR_ELEM=RIGI_ELE,  NUME_DDL=NUME1      )

MASSE=ASSE_MATRICE(  MATR_ELEM=MASS_ELE,  NUME_DDL=NUME1      )

MODE_STA=MODE_STATIQUE(  MATR_RIGI=RIGIDITE,   MATR_MASS=MASSE,
                             PSEUDO_MODE=_F(  AXE = ( 'X',  'Y',  'Z', ))  )

MODE_STA=CALC_CHAMP(reuse=MODE_STA,RESULTAT=MODE_STA,CONTRAINTE=('SIEF_ELGA','EFGE_ELNO'))


MODE_STA=CALC_CHAMP(reuse=MODE_STA,  RESULTAT=MODE_STA,
                   FORCE='REAC_NODA',)

MODE_MEC=MODE_ITER_INV(  MATR_RIGI=RIGIDITE,   MATR_MASS=MASSE,
                  CALC_FREQ=_F(  OPTION = 'PROCHE',
                              FREQ = ( 110.91,   115.53,   136.01,
                                      213.71,   417.76,   435.23,
                                      464.56,   557.86,   822.59,
                                      847.91,   979.29,   992.80,
                                     1022.58,  1041.03,  1057.81,
                                     1089.93,  1093.98,  1108.82, )) )


IMPR_RESU(RESU=_F(RESULTAT=MODE_MEC))

MODE_MEC=NORM_MODE(reuse=MODE_MEC,   MODE=MODE_MEC,   NORME='MASS_GENE',)

MODE_MEC=CALC_CHAMP(reuse=MODE_MEC,RESULTAT=MODE_MEC,CONTRAINTE=('SIEF_ELGA','EFGE_ELNO'))


MODE_MEC=CALC_CHAMP(reuse=MODE_MEC,  RESULTAT=MODE_MEC,
                   FORCE='REAC_NODA',)

ACCE_XZ=DEFI_FONCTION(  NOM_PARA='FREQ',    INTERPOL='LOG',
                             PROL_DROITE='CONSTANT',
                             PROL_GAUCHE='CONSTANT',
                            VALE=( 100., 17.3,   110., 16.3,   120., 15.3,
                                   130., 14.3,   300., 10.2,   )    )

ACCE_Y=DEFI_FONCTION(  NOM_PARA='FREQ',    INTERPOL='LOG',
                             PROL_DROITE='CONSTANT',
                             PROL_GAUCHE='CONSTANT',
                            VALE=( 100., 11.5,   110., 10.9,   120., 10.2,
                                   130.,  9.6,   300.,  6.66,   )    )

SPECT_XZ=DEFI_NAPPE(  NOM_PARA='AMOR',
                            INTERPOL=( 'LIN', 'LOG', ),
                          PARA=(      0.015,    0.02,    0.025,   ),
                          FONCTION=( ACCE_XZ,  ACCE_XZ,  ACCE_XZ, )  )

SPECT_Y=DEFI_NAPPE(  NOM_PARA='AMOR',
                            INTERPOL=( 'LIN', 'LOG', ),
                          PARA=(      0.015,    0.02,    0.025,   ),
                          FONCTION=( ACCE_Y,   ACCE_Y,   ACCE_Y,  )  )

SISM_SPE=COMB_SISM_MODAL(  MODE_MECA=MODE_MEC,
                           AMOR_REDUIT=0.02,
                           MASS_INER=TABL_MAS,
                           CORR_FREQ='NON',
                           MODE_CORR=MODE_STA,
                           MONO_APPUI = 'OUI',
                           EXCIT=_F(TRI_SPEC = 'OUI',
                                    SPEC_OSCI = ( SPECT_XZ,  SPECT_Y,
                                                  SPECT_XZ, ),
                                    ECHELLE = ( 9.81, 9.81, 9.81, )),
                           COMB_MODE=_F(  TYPE = 'SRSS'),
                           COMB_DIRECTION=_F(  TYPE = 'QUAD'),
                           OPTION=( 'DEPL',
                                     'REAC_NODA',  'EFGE_ELNO',)
                             )
#
# FREQUENCES: LES VALEURS DE REFERENCE ONT ETE OBTENUES AVEC LE
#             CODE HERCULE
#
TEST_RESU(RESU=(_F(NUME_ORDRE=1,
                   PARA='FREQ',
                   REFERENCE='SOURCE_EXTERNE',
                   RESULTAT=MODE_MEC,
                   VALE_CALC=110.912514282,
                   VALE_REFE=110.857,),
                _F(NUME_ORDRE=2,
                   PARA='FREQ',
                   REFERENCE='SOURCE_EXTERNE',
                   RESULTAT=MODE_MEC,
                   VALE_CALC=115.535625193,
                   VALE_REFE=115.471,),
                _F(NUME_ORDRE=3,
                   PARA='FREQ',
                   REFERENCE='SOURCE_EXTERNE',
                   RESULTAT=MODE_MEC,
                   VALE_CALC=136.009751432,
                   VALE_REFE=135.93600000000001,),
                _F(NUME_ORDRE=4,
                   PARA='FREQ',
                   REFERENCE='SOURCE_EXTERNE',
                   RESULTAT=MODE_MEC,
                   VALE_CALC=213.705662008,
                   VALE_REFE=213.541,),
                _F(NUME_ORDRE=5,
                   PARA='FREQ',
                   REFERENCE='SOURCE_EXTERNE',
                   RESULTAT=MODE_MEC,
                   VALE_CALC=417.739175103,
                   VALE_REFE=417.33199999999999,
                   PRECISION=0.02,),
                _F(NUME_ORDRE=6,
                   PARA='FREQ',
                   REFERENCE='SOURCE_EXTERNE',
                   RESULTAT=MODE_MEC,
                   VALE_CALC=435.203952802,
                   VALE_REFE=434.81299999999999,),
                _F(NUME_ORDRE=7,
                   PARA='FREQ',
                   REFERENCE='SOURCE_EXTERNE',
                   RESULTAT=MODE_MEC,
                   VALE_CALC=464.538562298,
                   VALE_REFE=464.09699999999998,),
                _F(NUME_ORDRE=8,
                   PARA='FREQ',
                   REFERENCE='SOURCE_EXTERNE',
                   RESULTAT=MODE_MEC,
                   VALE_CALC=557.829445305,
                   VALE_REFE=557.26199999999994,
                   PRECISION=0.02,),
                _F(NUME_ORDRE=9,
                   PARA='FREQ',
                   REFERENCE='SOURCE_EXTERNE',
                   RESULTAT=MODE_MEC,
                   VALE_CALC=822.547657110,
                   VALE_REFE=821.74599999999998,
                   PRECISION=0.02,),
                _F(NUME_ORDRE=10,
                   PARA='FREQ',
                   REFERENCE='SOURCE_EXTERNE',
                   RESULTAT=MODE_MEC,
                   VALE_CALC=847.858725558,
                   VALE_REFE=847.07100000000003,),
                _F(NUME_ORDRE=11,
                   PARA='FREQ',
                   REFERENCE='SOURCE_EXTERNE',
                   RESULTAT=MODE_MEC,
                   VALE_CALC=979.234783905,
                   VALE_REFE=978.17399999999998,
                   PRECISION=0.02,),
                _F(NUME_ORDRE=12,
                   PARA='FREQ',
                   REFERENCE='SOURCE_EXTERNE',
                   RESULTAT=MODE_MEC,
                   VALE_CALC=992.743095075,
                   VALE_REFE=991.84199999999998,),
                _F(NUME_ORDRE=13,
                   PARA='FREQ',
                   REFERENCE='SOURCE_EXTERNE',
                   RESULTAT=MODE_MEC,
                   VALE_CALC= 1.02252549E+03,
                   VALE_REFE=1021.669,),
                _F(NUME_ORDRE=14,
                   PARA='FREQ',
                   REFERENCE='SOURCE_EXTERNE',
                   RESULTAT=MODE_MEC,
                   VALE_CALC= 1.04096958E+03,
                   VALE_REFE=1040.24,),
                _F(NUME_ORDRE=15,
                   PARA='FREQ',
                   REFERENCE='SOURCE_EXTERNE',
                   RESULTAT=MODE_MEC,
                   VALE_CALC= 1.05775009E+03,
                   VALE_REFE=1056.9480000000001,),
                _F(NUME_ORDRE=16,
                   PARA='FREQ',
                   REFERENCE='SOURCE_EXTERNE',
                   RESULTAT=MODE_MEC,
                   VALE_CALC= 1.08987168E+03,
                   VALE_REFE=1088.8610000000001,),
                _F(NUME_ORDRE=17,
                   PARA='FREQ',
                   REFERENCE='SOURCE_EXTERNE',
                   RESULTAT=MODE_MEC,
                   VALE_CALC= 1.09391440E+03,
                   VALE_REFE=1093.1569999999999,),
                _F(NUME_ORDRE=18,
                   PARA='FREQ',
                   REFERENCE='SOURCE_EXTERNE',
                   RESULTAT=MODE_MEC,
                   VALE_CALC= 1.10875556E+03,
                   VALE_REFE=1107.8699999999999,),
                ),
          )

#

TEST_RESU(RESU=(_F(REFERENCE='SOURCE_EXTERNE',
                   RESULTAT=SISM_SPE,
                   NOM_CHAM='DEPL',
                   NOEUD='N17',
                   NOM_CMP='DX',
                   VALE_CALC= 3.41986017E-04,
                   VALE_REFE=3.4256E-4,
                   NOEUD_CMP=('COMBI', 'QUAD'),
                   PRECISION=0.02,),
                _F(REFERENCE='SOURCE_EXTERNE',
                   RESULTAT=SISM_SPE,
                   NOM_CHAM='DEPL',
                   NOEUD='N17',
                   NOM_CMP='DY',
                   VALE_CALC= 4.39289663E-06,
                   VALE_REFE=4.3561999999999999E-06,
                   NOEUD_CMP=('COMBI', 'QUAD'),
                   PRECISION=0.02,),
                _F(REFERENCE='SOURCE_EXTERNE',
                   RESULTAT=SISM_SPE,
                   NOM_CHAM='DEPL',
                   NOEUD='N17',
                   NOM_CMP='DZ',
                   VALE_CALC= 3.02748562E-04,
                   VALE_REFE=3.0320999999999999E-4,
                   NOEUD_CMP=('COMBI', 'QUAD'),
                   PRECISION=0.02,),
                _F(REFERENCE='SOURCE_EXTERNE',
                   RESULTAT=SISM_SPE,
                   NOM_CHAM='DEPL',
                   NOEUD='N17',
                   NOM_CMP='DRX',
                   VALE_CALC= 3.69872051E-04,
                   VALE_REFE=3.7031E-4,
                   NOEUD_CMP=('COMBI', 'QUAD'),
                   PRECISION=0.02,),
                _F(REFERENCE='SOURCE_EXTERNE',
                   RESULTAT=SISM_SPE,
                   NOM_CHAM='DEPL',
                   NOEUD='N17',
                   NOM_CMP='DRY',
                   VALE_CALC= 4.76261161E-05,
                   VALE_REFE=4.7664999999999998E-05,
                   NOEUD_CMP=('COMBI', 'QUAD'),
                   PRECISION=0.02,),
                _F(REFERENCE='SOURCE_EXTERNE',
                   RESULTAT=SISM_SPE,
                   NOM_CHAM='DEPL',
                   NOEUD='N17',
                   NOM_CMP='DRZ',
                   VALE_CALC= 5.10566916E-04,
                   VALE_REFE=5.1104000000000004E-4,
                   NOEUD_CMP=('COMBI', 'QUAD'),
                   PRECISION=0.02,),
                ),
          )

TEST_RESU(RESU=(_F(REFERENCE='SOURCE_EXTERNE',
                   RESULTAT=SISM_SPE,
                   NOM_CHAM='REAC_NODA',
                   NOEUD='N25',
                   NOM_CMP='DX',
                   VALE_CALC= 1.25359631E+03,
                   VALE_REFE=1253.5999999999999,
                   NOEUD_CMP=('COMBI', 'QUAD'),
                   PRECISION=0.02,),
                _F(REFERENCE='SOURCE_EXTERNE',
                   RESULTAT=SISM_SPE,
                   NOM_CHAM='REAC_NODA',
                   NOEUD='N25',
                   NOM_CMP='DY',
                   VALE_CALC= 1.26345596E+03,
                   VALE_REFE=1247.3,
                   NOEUD_CMP=('COMBI', 'QUAD'),
                   PRECISION=0.02,),
                _F(REFERENCE='SOURCE_EXTERNE',
                   RESULTAT=SISM_SPE,
                   NOM_CHAM='REAC_NODA',
                   NOEUD='N25',
                   NOM_CMP='DZ',
                   VALE_CALC= 1.21995541E+03,
                   VALE_REFE=1219.5999999999999,
                   NOEUD_CMP=('COMBI', 'QUAD'),
                   PRECISION=0.02,),
                _F(REFERENCE='SOURCE_EXTERNE',
                   RESULTAT=SISM_SPE,
                   NOM_CHAM='REAC_NODA',
                   NOEUD='N25',
                   NOM_CMP='DRX',
                   VALE_CALC=324.522649406,
                   VALE_REFE=324.74000000000001,
                   NOEUD_CMP=('COMBI', 'QUAD'),
                   PRECISION=0.02,),
                _F(REFERENCE='SOURCE_EXTERNE',
                   RESULTAT=SISM_SPE,
                   NOM_CHAM='REAC_NODA',
                   NOEUD='N25',
                   NOM_CMP='DRY',
                   VALE_CALC=4.128273383,
                   VALE_REFE=4.1310000000000002,
                   NOEUD_CMP=('COMBI', 'QUAD'),
                   PRECISION=0.02,),
                _F(REFERENCE='SOURCE_EXTERNE',
                   RESULTAT=SISM_SPE,
                   NOM_CHAM='REAC_NODA',
                   NOEUD='N25',
                   NOM_CMP='DRZ',
                   VALE_CALC=348.226153021,
                   VALE_REFE=348.45999999999998,
                   NOEUD_CMP=('COMBI', 'QUAD'),
                   PRECISION=0.02,),
                ),
          )

TEST_RESU(RESU=(_F(REFERENCE='SOURCE_EXTERNE',
                   RESULTAT=SISM_SPE,
                   NOM_CHAM='EFGE_ELNO',
                   NOEUD='N17',
                   NOM_CMP='N',
                   VALE_CALC= 1.24946965E+03,
                   VALE_REFE=1243.0999999999999,
                   NOEUD_CMP=('COMBI', 'QUAD'),
                   PRECISION=0.02,
                   MAILLE='E3',),
                _F(REFERENCE='SOURCE_EXTERNE',
                   RESULTAT=SISM_SPE,
                   NOM_CHAM='EFGE_ELNO',
                   NOEUD='N17',
                   NOM_CMP='VY',
                   VALE_CALC= 1.13119632E+03,
                   VALE_REFE=1131.2,
                   NOEUD_CMP=('COMBI', 'QUAD'),
                   PRECISION=0.02,
                   MAILLE='E3',),
                _F(REFERENCE='SOURCE_EXTERNE',
                   RESULTAT=SISM_SPE,
                   NOM_CHAM='EFGE_ELNO',
                   NOEUD='N17',
                   NOM_CMP='VZ',
                   VALE_CALC= 1.09812582E+03,
                   VALE_REFE=1098.2,
                   NOEUD_CMP=('COMBI', 'QUAD'),
                   PRECISION=0.02,
                   MAILLE='E3',),
                _F(REFERENCE='SOURCE_EXTERNE',
                   RESULTAT=SISM_SPE,
                   NOM_CHAM='EFGE_ELNO',
                   NOEUD='N17',
                   NOM_CMP='MT',
                   VALE_CALC=4.128273383,
                   VALE_REFE=4.1300999999999997,
                   NOEUD_CMP=('COMBI', 'QUAD'),
                   PRECISION=0.02,
                   MAILLE='E3',),
                _F(REFERENCE='SOURCE_EXTERNE',
                   RESULTAT=SISM_SPE,
                   NOM_CHAM='EFGE_ELNO',
                   NOEUD='N17',
                   NOM_CMP='MFY',
                   VALE_CALC=228.201313567,
                   VALE_REFE=228.33000000000001,
                   NOEUD_CMP=('COMBI', 'QUAD'),
                   PRECISION=0.02,
                   MAILLE='E3',),
                _F(REFERENCE='SOURCE_EXTERNE',
                   RESULTAT=SISM_SPE,
                   NOM_CHAM='EFGE_ELNO',
                   NOEUD='N17',
                   NOM_CMP='MFZ',
                   VALE_CALC=220.564336387,
                   VALE_REFE=220.68000000000001,
                   NOEUD_CMP=('COMBI', 'QUAD'),
                   PRECISION=0.02,
                   MAILLE='E3',),
                _F(REFERENCE='SOURCE_EXTERNE',
                   RESULTAT=SISM_SPE,
                   NOM_CHAM='EFGE_ELNO',
                   NOEUD='N17',
                   NOM_CMP='N',
                   VALE_CALC=132.051222403,
                   VALE_REFE=131.75,
                   NOEUD_CMP=('COMBI', 'QUAD'),
                   PRECISION=0.02,
                   MAILLE='E4',),
                _F(REFERENCE='SOURCE_EXTERNE',
                   RESULTAT=SISM_SPE,
                   NOM_CHAM='EFGE_ELNO',
                   NOEUD='N17',
                   NOM_CMP='VY',
                   VALE_CALC= 1.04225806E+03,
                   VALE_REFE=1041.9000000000001,
                   NOEUD_CMP=('COMBI', 'QUAD'),
                   PRECISION=0.02,
                   MAILLE='E4',),
                _F(REFERENCE='SOURCE_EXTERNE',
                   RESULTAT=SISM_SPE,
                   NOM_CHAM='EFGE_ELNO',
                   NOEUD='N17',
                   NOM_CMP='VZ',
                   VALE_CALC=189.380230274,
                   VALE_REFE=188.13,
                   NOEUD_CMP=('COMBI', 'QUAD'),
                   PRECISION=0.02,
                   MAILLE='E4',),
                _F(REFERENCE='SOURCE_EXTERNE',
                   RESULTAT=SISM_SPE,
                   NOM_CHAM='EFGE_ELNO',
                   NOEUD='N17',
                   NOM_CMP='MT',
                   VALE_CALC=0.185704342,
                   VALE_REFE=0.1641,
                   NOEUD_CMP=('COMBI', 'QUAD'),
                   PRECISION=0.14000000000000001,
                   MAILLE='E4',),
                _F(REFERENCE='SOURCE_EXTERNE',
                   RESULTAT=SISM_SPE,
                   NOM_CHAM='EFGE_ELNO',
                   NOEUD='N17',
                   NOM_CMP='MFY',
                   VALE_CALC=29.187176930,
                   VALE_REFE=29.164999999999999,
                   NOEUD_CMP=('COMBI', 'QUAD'),
                   PRECISION=0.02,
                   MAILLE='E4',),
                _F(REFERENCE='SOURCE_EXTERNE',
                   RESULTAT=SISM_SPE,
                   NOM_CHAM='EFGE_ELNO',
                   NOEUD='N17',
                   NOM_CMP='MFZ',
                   VALE_CALC=228.200702919,
                   VALE_REFE=228.33000000000001,
                   NOEUD_CMP=('COMBI', 'QUAD'),
                   PRECISION=0.02,
                   MAILLE='E4',),
                _F(REFERENCE='SOURCE_EXTERNE',
                   RESULTAT=SISM_SPE,
                   NOM_CHAM='EFGE_ELNO',
                   NOEUD='N17',
                   NOM_CMP='N',
                   VALE_CALC=296.649921990,
                   VALE_REFE=295.87,
                   NOEUD_CMP=('COMBI', 'QUAD'),
                   PRECISION=0.02,
                   MAILLE='E19',),
                _F(REFERENCE='SOURCE_EXTERNE',
                   RESULTAT=SISM_SPE,
                   NOM_CHAM='EFGE_ELNO',
                   NOEUD='N17',
                   NOM_CMP='VY',
                   VALE_CALC=639.006538512,
                   VALE_REFE=638.78999999999996,
                   NOEUD_CMP=('COMBI', 'QUAD'),
                   PRECISION=0.02,
                   MAILLE='E19',),
                _F(REFERENCE='SOURCE_EXTERNE',
                   RESULTAT=SISM_SPE,
                   NOM_CHAM='EFGE_ELNO',
                   NOEUD='N17',
                   NOM_CMP='VZ',
                   VALE_CALC=265.385556579,
                   VALE_REFE=265.38999999999999,
                   NOEUD_CMP=('COMBI', 'QUAD'),
                   PRECISION=0.02,
                   MAILLE='E19',),
                _F(REFERENCE='SOURCE_EXTERNE',
                   RESULTAT=SISM_SPE,
                   NOM_CHAM='EFGE_ELNO',
                   NOEUD='N17',
                   NOM_CMP='MT',
                   VALE_CALC=0.186074742,
                   VALE_REFE=0.185,
                   NOEUD_CMP=('COMBI', 'QUAD'),
                   PRECISION=0.02,
                   MAILLE='E19',),
                _F(REFERENCE='SOURCE_EXTERNE',
                   RESULTAT=SISM_SPE,
                   NOM_CHAM='EFGE_ELNO',
                   NOEUD='N17',
                   NOM_CMP='MFY',
                   VALE_CALC=32.365833994,
                   VALE_REFE=32.360999999999997,
                   NOEUD_CMP=('COMBI', 'QUAD'),
                   PRECISION=0.02,
                   MAILLE='E19',),
                _F(REFERENCE='SOURCE_EXTERNE',
                   RESULTAT=SISM_SPE,
                   NOM_CHAM='EFGE_ELNO',
                   NOEUD='N17',
                   NOM_CMP='MFZ',
                   VALE_CALC=220.563985044,
                   VALE_REFE=220.68000000000001,
                   NOEUD_CMP=('COMBI', 'QUAD'),
                   PRECISION=0.02,
                   MAILLE='E19',),
                ),
          )

#

SISM_SP1=COMB_SISM_MODAL(  MODE_MECA=MODE_MEC,
                           AMOR_REDUIT=0.02,
                           MASS_INER=TABL_MAS,
                           CORR_FREQ='NON',
                           FREQ_COUP=300.,
                           MODE_CORR=MODE_STA,
                           MONO_APPUI = 'OUI',
                           EXCIT=_F(  TRI_SPEC = 'OUI',
                                      SPEC_OSCI = ( SPECT_XZ,  SPECT_Y,
                                                   SPECT_XZ, ),
                                      ECHELLE = ( 9.81, 9.81, 9.81, )),
                           COMB_MODE=_F(  TYPE = 'SRSS'),
                           COMB_DIRECTION=_F(  TYPE = 'NEWMARK'),
                           OPTION=( 'DEPL',
                                     'REAC_NODA',  'EFGE_ELNO', )
                             )

TEST_RESU(RESU=(_F(REFERENCE='SOURCE_EXTERNE',
                   RESULTAT=SISM_SP1,
                   NOM_CHAM='DEPL',
                   NOEUD='N17',
                   NOM_CMP='DX',
                   VALE_CALC= 3.42183409E-04,
                   VALE_REFE=3.4265000000000001E-4,
                   NOEUD_CMP=('COMBI', 'NEWMARK'),
                   PRECISION=0.02,),
                _F(REFERENCE='SOURCE_EXTERNE',
                   RESULTAT=SISM_SP1,
                   NOM_CHAM='DEPL',
                   NOEUD='N17',
                   NOM_CMP='DY',
                   VALE_CALC= 4.92442648E-06,
                   VALE_REFE=4.8392000000000002E-06,
                   NOEUD_CMP=('COMBI', 'NEWMARK'),
                   PRECISION=0.02,),
                _F(REFERENCE='SOURCE_EXTERNE',
                   RESULTAT=SISM_SP1,
                   NOM_CHAM='DEPL',
                   NOEUD='N17',
                   NOM_CMP='DZ',
                   VALE_CALC= 3.02787115E-04,
                   VALE_REFE=3.0323999999999998E-4,
                   NOEUD_CMP=('COMBI', 'NEWMARK'),
                   PRECISION=0.02,),
                _F(REFERENCE='SOURCE_EXTERNE',
                   RESULTAT=SISM_SP1,
                   NOM_CHAM='DEPL',
                   NOEUD='N17',
                   NOM_CMP='DRX',
                   VALE_CALC= 3.75850241E-04,
                   VALE_REFE=3.7612000000000002E-4,
                   NOEUD_CMP=('COMBI', 'NEWMARK'),
                   PRECISION=0.02,),
                _F(REFERENCE='SOURCE_EXTERNE',
                   RESULTAT=SISM_SP1,
                   NOM_CHAM='DEPL',
                   NOEUD='N17',
                   NOM_CMP='DRY',
                   VALE_CALC= 5.27207026E-05,
                   VALE_REFE=5.2602000000000002E-05,
                   NOEUD_CMP=('COMBI', 'NEWMARK'),
                   PRECISION=0.02,),
                _F(REFERENCE='SOURCE_EXTERNE',
                   RESULTAT=SISM_SP1,
                   NOM_CHAM='DEPL',
                   NOEUD='N17',
                   NOM_CMP='DRZ',
                   VALE_CALC= 5.22666532E-04,
                   VALE_REFE=5.2309999999999998E-4,
                   NOEUD_CMP=('COMBI', 'NEWMARK'),
                   PRECISION=0.02,),
                ),
          )

TEST_RESU(RESU=(_F(REFERENCE='SOURCE_EXTERNE',
                   RESULTAT=SISM_SP1,
                   NOM_CHAM='REAC_NODA',
                   NOEUD='N25',
                   NOM_CMP='DX',
                   VALE_CALC= 1.28218661E+03,
                   VALE_REFE=1279.0,
                   NOEUD_CMP=('COMBI', 'NEWMARK'),
                   PRECISION=0.02,),
                _F(REFERENCE='SOURCE_EXTERNE',
                   RESULTAT=SISM_SP1,
                   NOM_CHAM='REAC_NODA',
                   NOEUD='N25',
                   NOM_CMP='DY',
                   VALE_CALC= 1.42102995E+03,
                   VALE_REFE=1386.8199999999999,
                   NOEUD_CMP=('COMBI', 'NEWMARK'),
                   PRECISION=0.029999999999999999,),
                _F(REFERENCE='SOURCE_EXTERNE',
                   RESULTAT=SISM_SP1,
                   NOM_CHAM='REAC_NODA',
                   NOEUD='N25',
                   NOM_CMP='DZ',
                   VALE_CALC= 1.24482748E+03,
                   VALE_REFE=1244.1199999999999,
                   NOEUD_CMP=('COMBI', 'NEWMARK'),
                   PRECISION=0.02,),
                _F(REFERENCE='SOURCE_EXTERNE',
                   RESULTAT=SISM_SP1,
                   NOM_CHAM='REAC_NODA',
                   NOEUD='N25',
                   NOM_CMP='DRX',
                   VALE_CALC=327.724839182,
                   VALE_REFE=327.88999999999999,
                   NOEUD_CMP=('COMBI', 'NEWMARK'),
                   PRECISION=0.02,),
                _F(REFERENCE='SOURCE_EXTERNE',
                   RESULTAT=SISM_SP1,
                   NOM_CHAM='REAC_NODA',
                   NOEUD='N25',
                   NOM_CMP='DRY',
                   VALE_CALC=4.569876600,
                   VALE_REFE=4.5579000000000001,
                   NOEUD_CMP=('COMBI', 'NEWMARK'),
                   PRECISION=0.02,),
                _F(REFERENCE='SOURCE_EXTERNE',
                   RESULTAT=SISM_SP1,
                   NOM_CHAM='REAC_NODA',
                   NOEUD='N25',
                   NOM_CMP='DRZ',
                   VALE_CALC=352.112212012,
                   VALE_REFE=351.99000000000001,
                   NOEUD_CMP=('COMBI', 'NEWMARK'),
                   PRECISION=0.02,),
                ),
          )

TEST_RESU(RESU=(_F(REFERENCE='SOURCE_EXTERNE',
                   RESULTAT=SISM_SP1,
                   NOM_CHAM='EFGE_ELNO',
                   NOEUD='N17',
                   NOM_CMP='N',
                   VALE_CALC= 1.39498098E+03,
                   VALE_REFE=1379.3299999999999,
                   NOEUD_CMP=('COMBI', 'NEWMARK'),
                   PRECISION=0.02,
                   MAILLE='E3',),
                _F(REFERENCE='SOURCE_EXTERNE',
                   RESULTAT=SISM_SP1,
                   NOM_CHAM='EFGE_ELNO',
                   NOEUD='N17',
                   NOM_CMP='VY',
                   VALE_CALC= 1.15358149E+03,
                   VALE_REFE=1148.6600000000001,
                   NOEUD_CMP=('COMBI', 'NEWMARK'),
                   PRECISION=0.02,
                   MAILLE='E3',),
                _F(REFERENCE='SOURCE_EXTERNE',
                   RESULTAT=SISM_SP1,
                   NOM_CHAM='EFGE_ELNO',
                   NOEUD='N17',
                   NOM_CMP='VZ',
                   VALE_CALC= 1.11438097E+03,
                   VALE_REFE=1114.0999999999999,
                   NOEUD_CMP=('COMBI', 'NEWMARK'),
                   PRECISION=0.02,
                   MAILLE='E3',),
                _F(REFERENCE='SOURCE_EXTERNE',
                   RESULTAT=SISM_SP1,
                   NOM_CHAM='EFGE_ELNO',
                   NOEUD='N17',
                   NOM_CMP='MT',
                   VALE_CALC=4.569876600,
                   VALE_REFE=4.5579999999999998,
                   NOEUD_CMP=('COMBI', 'NEWMARK'),
                   PRECISION=0.02,
                   MAILLE='E3',),
                _F(REFERENCE='SOURCE_EXTERNE',
                   RESULTAT=SISM_SP1,
                   NOM_CHAM='EFGE_ELNO',
                   NOEUD='N17',
                   NOM_CMP='MFY',
                   VALE_CALC=229.797524960,
                   VALE_REFE=229.81999999999999,
                   NOEUD_CMP=('COMBI', 'NEWMARK'),
                   PRECISION=0.02,
                   MAILLE='E3',),
                _F(REFERENCE='SOURCE_EXTERNE',
                   RESULTAT=SISM_SP1,
                   NOM_CHAM='EFGE_ELNO',
                   NOEUD='N17',
                   NOM_CMP='MFZ',
                   VALE_CALC=225.455582556,
                   VALE_REFE=225.37,
                   NOEUD_CMP=('COMBI', 'NEWMARK'),
                   PRECISION=0.02,
                   MAILLE='E3',),
                _F(REFERENCE='SOURCE_EXTERNE',
                   RESULTAT=SISM_SP1,
                   NOM_CHAM='EFGE_ELNO',
                   NOEUD='N17',
                   NOM_CMP='N',
                   VALE_CALC=148.840513488,
                   VALE_REFE=148.33000000000001,
                   NOEUD_CMP=('COMBI', 'NEWMARK'),
                   PRECISION=0.02,
                   MAILLE='E4',),
                _F(REFERENCE='SOURCE_EXTERNE',
                   RESULTAT=SISM_SP1,
                   NOM_CHAM='EFGE_ELNO',
                   NOEUD='N17',
                   NOM_CMP='VY',
                   VALE_CALC= 1.06714881E+03,
                   VALE_REFE=1065.01,
                   NOEUD_CMP=('COMBI', 'NEWMARK'),
                   PRECISION=0.02,
                   MAILLE='E4',),
                _F(REFERENCE='SOURCE_EXTERNE',
                   RESULTAT=SISM_SP1,
                   NOM_CHAM='EFGE_ELNO',
                   NOEUD='N17',
                   NOM_CMP='VZ',
                   VALE_CALC=202.940806048,
                   VALE_REFE=200.78999999999999,
                   NOEUD_CMP=('COMBI', 'NEWMARK'),
                   PRECISION=0.02,
                   MAILLE='E4',),
                _F(REFERENCE='SOURCE_EXTERNE',
                   RESULTAT=SISM_SP1,
                   NOM_CHAM='EFGE_ELNO',
                   NOEUD='N17',
                   NOM_CMP='MT',
                   VALE_CALC=0.185704346,
                   VALE_REFE=0.16400000000000001,
                   NOEUD_CMP=('COMBI', 'NEWMARK'),
                   PRECISION=0.14000000000000001,
                   MAILLE='E4',),
                _F(REFERENCE='SOURCE_EXTERNE',
                   RESULTAT=SISM_SP1,
                   NOM_CHAM='EFGE_ELNO',
                   NOEUD='N17',
                   NOM_CMP='MFY',
                   VALE_CALC=32.624906176,
                   VALE_REFE=32.490000000000002,
                   NOEUD_CMP=('COMBI', 'NEWMARK'),
                   PRECISION=0.02,
                   MAILLE='E4',),
                _F(REFERENCE='SOURCE_EXTERNE',
                   RESULTAT=SISM_SP1,
                   NOM_CHAM='EFGE_ELNO',
                   NOEUD='N17',
                   NOM_CMP='MFZ',
                   VALE_CALC=229.745323650,
                   VALE_REFE=229.77000000000001,
                   NOEUD_CMP=('COMBI', 'NEWMARK'),
                   PRECISION=0.02,
                   MAILLE='E4',),
                _F(REFERENCE='SOURCE_EXTERNE',
                   RESULTAT=SISM_SP1,
                   NOM_CHAM='EFGE_ELNO',
                   NOEUD='N17',
                   NOM_CMP='N',
                   VALE_CALC=337.030051761,
                   VALE_REFE=335.79000000000002,
                   NOEUD_CMP=('COMBI', 'NEWMARK'),
                   PRECISION=0.02,
                   MAILLE='E19',),
                _F(REFERENCE='SOURCE_EXTERNE',
                   RESULTAT=SISM_SP1,
                   NOM_CHAM='EFGE_ELNO',
                   NOEUD='N17',
                   NOM_CMP='VY',
                   VALE_CALC=676.058676120,
                   VALE_REFE=675.25999999999999,
                   NOEUD_CMP=('COMBI', 'NEWMARK'),
                   PRECISION=0.02,
                   MAILLE='E19',),
                _F(REFERENCE='SOURCE_EXTERNE',
                   RESULTAT=SISM_SP1,
                   NOM_CHAM='EFGE_ELNO',
                   NOEUD='N17',
                   NOM_CMP='VZ',
                   VALE_CALC=280.056367103,
                   VALE_REFE=279.47000000000003,
                   NOEUD_CMP=('COMBI', 'NEWMARK'),
                   PRECISION=0.02,
                   MAILLE='E19',),
                _F(REFERENCE='SOURCE_EXTERNE',
                   RESULTAT=SISM_SP1,
                   NOM_CHAM='EFGE_ELNO',
                   NOEUD='N17',
                   NOM_CMP='MT',
                   VALE_CALC=0.186074831,
                   VALE_REFE=0.185,
                   NOEUD_CMP=('COMBI', 'NEWMARK'),
                   PRECISION=0.02,
                   MAILLE='E19',),
                _F(REFERENCE='SOURCE_EXTERNE',
                   RESULTAT=SISM_SP1,
                   NOM_CHAM='EFGE_ELNO',
                   NOEUD='N17',
                   NOM_CMP='MFY',
                   VALE_CALC=35.682902998,
                   VALE_REFE=35.57,
                   NOEUD_CMP=('COMBI', 'NEWMARK'),
                   PRECISION=0.02,
                   MAILLE='E19',),
                _F(REFERENCE='SOURCE_EXTERNE',
                   RESULTAT=SISM_SP1,
                   NOM_CHAM='EFGE_ELNO',
                   NOEUD='N17',
                   NOM_CMP='MFZ',
                   VALE_CALC=225.421243067,
                   VALE_REFE=225.34999999999999,
                   NOEUD_CMP=('COMBI', 'NEWMARK'),
                   PRECISION=0.02,
                   MAILLE='E19',),
                ),
          )

FIN( )
#
