# TITRE POUTRE ENCASTREE-LIBRE: REPONSE SPECTRALE
# ======================================================================
# COPYRIGHT (C) 1991 - 2012  EDF R&D                  WWW.CODE-ASTER.ORG
# THIS PROGRAM IS FREE SOFTWARE; YOU CAN REDISTRIBUTE IT AND/OR MODIFY
# IT UNDER THE TERMS OF THE GNU GENERAL PUBLIC LICENSE AS PUBLISHED BY
# THE FREE SOFTWARE FOUNDATION; EITHER VERSION 2 OF THE LICENSE, OR
# (AT YOUR OPTION) ANY LATER VERSION.
#
# THIS PROGRAM IS DISTRIBUTED IN THE HOPE THAT IT WILL BE USEFUL, BUT
# WITHOUT ANY WARRANTY; WITHOUT EVEN THE IMPLIED WARRANTY OF
# MERCHANTABILITY OR FITNESS FOR A PARTICULAR PURPOSE. SEE THE GNU
# GENERAL PUBLIC LICENSE FOR MORE DETAILS.
#
# YOU SHOULD HAVE RECEIVED A COPY OF THE GNU GENERAL PUBLIC LICENSE
# ALONG WITH THIS PROGRAM; IF NOT, WRITE TO EDF R&D CODE_ASTER,
#    1 AVENUE DU GENERAL DE GAULLE, 92141 CLAMART CEDEX, FRANCE.
# ======================================================================
# person_in_charge: sylvie.audebert at edf.fr
# ----------------------------------------------------------------------
# POUTRE ENCASTREE-LIBRE SOUMIS A UN SEISME
# CORRECTION STATIQUE DE L'EFFET DES MODES PROPRES D'ORDRE ELEVE
#                                                  REF: SFM.VPCS SDLL23
# ----------------------------------------------------------------------


DEBUT( CODE=_F(  NOM = 'SDLL23C',NIV_PUB_WEB='INTERNET'),DEBUG=_F(SDVERI='OUI'),IGNORE_ALARM='UTILITAI4_2')

MAILLAGE=LIRE_MAILLAGE( )

MAILLAGE=DEFI_GROUP( reuse=MAILLAGE,   MAILLAGE=MAILLAGE,
                           CREA_GROUP_MA=_F(  NOM = 'MAILLAGE',
                                           MAILLE = ( 'E01', 'E02', ))
                        )

MAT=DEFI_MATERIAU( ELAS=_F(  E = 2.E+11,  NU = 0.3,  RHO = 0.) )

CH_MATE=AFFE_MATERIAU(  MAILLAGE=MAILLAGE,
                            AFFE=_F(  GROUP_MA = 'M_POUT',  MATER = MAT) )

MODELE=AFFE_MODELE(
   MAILLAGE=MAILLAGE,AFFE=(
      _F(  GROUP_MA = 'M_POUT', PHENOMENE = 'MECANIQUE', MODELISATION = 'POU_D_TG'),
      _F(  GROUP_NO = 'MASSE',  PHENOMENE = 'MECANIQUE', MODELISATION = 'DIS_T'),),
)

CARA_ELE=AFFE_CARA_ELEM(  MODELE=MODELE,
   POUTRE=_F(  GROUP_MA = 'M_POUT',  SECTION = 'GENERALE',
               CARA = (   'A',     'IY',      'IZ',      'JX', 'AY', 'AZ'),
               VALE = ( 78.1E-4, 5696.E-8, 2003.E-8, 7699.E-8,  1.2, 1.2)),
   DISCRET=(
      _F(  NOEUD = 'B',  CARA = 'M_T_D_N', VALE = 50000.),
      _F(  NOEUD = 'B',  CARA = 'K_T_D_N', VALE = (0.,0.,0.),),
      _F(  NOEUD = 'C',  CARA = 'M_T_D_N', VALE = 5000.),),
)

COND_LIM=AFFE_CHAR_MECA(  MODELE=MODELE,
                  DDL_IMPO=_F(  NOEUD = 'A',   DX = 0.,  DY = 0.,  DZ = 0.,
                                         DRX = 0., DRY = 0., DRZ = 0.) )

RIGI_ELE=CALC_MATR_ELEM(  MODELE=MODELE,   OPTION='RIGI_MECA',
                              CHAM_MATER=CH_MATE,   CARA_ELEM=CARA_ELE,
                              CHARGE=COND_LIM                        )

MASS_ELE=CALC_MATR_ELEM(  MODELE=MODELE,   OPTION='MASS_MECA',
                              CHAM_MATER=CH_MATE,   CARA_ELEM=CARA_ELE,
                              CHARGE=COND_LIM                        )

NUME1=NUME_DDL(  MATR_RIGI=RIGI_ELE)

RIGIDITE=ASSE_MATRICE(  MATR_ELEM=RIGI_ELE,  NUME_DDL=NUME1      )

MASSE=ASSE_MATRICE(  MATR_ELEM=MASS_ELE,  NUME_DDL=NUME1      )

TABL_MAS=POST_ELEM(  MODELE=MODELE,
                         CHAM_MATER=CH_MATE,   CARA_ELEM=CARA_ELE,
                        MASS_INER=(_F(  TOUT = 'OUI',),
                                    _F( GROUP_MA = 'MAILLAGE'))
                      )

IMPR_TABLE(   TABLE=TABL_MAS )

MODE_MEC=MODE_ITER_SIMULT(  MATR_RIGI=RIGIDITE,   MATR_MASS=MASSE,
                  CALC_FREQ=_F(  OPTION = 'PLUS_PETITE',  NMAX_FREQ = 6,
                              DIM_SOUS_ESPACE = 6) )


MODE_MEC=NORM_MODE(reuse=MODE_MEC,   MODE=MODE_MEC,   NORME='MASS_GENE',)

MODE_MEC=CALC_CHAMP(reuse=MODE_MEC,RESULTAT=MODE_MEC,CONTRAINTE=('SIEF_ELGA','EFGE_ELNO','SIPO_ELNO'))


MODE_MEC=CALC_CHAMP(reuse=MODE_MEC,  RESULTAT=MODE_MEC,
                   FORCE='REAC_NODA',
                       )

TEST_RESU(RESU=(_F(PARA='FREQ',
                   NUME_MODE=1,
                   RESULTAT=MODE_MEC,
                   VALE_CALC=0.24670012472487,
                   VALE_REFE=0.247,
                   REFERENCE='NON_DEFINI',
                   CRITERE='RELATIF',
                   PRECISION=1.E-2,),
                _F(PARA='FREQ',
                   NUME_MODE=2,
                   RESULTAT=MODE_MEC,
                   VALE_CALC=0.41592735517861,
                   VALE_REFE=0.41599999999999998,
                   REFERENCE='NON_DEFINI',
                   CRITERE='RELATIF',
                   PRECISION=1.E-2,),
                _F(PARA='FREQ',
                   NUME_MODE=3,
                   RESULTAT=MODE_MEC,
                   VALE_CALC=7.0269191352955,
                   VALE_REFE=7.0269000000000004,
                   REFERENCE='NON_DEFINI',
                   CRITERE='RELATIF',
                   PRECISION=1.E-2,),
                _F(PARA='FREQ',
                   NUME_MODE=4,
                   RESULTAT=MODE_MEC,
                   VALE_CALC=10.91707394249,
                   VALE_REFE=10.9171,
                   REFERENCE='NON_DEFINI',
                   CRITERE='RELATIF',
                   PRECISION=1.E-2,),
                _F(PARA='FREQ',
                   NUME_MODE=5,
                   RESULTAT=MODE_MEC,
                   VALE_CALC=27.507460449654,
                   VALE_REFE=27.507000000000001,
                   REFERENCE='NON_DEFINI',
                   CRITERE='RELATIF',
                   PRECISION=1.E-2,),
                _F(PARA='FREQ',
                   NUME_MODE=6,
                   RESULTAT=MODE_MEC,
                   VALE_CALC=41.740148177304,
                   VALE_REFE=41.740000000000002,
                   REFERENCE='NON_DEFINI',
                   CRITERE='RELATIF',
                   PRECISION=1.E-2,),
                ),
          )

#

TEST_RESU(RESU=(_F(PARA='FACT_PARTICI_DY',
                   NUME_MODE=1,
                   RESULTAT=MODE_MEC,
                   VALE_CALC=73.324194150825,
                   VALE_REFE=73.322000000000003,
                   REFERENCE='NON_DEFINI',
                   CRITERE='RELATIF',
                   PRECISION=1.E-2,),
                _F(PARA='FACT_PARTICI_DZ',
                   NUME_MODE=2,
                   RESULTAT=MODE_MEC,
                   VALE_CALC=73.339210976679,
                   VALE_REFE=73.331999999999994,
                   REFERENCE='NON_DEFINI',
                   CRITERE='RELATIF',
                   PRECISION=1.E-2,),
                _F(PARA='FACT_PARTICI_DY',
                   NUME_MODE=3,
                   RESULTAT=MODE_MEC,
                   VALE_CALC=222.76346772335,
                   VALE_REFE=222.76400000000001,
                   REFERENCE='NON_DEFINI',
                   CRITERE='RELATIF',
                   PRECISION=1.E-2,),
                _F(PARA='FACT_PARTICI_DZ',
                   NUME_MODE=4,
                   RESULTAT=MODE_MEC,
                   VALE_CALC=222.75852426634,
                   VALE_REFE=222.761,
                   REFERENCE='NON_DEFINI',
                   CRITERE='RELATIF',
                   PRECISION=1.E-2,),
                _F(PARA='FACT_PARTICI_DX',
                   NUME_MODE=5,
                   RESULTAT=MODE_MEC,
                   VALE_CALC=130.13674275889,
                   VALE_REFE=130.137,
                   REFERENCE='NON_DEFINI',
                   CRITERE='RELATIF',
                   PRECISION=1.E-2,),
                _F(PARA='FACT_PARTICI_DX',
                   NUME_MODE=6,
                   RESULTAT=MODE_MEC,
                   VALE_CALC=195.1010717144,
                   VALE_REFE=195.101,
                   REFERENCE='NON_DEFINI',
                   CRITERE='RELATIF',
                   PRECISION=1.E-2,),
                ),
          )

MODE_STA=MODE_STATIQUE(  MATR_RIGI=RIGIDITE,   MATR_MASS=MASSE,
                         SOLVEUR=_F(METHODE='MULT_FRONT'),
                          PSEUDO_MODE=(
                                       _F(  AXE = ( 'X',  'Y', )),
                                       _F(  DIRECTION = ( 0., 0., 1., ),
                                         NOM_DIR = 'Z')) )

MODE_STA=CALC_CHAMP(reuse=MODE_STA,RESULTAT=MODE_STA,CONTRAINTE=('SIEF_ELGA'))


MODE_STA=CALC_CHAMP(reuse=MODE_STA,  RESULTAT=MODE_STA,
                  FORCE='REAC_NODA',
                      NOEUD_CMP=('ACCE', 'X',))

MODE_STA=CALC_CHAMP(reuse=MODE_STA,  RESULTAT=MODE_STA,
                  FORCE='REAC_NODA',
                      NOEUD_CMP=('ACCE', 'Y',))

MODE_STA=CALC_CHAMP(reuse=MODE_STA,  RESULTAT=MODE_STA,
                   FORCE='REAC_NODA',
                      NOEUD_CMP=('ACCE', 'Z',))

ACCE_X=DEFI_FONCTION(  NOM_PARA='FREQ',        INTERPOL='LOG',
                          VALE=( 0.2,            2.4,
                                 2.0,           25.,
                                 7.70,          25.,
                                 20.0,          10.,
                                 100.0,         10.,  ) )

SPECT=DEFI_NAPPE(  NOM_PARA='AMOR',
                         INTERPOL=( 'LIN', 'LOG', ),
                       PARA=(     0.005,   0.01,    0.015,  ),
                       FONCTION=( ACCE_X,  ACCE_X,  ACCE_X, )        )

# ----------------------------------------------------------------------
#                  COMBINAISON SRSS
# ----------------------------------------------------------------------

SISM_SP3=COMB_SISM_MODAL(  MODE_MECA=MODE_MEC,
                           NUME_MODE=( 1,  2,  3, ),
                           AMOR_REDUIT=0.01,
                           MASS_INER=TABL_MAS,
                           CORR_FREQ='NON',
                           MONO_APPUI = 'OUI',
                           EXCIT=_F(TRI_AXE = ( 1.,  1.,  1., ),
                                    SPEC_OSCI = SPECT),
                           COMB_MODE=_F(  TYPE = 'DPC'),
                           COMB_DIRECTION=_F(  TYPE = 'QUAD'),
                           OPTION=( 'DEPL',  'REAC_NODA',
                                      'EFGE_ELNO',
                                      'SIPO_ELNO',  )
                            )


TEST_RESU(RESU=(_F(RESULTAT=SISM_SP3,
                   NOM_CHAM='DEPL',
                   NOEUD='B',
                   NOM_CMP='DY',
                   VALE_CALC=0.013629557646927,
                   NOEUD_CMP=('COMBI', 'QUAD'),),
                _F(RESULTAT=SISM_SP3,
                   NOM_CHAM='DEPL',
                   NOEUD='C',
                   NOM_CMP='DY',
                   VALE_CALC=1.2823319955946,
                   NOEUD_CMP=('COMBI', 'QUAD'),),
                _F(RESULTAT=SISM_SP3,
                   NOM_CHAM='DEPL',
                   NOEUD='B',
                   NOM_CMP='DZ',
                   VALE_CALC=2.8597672021232E-03,
                   NOEUD_CMP=('COMBI', 'QUAD'),),
                _F(RESULTAT=SISM_SP3,
                   NOM_CHAM='DEPL',
                   NOEUD='C',
                   NOM_CMP='DZ',
                   VALE_CALC=0.76782573063544,
                   NOEUD_CMP=('COMBI', 'QUAD'),),
                ),
          )

#

TEST_RESU(RESU=(_F(RESULTAT=SISM_SP3,
                   NOM_CHAM='REAC_NODA',
                   NOEUD='A',
                   NOM_CMP='DX',
                   VALE_CALC=1.0985194277896E-12,
                   CRITERE='ABSOLU',
                   NOEUD_CMP=('COMBI', 'QUAD'),
                   ),
                _F(RESULTAT=SISM_SP3,
                   NOM_CHAM='REAC_NODA',
                   NOEUD='A',
                   NOM_CMP='DY',
                   VALE_CALC=1.5713627403521E+06,
                   NOEUD_CMP=('COMBI', 'QUAD'),),
                _F(RESULTAT=SISM_SP3,
                   NOM_CHAM='REAC_NODA',
                   NOEUD='A',
                   NOM_CMP='DZ',
                   VALE_CALC=36933.758347696,
                   NOEUD_CMP=('COMBI', 'QUAD'),),
                _F(RESULTAT=SISM_SP3,
                   NOM_CHAM='REAC_NODA',
                   NOEUD='A',
                   NOM_CMP='DRY',
                   VALE_CALC=2.6390225767066E+05,
                   NOEUD_CMP=('COMBI', 'QUAD'),),
                _F(RESULTAT=SISM_SP3,
                   NOM_CHAM='REAC_NODA',
                   NOEUD='A',
                   NOM_CMP='DRZ',
                   VALE_CALC=6.3693366503067E+05,
                   NOEUD_CMP=('COMBI', 'QUAD'),),
                ),
          )

#
TEST_RESU(RESU=(_F(RESULTAT=SISM_SP3,
                   NOM_CHAM='SIPO_ELNO',
                   NOEUD='A',
                   NOM_CMP='SMFY',
                   VALE_CALC=4.6117462564323E+09,
                   NOEUD_CMP=('COMBI', 'QUAD'),
                   MAILLE='E01',),
                _F(RESULTAT=SISM_SP3,
                   NOM_CHAM='SIPO_ELNO',
                   NOEUD='A',
                   NOM_CMP='SMFZ',
                   VALE_CALC=2.9794825166176E+10,
                   NOEUD_CMP=('COMBI', 'QUAD'),
                   MAILLE='E01',),
                _F(RESULTAT=SISM_SP3,
                   NOM_CHAM='SIPO_ELNO',
                   NOEUD='A',
                   NOM_CMP='SVY',
                   VALE_CALC=1.9063128148933E+08,
                   NOEUD_CMP=('COMBI', 'QUAD'),
                   MAILLE='E01',),
                _F(RESULTAT=SISM_SP3,
                   NOM_CHAM='SIPO_ELNO',
                   NOEUD='A',
                   NOM_CMP='SVZ',
                   VALE_CALC=4.1786782760822E+06,
                   NOEUD_CMP=('COMBI', 'QUAD'),
                   MAILLE='E01',),
                ),
          )

#

#

SISM_SP6=COMB_SISM_MODAL(  MODE_MECA=MODE_MEC,
                           AMOR_REDUIT=0.01,
                           MASS_INER=TABL_MAS,
                           CORR_FREQ='NON',
                           MONO_APPUI = 'OUI',
                           EXCIT=_F(  TRI_AXE = ( 1.,  1.,  1., ),
                                      SPEC_OSCI = SPECT),
                           COMB_MODE=_F(  TYPE = 'DPC'),
                           COMB_DIRECTION=_F(  TYPE = 'QUAD'),
                           OPTION=( 'DEPL',  'REAC_NODA',
                                         'VITE',  'ACCE_ABSOLU', )
                            )

TEST_RESU(RESU=(_F(RESULTAT=SISM_SP6,
                   NOM_CHAM='DEPL',
                   NOEUD='B',
                   NOM_CMP='DX',
                   VALE_CALC=1.3336076981359E-04,
                   NOEUD_CMP=('COMBI', 'QUAD'),),
                _F(RESULTAT=SISM_SP6,
                   NOM_CHAM='DEPL',
                   NOEUD='C',
                   NOM_CMP='DX',
                   VALE_CALC=6.0220836855299E-04,
                   NOEUD_CMP=('COMBI', 'QUAD'),),
                _F(RESULTAT=SISM_SP6,
                   NOM_CHAM='DEPL',
                   NOEUD='B',
                   NOM_CMP='DY',
                   VALE_CALC=0.013629557646927,
                   NOEUD_CMP=('COMBI', 'QUAD'),),
                _F(RESULTAT=SISM_SP6,
                   NOM_CHAM='DEPL',
                   NOEUD='C',
                   NOM_CMP='DY',
                   VALE_CALC=1.2823319955946,
                   NOEUD_CMP=('COMBI', 'QUAD'),),
                _F(RESULTAT=SISM_SP6,
                   NOM_CHAM='DEPL',
                   NOEUD='B',
                   NOM_CMP='DZ',
                   VALE_CALC=4.7444232405343E-03,
                   NOEUD_CMP=('COMBI', 'QUAD'),),
                _F(RESULTAT=SISM_SP6,
                   NOM_CHAM='DEPL',
                   NOEUD='C',
                   NOM_CMP='DZ',
                   VALE_CALC=0.76782574358122,
                   NOEUD_CMP=('COMBI', 'QUAD'),),
                ),
          )

#

TEST_RESU(RESU=(_F(RESULTAT=SISM_SP6,
                   NOM_CHAM='REAC_NODA',
                   NOEUD='A',
                   NOM_CMP='DX',
                   VALE_CALC=4.1661904489765E+05,
                   NOEUD_CMP=('COMBI', 'QUAD'),),
                _F(RESULTAT=SISM_SP6,
                   NOM_CHAM='REAC_NODA',
                   NOEUD='A',
                   NOM_CMP='DY',
                   VALE_CALC=1.5713627403521E+06,
                   NOEUD_CMP=('COMBI', 'QUAD'),),
                _F(RESULTAT=SISM_SP6,
                   NOM_CHAM='REAC_NODA',
                   NOEUD='A',
                   NOM_CMP='DZ',
                   VALE_CALC=1.2055436179026E+06,
                   NOEUD_CMP=('COMBI', 'QUAD'),),
                _F(RESULTAT=SISM_SP6,
                   NOM_CHAM='REAC_NODA',
                   NOEUD='A',
                   NOM_CMP='DRY',
                   VALE_CALC=5.2326514055615E+05,
                   NOEUD_CMP=('COMBI', 'QUAD'),),
                _F(RESULTAT=SISM_SP6,
                   NOM_CHAM='REAC_NODA',
                   NOEUD='A',
                   NOM_CMP='DRZ',
                   VALE_CALC=6.3693366503067E+05,
                   NOEUD_CMP=('COMBI', 'QUAD'),),
                ),
          )

SISM_3ST=COMB_SISM_MODAL(  MODE_MECA=MODE_MEC,
                           NUME_MODE=( 1,  2,  3, ),
                           MODE_CORR=MODE_STA,
                           AMOR_REDUIT=0.01,
                           MASS_INER=TABL_MAS,
                           CORR_FREQ='NON',
                           MONO_APPUI = 'OUI',
                           EXCIT=_F(  TRI_AXE = ( 1.,  1.,  1., ),
                                      SPEC_OSCI = SPECT),
                           COMB_MODE=_F(  TYPE = 'SRSS'),
                           COMB_DIRECTION=_F(  TYPE = 'QUAD'),
                           OPTION=( 'DEPL',  'REAC_NODA', )
                            )

TEST_RESU(RESU=(_F(RESULTAT=SISM_3ST,
                   NOM_CHAM='DEPL',
                   NOEUD='B',
                   NOM_CMP='DX',
                   VALE_CALC=4.4014084507042E-04,
                   NOEUD_CMP=('COMBI', 'QUAD'),),
                _F(RESULTAT=SISM_3ST,
                   NOM_CHAM='DEPL',
                   NOEUD='C',
                   NOM_CMP='DX',
                   VALE_CALC=1.2003841229193E-03,
                   NOEUD_CMP=('COMBI', 'QUAD'),),
                _F(RESULTAT=SISM_3ST,
                   NOM_CHAM='DEPL',
                   NOEUD='B',
                   NOM_CMP='DY',
                   VALE_CALC=0.013629557646927,
                   NOEUD_CMP=('COMBI', 'QUAD'),),
                _F(RESULTAT=SISM_3ST,
                   NOM_CHAM='DEPL',
                   NOEUD='C',
                   NOM_CMP='DY',
                   VALE_CALC=1.2823319955946,
                   NOEUD_CMP=('COMBI', 'QUAD'),),
                _F(RESULTAT=SISM_3ST,
                   NOM_CHAM='DEPL',
                   NOEUD='B',
                   NOM_CMP='DZ',
                   VALE_CALC=6.0159947697699E-03,
                   NOEUD_CMP=('COMBI', 'QUAD'),),
                _F(RESULTAT=SISM_3ST,
                   NOM_CHAM='DEPL',
                   NOEUD='C',
                   NOM_CMP='DZ',
                   VALE_CALC=0.76782575594108,
                   NOEUD_CMP=('COMBI', 'QUAD'),),
                ),
          )

#

TEST_RESU(RESU=(_F(RESULTAT=SISM_3ST,
                   NOM_CHAM='REAC_NODA',
                   NOEUD='A',
                   NOM_CMP='DX',
                   VALE_CALC=1.375E+06,
                   VALE_REFE= 1.375000E6,
                   REFERENCE='NON_DEFINI',
                   CRITERE='RELATIF',
                   NOEUD_CMP=('COMBI', 'QUAD'),),
                _F(RESULTAT=SISM_3ST,
                   NOM_CHAM='REAC_NODA',
                   NOEUD='A',
                   NOM_CMP='DY',
                   VALE_CALC=1.5713627403521E+06,
                   CRITERE='RELATIF',
                   NOEUD_CMP=('COMBI', 'QUAD'),),
                _F(RESULTAT=SISM_3ST,
                   NOM_CHAM='REAC_NODA',
                   NOEUD='A',
                   NOM_CMP='DZ',
                   VALE_CALC=1.6851082036561E+06,
                   CRITERE='RELATIF',
                   NOEUD_CMP=('COMBI', 'QUAD'),),
                _F(RESULTAT=SISM_3ST,
                   NOM_CHAM='REAC_NODA',
                   NOEUD='A',
                   NOM_CMP='DRY',
                   VALE_CALC=6.8463707285968E+05,
                   CRITERE='RELATIF',
                   NOEUD_CMP=('COMBI', 'QUAD'),),
                _F(RESULTAT=SISM_3ST,
                   NOM_CHAM='REAC_NODA',
                   NOEUD='A',
                   NOM_CMP='DRZ',
                   VALE_CALC=6.3693366503067E+05,
                   CRITERE='RELATIF',
                   NOEUD_CMP=('COMBI', 'QUAD'),),
                ),
          )

# ----------------------------------------------------------------------
#                  COMBINAISON CQC
# ----------------------------------------------------------------------

SISM_CQC=COMB_SISM_MODAL(  MODE_MECA=MODE_MEC,
                           AMOR_REDUIT=0.01,
                           MASS_INER=TABL_MAS,
                           CORR_FREQ='NON',
                           MONO_APPUI = 'OUI',
                           EXCIT=_F(  TRI_AXE = ( 1.,  1.,  1., ),
                                      SPEC_OSCI = SPECT),
                           COMB_MODE=_F(  TYPE = 'CQC'),
                           COMB_DIRECTION=_F(  TYPE = 'QUAD'),
                           OPTION=( 'DEPL',  'REAC_NODA', )
                            )

TEST_RESU(RESU=(_F(RESULTAT=SISM_CQC,
                   NOM_CHAM='DEPL',
                   NOEUD='B',
                   NOM_CMP='DX',
                   VALE_CALC=1.3347037350315E-04,
                   NOEUD_CMP=('COMBI', 'QUAD'),),
                _F(RESULTAT=SISM_CQC,
                   NOM_CHAM='DEPL',
                   NOEUD='C',
                   NOM_CMP='DX',
                   VALE_CALC=6.0196549932473E-04,
                   NOEUD_CMP=('COMBI', 'QUAD'),),
                _F(RESULTAT=SISM_CQC,
                   NOM_CHAM='DEPL',
                   NOEUD='B',
                   NOM_CMP='DY',
                   VALE_CALC=0.013629581953267,
                   NOEUD_CMP=('COMBI', 'QUAD'),),
                _F(RESULTAT=SISM_CQC,
                   NOM_CHAM='DEPL',
                   NOEUD='C',
                   NOM_CMP='DY',
                   VALE_CALC=1.2823319930112,
                   NOEUD_CMP=('COMBI', 'QUAD'),),
                _F(RESULTAT=SISM_CQC,
                   NOM_CHAM='DEPL',
                   NOEUD='B',
                   NOM_CMP='DZ',
                   VALE_CALC=4.7444373736922E-03,
                   NOEUD_CMP=('COMBI', 'QUAD'),),
                _F(RESULTAT=SISM_CQC,
                   NOM_CHAM='DEPL',
                   NOEUD='C',
                   NOM_CMP='DZ',
                   VALE_CALC=0.76782574270793,
                   NOEUD_CMP=('COMBI', 'QUAD'),),
                ),
          )

#

TEST_RESU(RESU=(_F(RESULTAT=SISM_CQC,
                   NOM_CHAM='REAC_NODA',
                   NOEUD='A',
                   NOM_CMP='DX',
                   VALE_CALC=4.1696144682385E+05,
                   NOEUD_CMP=('COMBI', 'QUAD'),),
                _F(RESULTAT=SISM_CQC,
                   NOM_CHAM='REAC_NODA',
                   NOEUD='A',
                   NOM_CMP='DY',
                   VALE_CALC=1.5713628508323E+06,
                   NOEUD_CMP=('COMBI', 'QUAD'),),
                _F(RESULTAT=SISM_CQC,
                   NOM_CHAM='REAC_NODA',
                   NOEUD='A',
                   NOM_CMP='DZ',
                   VALE_CALC=1.2055438465518E+06,
                   NOEUD_CMP=('COMBI', 'QUAD'),),
                _F(RESULTAT=SISM_CQC,
                   NOM_CHAM='REAC_NODA',
                   NOEUD='A',
                   NOM_CMP='DRY',
                   VALE_CALC=5.2326655198255E+05,
                   NOEUD_CMP=('COMBI', 'QUAD'),),
                _F(RESULTAT=SISM_CQC,
                   NOM_CHAM='REAC_NODA',
                   NOEUD='A',
                   NOM_CMP='DRZ',
                   VALE_CALC=6.3693448534592E+05,
                   NOEUD_CMP=('COMBI', 'QUAD'),),
                ),
          )

# ----------------------------------------------------------------------
#                  COMBINAISON DSC
# ----------------------------------------------------------------------

SISM_DPC=COMB_SISM_MODAL(  MODE_MECA=MODE_MEC,
                           AMOR_REDUIT=0.01,
                           MASS_INER=TABL_MAS,
                           CORR_FREQ='NON',
                           MONO_APPUI = 'OUI',
                           EXCIT=_F(  TRI_AXE = ( 1.,  1.,  1., ),
                                      SPEC_OSCI = SPECT),
                           COMB_MODE=_F(  TYPE = 'DSC',
                                       DUREE = 5.),
                           COMB_DIRECTION=_F(  TYPE = 'QUAD'),
                           OPTION=( 'DEPL',  'REAC_NODA', )
                            )

TEST_RESU(RESU=(_F(RESULTAT=SISM_DPC,
                   NOM_CHAM='DEPL',
                   NOEUD='B',
                   NOM_CMP='DX',
                   VALE_CALC=1.3352446950636E-04,
                   NOEUD_CMP=('COMBI', 'QUAD'),),
                _F(RESULTAT=SISM_DPC,
                   NOM_CHAM='DEPL',
                   NOEUD='C',
                   NOM_CMP='DX',
                   VALE_CALC=6.0184551908145E-04,
                   NOEUD_CMP=('COMBI', 'QUAD'),),
                _F(RESULTAT=SISM_DPC,
                   NOM_CHAM='DEPL',
                   NOEUD='B',
                   NOM_CMP='DY',
                   VALE_CALC=0.013633420210605,
                   NOEUD_CMP=('COMBI', 'QUAD'),),
                _F(RESULTAT=SISM_DPC,
                   NOM_CHAM='DEPL',
                   NOEUD='C',
                   NOM_CMP='DY',
                   VALE_CALC=1.282331584995,
                   NOEUD_CMP=('COMBI', 'QUAD'),),
                _F(RESULTAT=SISM_DPC,
                   NOM_CHAM='DEPL',
                   NOEUD='B',
                   NOM_CMP='DZ',
                   VALE_CALC=4.7456199055397E-03,
                   NOEUD_CMP=('COMBI', 'QUAD'),),
                _F(RESULTAT=SISM_DPC,
                   NOM_CHAM='DEPL',
                   NOEUD='C',
                   NOM_CMP='DZ',
                   VALE_CALC=0.76782566962953,
                   NOEUD_CMP=('COMBI', 'QUAD'),),
                ),
          )

#

TEST_RESU(RESU=(_F(RESULTAT=SISM_DPC,
                   NOM_CHAM='REAC_NODA',
                   NOEUD='A',
                   NOM_CMP='DX',
                   VALE_CALC=4.1713044273788E+05,
                   NOEUD_CMP=('COMBI', 'QUAD'),),
                _F(RESULTAT=SISM_DPC,
                   NOM_CHAM='REAC_NODA',
                   NOEUD='A',
                   NOM_CMP='DY',
                   VALE_CALC=1.5713802993293E+06,
                   NOEUD_CMP=('COMBI', 'QUAD'),),
                _F(RESULTAT=SISM_DPC,
                   NOM_CHAM='REAC_NODA',
                   NOEUD='A',
                   NOM_CMP='DZ',
                   VALE_CALC=1.2055629800564E+06,
                   NOEUD_CMP=('COMBI', 'QUAD'),),
                _F(RESULTAT=SISM_DPC,
                   NOM_CHAM='REAC_NODA',
                   NOEUD='A',
                   NOM_CMP='DRY',
                   VALE_CALC=5.2338464848817E+05,
                   NOEUD_CMP=('COMBI', 'QUAD'),),
                _F(RESULTAT=SISM_DPC,
                   NOM_CHAM='REAC_NODA',
                   NOEUD='A',
                   NOM_CMP='DRZ',
                   VALE_CALC=6.3706402788484E+05,
                   NOEUD_CMP=('COMBI', 'QUAD'),),
                ),
          )

FIN( )
#
