# MODIF  DATE 26/09/2012   AUTEUR LEBOUVIER F.LEBOUVIER 
# TITRE CALCUL D'UNE LIGNE D'ARBRE AVEC 3 DISQUES (CADYRO : DLRR08)
# REFERENCE : M. LALANNE, G. FERRARIS -        RORORDYNAMIC, PREDICTION IN
# ENGINEERING - pp 68-71
# sdll140a.para = tps_job 600 mem_job 512Mo ncpus 1 liste_test S
#            CONFIGURATION MANAGEMENT OF EDF VERSION
# ======================================================================
# COPYRIGHT (C) 1991 - 2012  EDF R&D                  WWW.CODE-ASTER.ORG
# THIS PROGRAM IS FREE SOFTWARE; YOU CAN REDISTRIBUTE IT AND/OR MODIFY  
# IT UNDER THE TERMS OF THE GNU GENERAL PUBLIC LICENSE AS PUBLISHED BY  
# THE FREE SOFTWARE FOUNDATION; EITHER VERSION 2 OF THE LICENSE, OR     
# (AT YOUR OPTION) ANY LATER VERSION.                                                    
#                                                                       
# THIS PROGRAM IS DISTRIBUTED IN THE HOPE THAT IT WILL BE USEFUL, BUT   
# WITHOUT ANY WARRANTY; WITHOUT EVEN THE IMPLIED WARRANTY OF            
# MERCHANTABILITY OR FITNESS FOR A PARTICULAR PURPOSE. SEE THE GNU      
# GENERAL PUBLIC LICENSE FOR MORE DETAILS.                              
#                                                                       
# YOU SHOULD HAVE RECEIVED A COPY OF THE GNU GENERAL PUBLIC LICENSE     
# ALONG WITH THIS PROGRAM; IF NOT, WRITE TO EDF R&D CODE_ASTER,         
#    1 AVENUE DU GENERAL DE GAULLE, 92141 CLAMART CEDEX, FRANCE.        
# ======================================================================
DEBUT(CODE=_F(NOM='SDLL140A',NIV_PUB_WEB='INTERNET'),DEBUG=_F(SDVERI='OUI'),
      IGNORE_ALARM=('ALGELINE4_87'))
# On desactive une alarme sur le comptage des valeurs propres complexes
# dans la methode de calcul des modes QZ.
# On verifie que, malgre le message, l'on a toutes les valeurs propres voulues.

MAIL=LIRE_MAILLAGE(FORMAT='MED',)

MODELE=AFFE_MODELE(MAILLAGE=MAIL,
                   AFFE=(_F(GROUP_MA='ROTOR',
                           PHENOMENE='MECANIQUE',
                           MODELISATION='POU_D_T',),
                         _F(GROUP_MA=('PALIER_A','PALIER_E','DISQUE1','DISQUE2','DISQUE3'),
                           PHENOMENE='MECANIQUE',
                           MODELISATION='DIS_TR',),))

ACIER=DEFI_MATERIAU(ELAS=_F(E=2.0E11,
                            NU=0.3,
                            RHO=7800.0,),);


CHMAT=AFFE_MATERIAU(MAILLAGE=MAIL,
                    AFFE=(_F(GROUP_MA='ROTOR',
                            MATER=ACIER,),))

CARELEM=AFFE_CARA_ELEM(MODELE=MODELE,
                       POUTRE=(_F(GROUP_MA='ROTOR',
                                 SECTION='CERCLE',
                                 CARA='R',
                                 VALE=(.05,),),),
                        DISCRET=(
                                 _F(GROUP_MA='PALIER_A',
                                    CARA='K_TR_D_N',
                                    VALE=(0.,.5E8,.7E8,0.,0.,0.)
                                  ),
                                 _F(GROUP_MA='PALIER_A',
                                    CARA='M_TR_D_N',
                                    VALE=(0.,0.,0.,0.,0.,0.,0.,0.,0.,0.,)
                                  ),
                                 _F(GROUP_MA='PALIER_E',
                                    CARA='K_TR_D_N',
                                    VALE=(0.,.5E8,.7E8,0.,0.,0.)
                                  ),
                                 _F(GROUP_MA='PALIER_E',
                                    CARA='M_TR_D_N',
                                    VALE=(0.,0.,0.,0.,0.,0.,0.,0.,0.,0.,)
                                  ),
                                 _F(GROUP_MA='PALIER_A',
                                    CARA='A_TR_D_N',
                                    VALE=(0.,.5E3,.7E3,0.,0.,0.)
                                  ),
                                 _F(GROUP_MA='PALIER_E',
                                    CARA='A_TR_D_N',
                                    VALE=(0.,.5E3,.7E3,0.,0.,0.)
                                  ),
                                 _F(GROUP_MA='DISQUE1',
                                    CARA='M_TR_D_N',
                                    VALE=(14.580130,0.1232021,0.06463858,0.06463858,0,0,0,0,0,0),
                                  ),
                                 _F(GROUP_MA='DISQUE2',
                                    CARA='M_TR_D_N',
                                    VALE=(45.945793,0.97634809,0.4977460,0.4977460,0,0,0,0,0,0),
                                  ),
                                 _F(GROUP_MA='DISQUE3',
                                    CARA='M_TR_D_N',
                                    VALE=(55.134951,1.1716177,0.6023493,0.6023493,0,0,0,0,0,0),
                                  ),
                        ))
                                 
                                 

BLOQUAGE=AFFE_CHAR_MECA(MODELE=MODELE,
                        DDL_IMPO=(_F(GROUP_NO=('PALIER_A',),
                                     DX=0., DRX=0.
                                     ),
                                   ))
                                    

MACRO_MATR_ASSE(MODELE=MODELE,
                CHAM_MATER=CHMAT,
                CARA_ELEM=CARELEM,
                CHARGE=BLOQUAGE,
                NUME_DDL=CO('NUMEDDL'),
                MATR_ASSE=(_F(MATRICE=CO('RIGIDITE'),
                              OPTION='RIGI_MECA',),
                           _F(MATRICE=CO('MASSE'),
                              OPTION='MASS_MECA',),
                           _F(MATRICE=CO('AMOR'),
                              OPTION='AMOR_MECA',),),);

GYELEM=CALC_MATR_ELEM(OPTION='MECA_GYRO',
                      MODELE=MODELE,
                      CHAM_MATER=CHMAT,
                      CARA_ELEM=CARELEM,);


GYASS=ASSE_MATRICE(MATR_ELEM=GYELEM,
                   NUME_DDL=NUMEDDL,);


                    
MODES=MODE_ITER_SIMULT(MATR_RIGI=RIGIDITE,
                       MATR_MASS=MASSE,
                       CALC_FREQ=_F(OPTION='BANDE',
                                    FREQ=(3.,3000.)));


TEST_RESU(RESU=(_F(RESULTAT=MODES,
                  REFERENCE='SOURCE_EXTERNE',
                  NUME_ORDRE=1,
                  PARA='FREQ',
                  VALE=60.618,),
                  
                 _F(RESULTAT=MODES,
                  REFERENCE='SOURCE_EXTERNE',
                  NUME_ORDRE=2,
                  PARA='FREQ',
                  VALE=63.029,),
                  
               _F(RESULTAT=MODES,
                  REFERENCE='SOURCE_EXTERNE',
                  NUME_ORDRE=4,
                  PARA='FREQ',
                  VALE=169.513,),

               _F(RESULTAT=MODES,
                  REFERENCE='SOURCE_EXTERNE',
                  NUME_ORDRE=5,
                  PARA='FREQ',
                  VALE=185.584,),
                  
  
               _F(RESULTAT=MODES,
                  REFERENCE='SOURCE_EXTERNE',
                  NUME_ORDRE=7,
                  PARA='FREQ',
                  VALE=329.613,),
    
                _F(RESULTAT=MODES,
                  REFERENCE='SOURCE_EXTERNE',
                  NUME_ORDRE=8,
                  PARA='FREQ',
                  VALE=362.089,),
     
               _F(RESULTAT=MODES,
                  REFERENCE='SOURCE_EXTERNE',
                  NUME_ORDRE=9,
                  PARA='FREQ',
                  VALE=529.291,),
                 
               _F(RESULTAT=MODES,
                  REFERENCE='SOURCE_EXTERNE',
                  NUME_ORDRE=10,
                  PARA='FREQ',
                  VALE=557.549,),
                  
                _F(RESULTAT=MODES,
                  REFERENCE='SOURCE_EXTERNE',
                  NUME_ORDRE=12,
                  PARA='FREQ',
                  VALE=831.111,),
                  
                _F(RESULTAT=MODES,
                  REFERENCE='SOURCE_EXTERNE',
                  NUME_ORDRE=13,
                  PARA='FREQ',
                  VALE=846.013,),))
                                               



OM=25000.*pi/30.

GYOM=COMB_MATR_ASSE(COMB_R=(_F(MATR_ASSE=GYASS, COEF_R=OM,),
                            _F(MATR_ASSE=AMOR, COEF_R=1.,),))



MODEG=MODE_ITER_SIMULT(MATR_RIGI=RIGIDITE,
                       MATR_MASS=MASSE,
                       MATR_AMOR=GYOM,
                       METHODE='SORENSEN',
                       VERI_MODE=_F(SEUIL=1.E-3),
                       CALC_FREQ=_F(OPTION='CENTRE',
                                    FREQ=1.,
                                    NMAX_FREQ=16))



MODEZ=MODE_ITER_SIMULT(MATR_RIGI=RIGIDITE,
                       MATR_MASS=MASSE,
                       MATR_AMOR=GYOM,
                       VERI_MODE=_F(SEUIL=1.E-3),
                       METHODE='QZ',
                       CALC_FREQ=_F(OPTION='PLUS_PETITE',
                                    NMAX_FREQ=12 ))




TEST_RESU(RESU=(
               _F(RESULTAT=MODEG,
                  REFERENCE='SOURCE_EXTERNE',
                  NUME_ORDRE=1,
                  PARA='FREQ',
                  VALE=55.408,),
                  
               _F(RESULTAT=MODEG,
                  REFERENCE='SOURCE_EXTERNE',
                  NUME_ORDRE=2,
                  PARA='FREQ',
                  VALE=67.209,),
                  
                 _F(RESULTAT=MODEG,
                  REFERENCE='SOURCE_EXTERNE',
                  NUME_ORDRE=4,
                  PARA='FREQ',
                  VALE=157.904,),
                  
               _F(RESULTAT=MODEG,
                  REFERENCE='SOURCE_EXTERNE',
                  NUME_ORDRE=5,
                  PARA='FREQ',
                  VALE=193.706,),

               _F(RESULTAT=MODEG,
                  REFERENCE='SOURCE_EXTERNE',
                  NUME_ORDRE=6,
                  PARA='FREQ',
                  VALE=249.898,),
                  
  
               _F(RESULTAT=MODEG,
                  REFERENCE='SOURCE_EXTERNE',
                  NUME_ORDRE=8,
                  PARA='FREQ',
                  VALE=407.619,
                  PRECISION=0.002,),
    
                _F(RESULTAT=MODEG,
                  REFERENCE='SOURCE_EXTERNE',
                  NUME_ORDRE=9,
                  PARA='FREQ',
                  VALE=446.622,),
     
               _F(RESULTAT=MODEG,
                  REFERENCE='SOURCE_EXTERNE',
                  NUME_ORDRE=11,
                  PARA='FREQ',
                  VALE=622.654,
                  PRECISION=0.002,),
                 
               _F(RESULTAT=MODEG,
                  REFERENCE='SOURCE_EXTERNE',
                  NUME_ORDRE=12,
                  PARA='FREQ',
                  VALE=715.026,
                  PRECISION=0.002,),))
                                                                                                       
TEST_RESU(RESU=(
               _F(RESULTAT=MODEZ,
                  REFERENCE='SOURCE_EXTERNE',
                  NUME_ORDRE=1,
                  PARA='FREQ',
                  VALE=55.408,),
                  
               _F(RESULTAT=MODEZ,
                  REFERENCE='SOURCE_EXTERNE',
                  NUME_ORDRE=2,
                  PARA='FREQ',
                  VALE=67.209,),
                  
                 _F(RESULTAT=MODEZ,
                  REFERENCE='SOURCE_EXTERNE',
                  NUME_ORDRE=3,
                  PARA='FREQ',
                  VALE=157.904,),
                  
               _F(RESULTAT=MODEZ,
                  REFERENCE='SOURCE_EXTERNE',
                  NUME_ORDRE=4,
                  PARA='FREQ',
                  VALE=193.706,),

               _F(RESULTAT=MODEZ,
                  REFERENCE='SOURCE_EXTERNE',
                  NUME_ORDRE=5,
                  PARA='FREQ',
                  VALE=249.898,),
                  
  
               _F(RESULTAT=MODEZ,
                  REFERENCE='SOURCE_EXTERNE',
                  NUME_ORDRE=7,
                  PARA='FREQ',
                  VALE=407.619,
                  PRECISION=0.002,),
    
                _F(RESULTAT=MODEZ,
                  REFERENCE='SOURCE_EXTERNE',
                  NUME_ORDRE=8,
                  PARA='FREQ',
                  VALE=446.622,),
     
               _F(RESULTAT=MODEZ,
                  REFERENCE='SOURCE_EXTERNE',
                  NUME_ORDRE=10,
                  PARA='FREQ',
                  VALE=622.654,
                  PRECISION=0.002,),
                 
               _F(RESULTAT=MODEZ,
                  REFERENCE='SOURCE_EXTERNE',
                  NUME_ORDRE=11,
                  PARA='FREQ',
                  VALE=715.026,
                  PRECISION=0.002),))
                                                                                                       

PROJ_BASE(BASE=MODES,
          STOCKAGE='PLEIN',
          MATR_ASSE_GENE=(_F(MATRICE=CO('MAGE'),
                             MATR_ASSE=MASSE,),
                          _F(MATRICE=CO('RIGE'),
                             MATR_ASSE=RIGIDITE,),
                          _F(MATRICE=CO('OMGE'),
                             MATR_ASSE=GYOM,),),);


MOD2ETAG=MODE_ITER_SIMULT(MATR_RIGI=RIGE,
                          MATR_MASS=MAGE,
                          MATR_AMOR=OMGE,
                          METHODE='QZ',
                          CALC_FREQ=_F(OPTION='TOUT'),)


TEST_RESU(RESU=(
               _F(RESULTAT=MOD2ETAG,
                  REFERENCE='SOURCE_EXTERNE',
                  NUME_ORDRE=1,
                  PARA='FREQ',
                  VALE=55.408,),
                  
               _F(RESULTAT=MOD2ETAG,
                  REFERENCE='SOURCE_EXTERNE',
                  NUME_ORDRE=2,
                  PARA='FREQ',
                  VALE=67.209,),
                  
                 _F(RESULTAT=MOD2ETAG,
                  REFERENCE='SOURCE_EXTERNE',
                  NUME_ORDRE=4,
                  PARA='FREQ',
                  VALE=157.904,),
                  
               _F(RESULTAT=MOD2ETAG,
                  REFERENCE='SOURCE_EXTERNE',
                  NUME_ORDRE=5,
                  PARA='FREQ',
                  VALE=193.706,),

               _F(RESULTAT=MOD2ETAG,
                  REFERENCE='SOURCE_EXTERNE',
                  NUME_ORDRE=6,
                  PARA='FREQ',
                  VALE=249.898,),
                  
  
               _F(RESULTAT=MOD2ETAG,
                  REFERENCE='SOURCE_EXTERNE',
                  NUME_ORDRE=8,
                  PARA='FREQ',
                  VALE=407.619,),
    
                _F(RESULTAT=MOD2ETAG,
                  REFERENCE='SOURCE_EXTERNE',
                  NUME_ORDRE=9,
                  PRECISION=.002,
                  PARA='FREQ',
                  VALE=446.622,),
     
               _F(RESULTAT=MOD2ETAG,
                  REFERENCE='SOURCE_EXTERNE',
                  NUME_ORDRE=11,
                  PARA='FREQ',
                  PRECISION=.002,
                  VALE=622.654,),
                 
               _F(RESULTAT=MOD2ETAG,
                  REFERENCE='SOURCE_EXTERNE',
                  NUME_ORDRE=12,
                  PARA='FREQ',
                  VALE=715.026,
                  PRECISION=0.002,),))
                                                                                                       
FIN()







