# TITRE TRANSITOIRE D'UN ARBRE MUNI DE TROIS DISQUES : DYNA_VIBRA
# ======================================================================
# COPYRIGHT (C) 1991 - 2015  EDF R&D                  WWW.CODE-ASTER.ORG
# THIS PROGRAM IS FREE SOFTWARE; YOU CAN REDISTRIBUTE IT AND/OR MODIFY  
# IT UNDER THE TERMS OF THE GNU GENERAL PUBLIC LICENSE AS PUBLISHED BY  
# THE FREE SOFTWARE FOUNDATION; EITHER VERSION 2 OF THE LICENSE, OR     
# (AT YOUR OPTION) ANY LATER VERSION.                                                    
#                                                                       
# THIS PROGRAM IS DISTRIBUTED IN THE HOPE THAT IT WILL BE USEFUL, BUT   
# WITHOUT ANY WARRANTY; WITHOUT EVEN THE IMPLIED WARRANTY OF            
# MERCHANTABILITY OR FITNESS FOR A PARTICULAR PURPOSE. SEE THE GNU      
# GENERAL PUBLIC LICENSE FOR MORE DETAILS.                              
#                                                                       
# YOU SHOULD HAVE RECEIVED A COPY OF THE GNU GENERAL PUBLIC LICENSE     
# ALONG WITH THIS PROGRAM; IF NOT, WRITE TO EDF R&D CODE_ASTER,         
#    1 AVENUE DU GENERAL DE GAULLE, 92141 CLAMART CEDEX, FRANCE.        
# ======================================================================

DEBUT(CODE=_F(
              NIV_PUB_WEB='INTERNET',
              VISU_EFICAS='OUI',),);

MAIL=LIRE_MAILLAGE();

MODELE=AFFE_MODELE(MAILLAGE=MAIL,
                   AFFE=(_F(GROUP_MA='ROTOR',
                            PHENOMENE='MECANIQUE',
                            MODELISATION='POU_D_T',),
                         _F(GROUP_MA=('PALIER_A','PALIER_E','DISQUE1','DISQUE2','DISQUE3',),
                            PHENOMENE='MECANIQUE',
                            MODELISATION='DIS_TR',),),);

ACIER=DEFI_MATERIAU(ELAS=_F(E=2.0E11,
                            NU=0.3,
                            RHO=7800.0,),);

CHMAT=AFFE_MATERIAU(MAILLAGE=MAIL,
                    AFFE=_F(GROUP_MA='ROTOR',
                            MATER=ACIER,),);

CARELEM=AFFE_CARA_ELEM(MODELE=MODELE,
                       POUTRE=_F(GROUP_MA='ROTOR',
                                 SECTION='CERCLE',
                                 CARA='R',
                                 VALE=.05,),
                       DISCRET=(_F(CARA='K_TR_D_N',
                                   GROUP_MA='PALIER_A',
                                   VALE=(0.,5.E7,7.E7,0.,0.,0.,),),
                                _F(CARA='M_TR_D_N',
                                   GROUP_MA='PALIER_A',
                                   VALE=(0.,0.,0.,0.,0.,0.,0.,0.,0.,0.,),),
                                _F(CARA='K_TR_D_N',
                                   GROUP_MA='PALIER_E',
                                   VALE=(0.,5.E7,7.E7,0.,0.,0.,),),
                                _F(CARA='M_TR_D_N',
                                   GROUP_MA='PALIER_E',
                                   VALE=(0.,0.,0.,0.,0.,0.,0.,0.,0.,0.,),),
                                _F(CARA='A_TR_D_N',
                                   GROUP_MA='PALIER_A',
                                   VALE=(0.,5000.,7000.,0.,0.,0.,),),
                                _F(CARA='A_TR_D_N',
                                   GROUP_MA='PALIER_E',
                                   VALE=(0.,5000.,7000.,0.,0.,0.,),),
                                _F(CARA='M_TR_D_N',
                                   GROUP_MA='DISQUE1',
                                   VALE=(14.580130,0.1232021,0.06463858,0.06463858,0.,0.,0.,0.,0.,0.,),),
                                _F(CARA='M_TR_D_N',
                                   GROUP_MA='DISQUE2',
                                   VALE=(45.945793,0.97634809,0.4977460,0.4977460,0.,0.,0.,0.,0.,0.,),),
                                _F(CARA='M_TR_D_N',
                                   GROUP_MA='DISQUE3',
                                   VALE=(55.134951,1.1716177,0.6023493,0.6023493,0.,0.,0.,0.,0.,0.,),),),);

BLOQUAGE=AFFE_CHAR_MECA(MODELE=MODELE,
                        DDL_IMPO=(_F(GROUP_NO='PALIER_A',
                                     DX=0.0,),
                                  _F(GROUP_MA='ROTOR',
                                     DRX=0.0,),),);


balou = 0.05;


NTRIM = 15000.0;

FREQ = (NTRIM / 60.0);

OM = ((FREQ * 2) * pi);

tfin = 5.0;

pdtf = 1e-04;


bal_FY=AFFE_CHAR_MECA(MODELE=MODELE,
                      FORCE_NODALE=_F(GROUP_NO='N_DIS2',
                                      FY=(balou * (OM ** 2)),),);

bal_FZ=AFFE_CHAR_MECA(MODELE=MODELE,
                      FORCE_NODALE=_F(GROUP_NO='N_DIS2',
                                      FZ=(balou * (OM ** 2)),),);
ASSEMBLAGE(MODELE=MODELE,
                CHAM_MATER=CHMAT,
                CARA_ELEM=CARELEM,
                CHARGE=BLOQUAGE,
                NUME_DDL=CO('NUMEDDL'),
                MATR_ASSE=(_F(MATRICE=CO('RIGIDITE'),
                              OPTION='RIGI_MECA',),
                           _F(MATRICE=CO('MASSE'),
                              OPTION='MASS_MECA',),
                           _F(MATRICE=CO('MASDIAG'),
                              OPTION='MASS_MECA_DIAG',),
                           _F(MATRICE=CO('GYRO'),
                              OPTION='MECA_GYRO',),
                           _F(MATRICE=CO('AMOR'),
                              OPTION='AMOR_MECA',),),
                VECT_ASSE=(_F(VECTEUR=CO("bal_Yass"),
                              OPTION='CHAR_MECA',
                              CHARGE=bal_FY),
                           _F(VECTEUR=CO("bal_Zass"),
                              OPTION='CHAR_MECA',
                              CHARGE=bal_FZ),
                           ),
            );


AMOGYRO=COMB_MATR_ASSE(COMB_R=(_F(MATR_ASSE=GYRO,
                                  COEF_R=OM,),
                               _F(MATR_ASSE=AMOR,
                                  COEF_R=1.0,),),);

fory = FORMULE(VALE='cos(OM*INST)',
               NOM_PARA='INST',);

forz = FORMULE(VALE='sin(OM*INST)',
               NOM_PARA='INST',);

LINST=DEFI_LIST_REEL(DEBUT=0.0,
                     INTERVALLE=_F(JUSQU_A=tfin,
                                   PAS=pdtf,),);

TRANSI=DYNA_VIBRA(TYPE_CALCUL='TRAN',BASE_CALCUL='PHYS',
                      MODELE=MODELE,
                      CHAM_MATER=CHMAT,
                      CARA_ELEM=CARELEM,
                      MATR_MASS=MASSE,
                      MATR_RIGI=RIGIDITE,
                      MATR_AMOR=AMOGYRO,
                      SCHEMA_TEMPS=_F(SCHEMA='NEWMARK',), 
                      EXCIT=(_F(VECT_ASSE=bal_Yass,
                                FONC_MULT=fory,),
                             _F(VECT_ASSE=bal_Zass,
                                FONC_MULT=forz,),),
                      INCREMENT=_F(LIST_INST=LINST,),);

DZ_DIS2=RECU_FONCTION(RESULTAT=TRANSI,
                      NOM_CHAM='DEPL',
                      NOM_CMP='DZ',
                      GROUP_NO='N_DIS2',
                      INTERPOL='LIN',);

DY_DIS2=RECU_FONCTION(RESULTAT=TRANSI,
                      NOM_CHAM='DEPL',
                      NOM_CMP='DY',
                      GROUP_NO='N_DIS2',
                      INTERPOL='LIN',);

TEST_FONCTION(VALEUR=_F(VALE_CALC=0.000566724403068,
                        VALE_REFE=5.7209999999999997E-4,
                        VALE_PARA=4.9979100000000001,
                        REFERENCE='AUTRE_ASTER',
                        PRECISION=0.02,
                        FONCTION=DY_DIS2,),
              )

TEST_FONCTION(VALEUR=_F(VALE_REFE=5.668E-4,
                        VALE_CALC=5.667244E-4,
                        PRECISION=1.E-3,
                        REFERENCE='AUTRE_ASTER',
                        VALE_PARA=4.99791,
                        FONCTION=DY_DIS2,
                        ),
              )

TEST_FONCTION(VALEUR=_F(VALE_CALC=0.000693973337188,
                        VALE_REFE=7.0229999999999999E-4,
                        VALE_PARA=4.9989299999999997,
                        REFERENCE='AUTRE_ASTER',
                        PRECISION=0.02,
                        FONCTION=DZ_DIS2,),
              )

TEST_FONCTION(VALEUR=_F(VALE_REFE=6.945E-4,
                        VALE_CALC=6.939733E-4,
                        PRECISION=1.E-3,
                        REFERENCE='AUTRE_ASTER',
                        VALE_PARA=4.9989299999999997,
                        FONCTION=DZ_DIS2,
                        ),
              )

FIN();
