# MODIF  DATE 30/08/2010   AUTEUR COURTOIS M.COURTOIS 
# TITRE CALCUL MODAL D'UN ARBRE AVEC PALIERS A CARACTERISTIQUES VARIABLES
#            CONFIGURATION MANAGEMENT OF EDF VERSION
# ======================================================================
# COPYRIGHT (C) 1991 - 2010  EDF R&D                  WWW.CODE-ASTER.ORG
# THIS PROGRAM IS FREE SOFTWARE; YOU CAN REDISTRIBUTE IT AND/OR MODIFY  
# IT UNDER THE TERMS OF THE GNU GENERAL PUBLIC LICENSE AS PUBLISHED BY  
# THE FREE SOFTWARE FOUNDATION; EITHER VERSION 2 OF THE LICENSE, OR     
# (AT YOUR OPTION) ANY LATER VERSION.                                                    
#                                                                       
# THIS PROGRAM IS DISTRIBUTED IN THE HOPE THAT IT WILL BE USEFUL, BUT   
# WITHOUT ANY WARRANTY; WITHOUT EVEN THE IMPLIED WARRANTY OF            
# MERCHANTABILITY OR FITNESS FOR A PARTICULAR PURPOSE. SEE THE GNU      
# GENERAL PUBLIC LICENSE FOR MORE DETAILS.                              
#                                                                       
# YOU SHOULD HAVE RECEIVED A COPY OF THE GNU GENERAL PUBLIC LICENSE     
# ALONG WITH THIS PROGRAM; IF NOT, WRITE TO EDF R&D CODE_ASTER,         
#    1 AVENUE DU GENERAL DE GAULLE, 92141 CLAMART CEDEX, FRANCE.        
# ======================================================================
# sdll128a.para = tps_job 900 mem_job 512Mo ncpus 1 liste_test S
# CAS_TEST__:SDLL128A
#

import numpy as NP
from Utilitai.Table import Table

DEBUT(CODE=_F(NOM='SDLL128A',
              NIV_PUB_WEB='INTERNET',
              VISU_EFICAS='OUI',),
              PAR_LOT='NON',
              DEBUG=_F(SDVERI='OUI'),);

DEBV=5000.0;
FINV=6500.0;
PASV = 250.0;
VIT=NP.arange(DEBV,FINV+1,PASV);
nbV=len(VIT);
nbF=12;
print nbV
L_VITROT=[VIT[ii]*pi/30. for ii in range(nbV)];

VA={}
cara=[None]*nbV
RIGI=[None]*nbV
MASS=[None]*nbV
AMOR=[None]*nbV
GYOM=[None]*nbV
GYAS=[None]*nbV
NUME=[None]*nbV
bloc=[None]*nbV

L_INTERP=DEFI_LIST_REEL(DEBUT=DEBV,
                        INTERVALLE=_F(JUSQU_A=FINV,
                                      PAS=PASV,),);

K1YY=DEFI_FONCTION(NOM_PARA='INST',
                   VALE=(5000.0, 0.9000000e+08,
                         6500.0, 1.0000000e+08,),
                   PROL_DROITE='CONSTANT',
                   PROL_GAUCHE='EXCLU',
                   );

K1YYL=CALC_FONC_INTERP(FONCTION=K1YY,
                       LIST_PARA=L_INTERP,
                       NOM_PARA='INST',
                       NOM_RESU='K1YY',
                       INTERPOL='LIN',);

TABK1YY=CREA_TABLE(FONCTION=_F(FONCTION=K1YYL, ))

MODK1YY=NP.zeros(nbV)

i=0
for kk in range(0,nbV,1) :
    VA['K1YY',i]=TABK1YY['K1YY',kk+1]
    i=i+1

K1YZ=DEFI_FONCTION(NOM_PARA='INST',
                   NOM_RESU='K1YZ',
                   VALE=(5000.0, 0.9000000e+05,
                         6500.0, 1.5000000e+05,),
                   PROL_DROITE='CONSTANT',
                   PROL_GAUCHE='CONSTANT',
                   );

K1YZL=CALC_FONC_INTERP(FONCTION=K1YZ,
                       LIST_PARA=L_INTERP,
                       NOM_PARA='INST',
                       NOM_RESU='K1YZ',
                       INTERPOL='LIN',);

TABK1YZ=CREA_TABLE(FONCTION=_F(FONCTION=K1YZL, ))

MODK1YZ=NP.zeros(nbV)

i=0
for kk in range(0,nbV,1) :
    VA['K1YZ',i]=TABK1YZ['K1YZ',kk+1]
    i=i+1

K1ZY=DEFI_FONCTION(NOM_PARA='INST',
                   NOM_RESU='K1ZY',
                   VALE=(5000.0, -0.9000000e+05,
                         6500.0, -1.5000000e+05,),
                   PROL_DROITE='CONSTANT',
                   PROL_GAUCHE='CONSTANT',
                   );

K1ZYL=CALC_FONC_INTERP(FONCTION=K1ZY,
                       LIST_PARA=L_INTERP,
                       NOM_PARA='INST',
                       NOM_RESU='K1ZY',
                       INTERPOL='LIN',);

TABK1ZY=CREA_TABLE(FONCTION=_F(FONCTION=K1ZYL, ))

MODK1ZY=NP.zeros(nbV)

i=0
for kk in range(0,nbV,1) :
    VA['K1ZY',i]=TABK1ZY['K1ZY',kk+1]
    i=i+1

K1ZZ=DEFI_FONCTION(NOM_PARA='INST',
                   NOM_RESU='K1ZZ',
                   VALE=(5000.0, 5.0000000e+08,
                         6500.0, 4.0000000e+08,),
                   PROL_DROITE='CONSTANT',
                   PROL_GAUCHE='CONSTANT',
                   );

K1ZZL=CALC_FONC_INTERP(FONCTION=K1ZZ,
                       LIST_PARA=L_INTERP,
                       NOM_PARA='INST',
                       NOM_RESU='K1ZZ',
                       INTERPOL='LIN',);

TABK1ZZ=CREA_TABLE(FONCTION=_F(FONCTION=K1ZZL, ))

MODK1ZZ=NP.zeros(nbV)

i=0
for kk in range(0,nbV,1) :
    VA['K1ZZ',i]=TABK1ZZ['K1ZZ',kk+1]
    i=i+1

C1YY=DEFI_FONCTION(NOM_PARA='INST',
                   NOM_RESU='C1YY',
                   VALE=(5000.0, 1.5000000e+05,
                         6500.0, 1.3000000e+05,),
                   PROL_DROITE='CONSTANT',
                   PROL_GAUCHE='CONSTANT',
                   );

C1YYL=CALC_FONC_INTERP(FONCTION=C1YY,
                       LIST_PARA=L_INTERP,
                       NOM_PARA='INST',
                       NOM_RESU='C1YY',
                       INTERPOL='LIN',);

TABC1YY=CREA_TABLE(FONCTION=_F(FONCTION=C1YYL, ))

MODC1YY=NP.zeros(nbV)

i=0
for kk in range(0,nbV,1) :
    VA['C1YY',i]=TABC1YY['C1YY',kk+1]
    i=i+1

C1YZ=DEFI_FONCTION(NOM_PARA='INST',
                   NOM_RESU='C1YZ',
                   VALE=(5000.0, -1.0000000e+02,
                         6500.0, -1.0000000e+02,),
                   PROL_DROITE='CONSTANT',
                   PROL_GAUCHE='CONSTANT',
                   );

C1YZL=CALC_FONC_INTERP(FONCTION=C1YZ,
                       LIST_PARA=L_INTERP,
                       NOM_PARA='INST',
                       NOM_RESU='C1YZ',
                       INTERPOL='LIN',);

TABC1YZ=CREA_TABLE(FONCTION=_F(FONCTION=C1YZL, ))

MODC1YZ=NP.zeros(nbV)

i=0
for kk in range(0,nbV,1) :
    VA['C1YZ',i]=TABC1YZ['C1YZ',kk+1]
    i=i+1

C1ZY=DEFI_FONCTION(NOM_PARA='INST',
                   NOM_RESU='C1ZY',
                   VALE=(5000.0, 1.0000000e+02,
                         6500.0, 1.0000000e+02,),
                   PROL_DROITE='CONSTANT',
                   PROL_GAUCHE='CONSTANT',
                   );

C1ZYL=CALC_FONC_INTERP(FONCTION=C1ZY,
                       LIST_PARA=L_INTERP,
                       NOM_PARA='INST',
                       NOM_RESU='C1ZY',
                       INTERPOL='LIN',);

TABC1ZY=CREA_TABLE(FONCTION=_F(FONCTION=C1ZYL, ))

MODC1ZY=NP.zeros(nbV)

i=0
for kk in range(0,nbV,1) :
    VA['C1ZY',i]=TABC1ZY['C1ZY',kk+1]
    i=i+1

C1ZZ=DEFI_FONCTION(NOM_PARA='INST',
                   NOM_RESU='C1ZZ',
                   VALE=(5000.0, 4.5000000e+05,
                         6500.0, 3.3000000e+05,),
                   PROL_DROITE='CONSTANT',
                   PROL_GAUCHE='CONSTANT',
                   );

C1ZZL=CALC_FONC_INTERP(FONCTION=C1ZZ,
                       LIST_PARA=L_INTERP,
                       NOM_PARA='INST',
                       NOM_RESU='C1ZZ',
                       INTERPOL='LIN',);

TABC1ZZ=CREA_TABLE(FONCTION=_F(FONCTION=C1ZZL, ))

MODC1ZZ=NP.zeros(nbV)

i=0
for kk in range(0,nbV,1) :
    VA['C1ZZ',i]=TABC1ZZ['C1ZZ',kk+1]
    i=i+1

K2YY=DEFI_FONCTION(NOM_PARA='INST',
                   NOM_RESU='K2YY',
                   VALE=(5000.0, 0.6000000e+08,
                         6500.0, 0.7000000e+08,),
                   PROL_DROITE='CONSTANT',
                   PROL_GAUCHE='CONSTANT',
                   );

K2YYL=CALC_FONC_INTERP(FONCTION=K2YY,
                       LIST_PARA=L_INTERP,
                       NOM_PARA='INST',
                       NOM_RESU='K2YY',
                       INTERPOL='LIN',);

TABK2YY=CREA_TABLE(FONCTION=_F(FONCTION=K2YYL, ))

MODK2YY=NP.zeros(nbV)

i=0
for kk in range(0,nbV,1) :
    VA['K2YY',i]=TABK2YY['K2YY',kk+1]
    i=i+1

K2YZ=DEFI_FONCTION(NOM_PARA='INST',
                   NOM_RESU='K2YZ',
                   VALE=(5000.0, 0.8000000e+05,
                         6500.0, 1.3000000e+05,),
                   PROL_DROITE='CONSTANT',
                   PROL_GAUCHE='CONSTANT',
                   );

K2YZL=CALC_FONC_INTERP(FONCTION=K2YZ,
                       LIST_PARA=L_INTERP,
                       NOM_PARA='INST',
                       NOM_RESU='K2YZ',
                       INTERPOL='LIN',);

TABK2YZ=CREA_TABLE(FONCTION=_F(FONCTION=K2YZL, ))

MODK2YZ=NP.zeros(nbV)

i=0
for kk in range(0,nbV,1) :
    VA['K2YZ',i]=TABK2YZ['K2YZ',kk+1]
    i=i+1

K2ZY=DEFI_FONCTION(NOM_PARA='INST',
                   NOM_RESU='K2ZY',
                   VALE=(5000.0, -0.8000000e+05,
                         6500.0, -1.3000000e+05,),
                   PROL_DROITE='CONSTANT',
                   PROL_GAUCHE='CONSTANT',
                   );

K2ZYL=CALC_FONC_INTERP(FONCTION=K2ZY,
                       LIST_PARA=L_INTERP,
                       NOM_PARA='INST',
                       NOM_RESU='K2ZY',
                       INTERPOL='LIN',);

TABK2ZY=CREA_TABLE(FONCTION=_F(FONCTION=K2ZYL, ))

MODK2ZY=NP.zeros(nbV)

i=0
for kk in range(0,nbV,1) :
    VA['K2ZY',i]=TABK2ZY['K2ZY',kk+1]
    i=i+1

K2ZZ=DEFI_FONCTION(NOM_PARA='INST',
                   NOM_RESU='K2ZZ',
                   VALE=(5000.0, 1.5000000e+08,
                         6500.0, 1.4000000e+08,),
                   PROL_DROITE='CONSTANT',
                   PROL_GAUCHE='CONSTANT',
                   );

K2ZZL=CALC_FONC_INTERP(FONCTION=K2ZZ,
                       LIST_PARA=L_INTERP,
                       NOM_PARA='INST',
                       NOM_RESU='K2ZZ',
                       INTERPOL='LIN',);

TABK2ZZ=CREA_TABLE(FONCTION=_F(FONCTION=K2ZZL, ))

MODK2ZZ=NP.zeros(nbV)

i=0
for kk in range(0,nbV,1) :
    VA['K2ZZ',i]=TABK2ZZ['K2ZZ',kk+1]
    i=i+1

C2YY=DEFI_FONCTION(NOM_PARA='INST',
                   NOM_RESU='C2YY',
                   VALE=(5000.0, 1.2000000e+05,
                         6500.0, 1.0000000e+05,),
                   PROL_DROITE='CONSTANT',
                   PROL_GAUCHE='CONSTANT',
                   );

C2YYL=CALC_FONC_INTERP(FONCTION=C2YY,
                       LIST_PARA=L_INTERP,
                       NOM_PARA='INST',
                       NOM_RESU='C2YY',
                       INTERPOL='LIN',);

TABC2YY=CREA_TABLE(FONCTION=_F(FONCTION=C2YYL, ))

MODC2YY=NP.zeros(nbV)

i=0
for kk in range(0,nbV,1) :
    VA['C2YY',i]=TABC2YY['C2YY',kk+1]
    i=i+1

C2YZ=DEFI_FONCTION(NOM_PARA='INST',
                   NOM_RESU='C2YZ',
                   VALE=(5000.0, -1.0000000e+02,
                         6500.0, -1.0000000e+02,),
                   PROL_DROITE='CONSTANT',
                   PROL_GAUCHE='CONSTANT',
                   );

C2YZL=CALC_FONC_INTERP(FONCTION=C2YZ,
                       LIST_PARA=L_INTERP,
                       NOM_PARA='INST',
                       NOM_RESU='C2YZ',
                       INTERPOL='LIN',);

TABC2YZ=CREA_TABLE(FONCTION=_F(FONCTION=C2YZL, ))

MODC2YZ=NP.zeros(nbV)

i=0
for kk in range(0,nbV,1) :
    VA['C2YZ',i]=TABC2YZ['C2YZ',kk+1]
    i=i+1

C2ZY=DEFI_FONCTION(NOM_PARA='INST',
                   NOM_RESU='C2ZY',
                   VALE=(5000.0, 1.0000000e+02,
                         6500.0, 1.0000000e+02,),
                   PROL_DROITE='CONSTANT',
                   PROL_GAUCHE='CONSTANT',
                   );

C2ZYL=CALC_FONC_INTERP(FONCTION=C2ZY,
                       LIST_PARA=L_INTERP,
                       NOM_PARA='INST',
                       NOM_RESU='C2ZY',
                       INTERPOL='LIN',);

TABC2ZY=CREA_TABLE(FONCTION=_F(FONCTION=C2ZYL, ))

MODC2ZY=NP.zeros(nbV)

i=0
for kk in range(0,nbV,1) :
    VA['C2ZY',i]=TABC2ZY['C2ZY',kk+1]
    i=i+1

C2ZZ=DEFI_FONCTION(NOM_PARA='INST',
                   NOM_RESU='C2ZZ',
                   VALE=(5000.0, 1.9000000e+05,
                         6500.0, 1.5000000e+05,),
                   PROL_DROITE='CONSTANT',
                   PROL_GAUCHE='CONSTANT',
                   );

C2ZZL=CALC_FONC_INTERP(FONCTION=C2ZZ,
                       LIST_PARA=L_INTERP,
                       NOM_PARA='INST',
                       NOM_RESU='C2ZZ',
                       INTERPOL='LIN',);

TABC2ZZ=CREA_TABLE(FONCTION=_F(FONCTION=C2ZZL, ))

MODC2ZZ=NP.zeros(nbV)

i=0
for kk in range(0,nbV,1) :
    VA['C2ZZ',i]=TABC2ZZ['C2ZZ',kk+1]
    i=i+1


mail=LIRE_MAILLAGE();

# ---------------------
# DEFINITION DU MATERIAU
# ---------------------
acier=DEFI_MATERIAU(ELAS=_F(E=2.e11,
                            NU=0.3,
                            RHO=7800,),);

# ---------------------
# AFFECTATION DU MODELE
# ---------------------
modele=AFFE_MODELE(MAILLAGE=mail,
                   AFFE=(_F(GROUP_MA='ROTOR',
                            PHENOMENE='MECANIQUE',
                            MODELISATION='POU_D_T',),
                         _F(GROUP_MA=('DISQ1','DISQ2','DISQ3','PALIER1','PALIER2'),
                            PHENOMENE='MECANIQUE',
                            MODELISATION='DIS_TR',),),);

# -----------------------
# AFFECTATION DU MATERIAU
# -----------------------
chmat=AFFE_MATERIAU(MAILLAGE=mail,
                    AFFE=_F(GROUP_MA='ROTOR',
                            MATER=acier,),);

for kk in range(0,nbV,1) :

   # --------------------------------
   # DEF DES SECTIONS et des RAIDEURS
   # --------------------------------
   OM=L_VITROT[kk]
   nom = 'OM_'+str(kk)
   cara[kk]=AFFE_CARA_ELEM(MODELE=modele,
                    POUTRE=(_F(GROUP_MA='SA1',
                              SECTION='CERCLE',
                              CARA=('R','EP'),
                              VALE=(0.08,0.02,),),
                                     _F(GROUP_MA='SA2',
                              SECTION='CERCLE',
                              CARA='R',
                              VALE=0.08,),
                            _F(GROUP_MA='SA3',
                              SECTION='CERCLE',
                              CARA='R',
                              VALE=0.045,),
                                          _F(GROUP_MA='SA4',
                              SECTION='CERCLE',
                              CARA='R',
                              VALE=0.03,),),
                    DISCRET=(_F(CARA='M_TR_D_N',
                                GROUP_MA='DISQ1',
                                VALE=(2.00E+01,4.00E-01, 
                                2.00E-01,2.00E-01,0,0,0,0,0,0,),),
                             _F(CARA='M_TR_D_N',
                                GROUP_MA='DISQ2',
                                VALE=(1.70E+01,3.40E-01, 
                                1.70E-01,1.70E-01,0,0,0,0,0,0,),),
                             _F(CARA='M_TR_D_N',
                                GROUP_MA='DISQ3',
                                VALE=(1.00E+01,3.00E-02, 
                                1.50E-02,1.50E-02,0,0,0,0,0,0,),),
                                            _F(GROUP_MA='PALIER1',
                                   CARA='K_TR_N',
                                   SYME='NON',
                                   VALE = ( 0.,   0.,   0.,   0.,   0.,   0.,  0.,   VA['K1YY',kk],   VA['K1ZY',kk],   0.,
                                   0.,   0.,   0.,   VA['K1YZ',kk],   VA['K1ZZ',kk],   0.,   0.,   0.,   0.,   0.,
                                   0.,   0.,   0.,   0.,   0.,   0.,   0.,   0.,   0.,   0.,
                                   0.,   0.,   0.,   0.,   0.,   0.,),),
                             _F(GROUP_MA='PALIER1',
                                   CARA='A_TR_N',
                                   SYME='NON',
                                   VALE = ( 0.,   0.,   0.,   0.,   0.,   0.,  0.,   VA['C1YY',kk],   VA['C1ZY',kk],   0.,
                                   0.,   0.,   0.,   VA['C1YZ',kk],   VA['C1ZZ',kk],   0.,   0.,   0.,   0.,   0.,
                                   0.,   0.,   0.,   0.,   0.,   0.,   0.,   0.,   0.,   0.,
                                   0.,   0.,   0.,   0.,   0.,   0.,),),
                             _F(GROUP_MA='PALIER2',
                                   CARA='K_TR_N',
                                   SYME='NON',
                                   VALE = ( 0.,   0.,   0.,   0.,   0.,   0.,  0.,   VA['K2YY',kk],   VA['K2ZY',kk],   0.,
                                   0.,   0.,   0.,   VA['K2YZ',kk],   VA['K2ZZ',kk],   0.,   0.,   0.,   0.,   0.,
                                   0.,   0.,   0.,   0.,   0.,   0.,   0.,   0.,   0.,   0.,
                                   0.,   0.,   0.,   0.,   0.,   0.,),),
                             _F(GROUP_MA='PALIER2',
                                   CARA='A_TR_N',
                                   SYME='NON',
                                   VALE = ( 0.,   0.,   0.,   0.,   0.,   0.,  0.,   VA['C2YY',kk],   VA['C2ZY',kk],   0.,
                                   0.,   0.,   0.,   VA['C2YZ',kk],   VA['C2ZZ',kk],   0.,   0.,   0.,   0.,   0.,
                                   0.,   0.,   0.,   0.,   0.,   0.,   0.,   0.,   0.,   0.,
                                   0.,   0.,   0.,   0.,   0.,   0.,),),
                           )
                        );

   # ------------------
   # CONDITIONS AUX LIMITES
   # ------------------
   bloc[kk]=AFFE_CHAR_MECA(MODELE=modele,
                        DDL_IMPO=(_F(GROUP_NO=('PALIER1',),
                                     DX=0,
                                     ),))
                                    
   # --------------------------------
   # MATRICES ASSEMBLEES K, M
   # --------------------------------
   
   RIGI[kk]=CO('RIGI_%d' % (kk))
   MASS[kk]=CO('MASS_%d' % (kk))
   AMOR[kk]=CO('AMOR_%d' % (kk))
   GYAS[kk]=CO('GYAS_%d' % (kk))
   NUME[kk]=CO('NUME_%d' % (kk))
   
   MACRO_MATR_ASSE(MODELE=modele,
                CHAM_MATER=chmat,
                CARA_ELEM=cara[kk],
                CHARGE=bloc[kk],
                NUME_DDL=NUME[kk],
                MATR_ASSE=(_F(MATRICE=RIGI[kk],
                              OPTION='RIGI_MECA',),
                           _F(MATRICE=MASS[kk],
                              OPTION='MASS_MECA',),
                           _F(MATRICE=GYAS[kk],
                              OPTION='MECA_GYRO',),
                           _F(MATRICE=AMOR[kk],
                              OPTION='AMOR_MECA',),),);

_mod=[None]*nbV;

tab=Table()
for kk in range(0,nbV):
   OM=L_VITROT[kk]
   nom = 'OM_'+str(kk)

   # ----------------------------------
   # Ajout des effets gyroscopiques w*G
   # dans la matrice d amortissement C
   # ----------------------------------
   GYOM[kk]=COMB_MATR_ASSE(COMB_R=(_F(MATR_ASSE=GYAS[kk], COEF_R=OM,),
                                   _F(MATR_ASSE=AMOR[kk], COEF_R=1.,),))

   _mod[kk]=MODE_ITER_SIMULT(MATR_A=RIGI[kk],
                             MATR_B=MASS[kk],
                             MATR_C=GYOM[kk],
                             METHODE='QZ',
                             CALC_FREQ=_F(OPTION='CENTRE',FREQ=10.,NMAX_FREQ=nbF,),
                             VERI_MODE=_F(PREC_SHIFT=5.0000000000000001E-3,
                                          STOP_ERREUR='NON',
                                          STURM='NON',
                                          SEUIL=9.9999999999999995E-07),
                             )
   
   tab.append({'NUME_VITE' : kk, 'VITE_ROTA' : OM, 'NOM_OBJET': 'MODE_MECA', 'TYPE_OBJET': 'MODE_MECA', 'NOM_SD' : _mod[kk].nom})

motcles=tab.dict_CREA_TABLE()
tab_out=CREA_TABLE(TYPE_TABLE = 'TABLE_CONTENEUR', **motcles);

lmod=EXTR_TABLE(TYPE_RESU='MODE_MECA',
                TABLE=tab_out,
                NOM_PARA='NOM_SD',
                FILTRE=_F(NOM_PARA='NUME_VITE',VALE_I=3),);

#VITESSE DE ROTATION OMEGA=602.139 RAD/S
TEST_RESU(RESU=(
          _F( RESULTAT = lmod, PARA = 'FREQ',
                CRITERE = 'RELATIF', PRECISION = 1.E-3,
                NUME_ORDRE = 1,  VALE = 1.37125E+02, REFERENCE='NON_REGRESSION',),
          _F( RESULTAT = lmod, PARA = 'AMOR_REDUIT',
                CRITERE = 'RELATIF', PRECISION = 1.E-3,
                NUME_ORDRE = 1,  VALE = 5.26316E-01, REFERENCE='NON_REGRESSION',),
          _F( RESULTAT = lmod, PARA = 'FREQ',
                CRITERE = 'RELATIF', PRECISION = 1.E-3,
                NUME_ORDRE = 2,  VALE = 2.20096E+02, REFERENCE='NON_REGRESSION',),
          _F( RESULTAT = lmod, PARA = 'AMOR_REDUIT',
                CRITERE = 'RELATIF', PRECISION = 1.E-3,
                NUME_ORDRE = 2,  VALE = 1.41478E-01, REFERENCE='NON_REGRESSION',),
          _F( RESULTAT = lmod, PARA = 'FREQ',
                CRITERE = 'RELATIF', PRECISION = 1.E-3,
                NUME_ORDRE = 3,  VALE = 3.19233E+02, REFERENCE='NON_REGRESSION',),
          _F( RESULTAT = lmod, PARA = 'AMOR_REDUIT',
                CRITERE = 'RELATIF', PRECISION = 1.E-3,
                NUME_ORDRE = 3,  VALE = 1.96790E-01, REFERENCE='NON_REGRESSION',),
          _F( RESULTAT = lmod, PARA = 'FREQ',
                CRITERE = 'RELATIF', PRECISION = 1.E-3,
                NUME_ORDRE = 4,  VALE = 3.81056E+02, REFERENCE='NON_REGRESSION',),
          _F( RESULTAT = lmod, PARA = 'AMOR_REDUIT',
                CRITERE = 'RELATIF', PRECISION = 1.E-3,
                NUME_ORDRE = 4,  VALE = 1.93719E-01, REFERENCE='NON_REGRESSION',),
          _F( RESULTAT = lmod, PARA = 'FREQ',
                CRITERE = 'RELATIF', PRECISION = 1.E-3,
                NUME_ORDRE = 5,  VALE = 4.16234E+02, REFERENCE='NON_REGRESSION',),
          _F( RESULTAT = lmod, PARA = 'AMOR_REDUIT',
                CRITERE = 'RELATIF', PRECISION = 1.E-3,
                NUME_ORDRE = 5,  VALE = 6.50228E-01, REFERENCE='NON_REGRESSION',),
          _F( RESULTAT = lmod, PARA = 'FREQ',
                CRITERE = 'RELATIF', PRECISION = 1.E-3,
                NUME_ORDRE = 6,  VALE = 5.81803E+02, REFERENCE='NON_REGRESSION',),
#          _F( RESULTAT = lmod, PARA = 'AMOR_REDUIT',
#                CRITERE = 'RELATIF', PRECISION = 1.E-3,
#                NUME_ORDRE = 6,  VALE = 0.0, REFERENCE='NON_REGRESSION',),
          _F( RESULTAT = lmod, PARA = 'FREQ',
                CRITERE = 'RELATIF', PRECISION = 1.E-3,
                NUME_ORDRE = 7,  VALE = 1.49172E+03, REFERENCE='NON_REGRESSION',),
          _F( RESULTAT = lmod, PARA = 'AMOR_REDUIT',
                CRITERE = 'RELATIF', PRECISION = 1.E-3,
                NUME_ORDRE = 7,  VALE = 1.50093E-01, REFERENCE='NON_REGRESSION',),
          _F( RESULTAT = lmod, PARA = 'FREQ',
                CRITERE = 'RELATIF', PRECISION = 1.E-3,
                NUME_ORDRE = 8,  VALE = 1.55633E+03, REFERENCE='NON_REGRESSION',),
          _F( RESULTAT = lmod, PARA = 'AMOR_REDUIT',
                CRITERE = 'RELATIF', PRECISION = 1.E-3,
                NUME_ORDRE = 8,  VALE = 1.21725E-01, REFERENCE='NON_REGRESSION',),
          _F( RESULTAT = lmod, PARA = 'FREQ',
                CRITERE = 'RELATIF', PRECISION = 1.E-3,
                NUME_ORDRE = 9,  VALE = 1.67224E+03, REFERENCE='NON_REGRESSION',),
#          _F( RESULTAT = lmod, PARA = 'AMOR_REDUIT',
#                CRITERE = 'RELATIF', PRECISION = 1.E-3,
#                NUME_ORDRE = 9,  VALE = 0.0, REFERENCE='NON_REGRESSION',),
          _F( RESULTAT = lmod, PARA = 'FREQ',
                CRITERE = 'RELATIF', PRECISION = 1.E-3,
                NUME_ORDRE = 10,  VALE = 1.90680E+03, REFERENCE='NON_REGRESSION',),
          _F( RESULTAT = lmod, PARA = 'AMOR_REDUIT',
                CRITERE = 'RELATIF', PRECISION = 1.E-3,
                NUME_ORDRE = 10,  VALE = 3.91891E-01, REFERENCE='NON_REGRESSION',),
            ),)

cara_ele=AFFE_CARA_ELEM(MODELE=modele,
                    POUTRE=(_F(GROUP_MA='SA1',
                              SECTION='CERCLE',
                              CARA=('R','EP'),
                              VALE=(0.08,0.02,),),
                            _F(GROUP_MA='SA2',
                              SECTION='CERCLE',
                              CARA='R',
                              VALE=0.08,),
                            _F(GROUP_MA='SA3',
                              SECTION='CERCLE',
                              CARA='R',
                              VALE=0.045,),
                            _F(GROUP_MA='SA4',
                              SECTION='CERCLE',
                              CARA='R',
                              VALE=0.03,),),
                    DISCRET=(_F(CARA='M_TR_D_N',
                                GROUP_MA='DISQ1',
                                VALE=(2.00E+01,4.00E-01, 
                                2.00E-01,2.00E-01,0,0,0,0,0,0,),),
                             _F(CARA='M_TR_D_N',
                                GROUP_MA='DISQ2',
                                VALE=(1.70E+01,3.40E-01, 
                                1.70E-01,1.70E-01,0,0,0,0,0,0,),),
                             _F(CARA='M_TR_D_N',
                                GROUP_MA='DISQ3',
                                VALE=(1.00E+01,3.00E-02, 
                                1.50E-02,1.50E-02,0,0,0,0,0,0,),),
                             _F(GROUP_MA='PALIER1',
                                   CARA='K_TR_N',
                                   SYME='NON',
                                   VALE = ( 0.,   0.,   0.,   0.,   0.,   0.,  0.,   (VA['K1YY',0]+VA['K1YY',6])/2,   (VA['K1ZY',0]+VA['K1ZY',6])/2,   0.,
                                   0.,   0.,   0.,   (VA['K1YZ',0]+VA['K1YZ',6])/2,  (VA['K1ZZ',0]+VA['K1ZZ',6])/2,   0.,   0.,   0.,   0.,   0.,
                                   0.,   0.,   0.,   0.,   0.,   0.,   0.,   0.,   0.,   0.,
                                   0.,   0.,   0.,   0.,   0.,   0.,),),
                             _F(GROUP_MA='PALIER1',
                                   CARA='A_TR_N',
                                   SYME='NON',
                                   VALE = ( 0.,   0.,   0.,   0.,   0.,   0.,  0.,   (VA['C1YY',0]+VA['C1YY',6])/2,   (VA['C1ZY',0]+VA['C1ZY',6])/2,   0.,
                                   0.,   0.,   0.,   (VA['C1YZ',0]+VA['C1YZ',6])/2,  (VA['C1ZZ',0]+VA['C1ZZ',6])/2,   0.,   0.,   0.,   0.,   0.,
                                   0.,   0.,   0.,   0.,   0.,   0.,   0.,   0.,   0.,   0.,
                                   0.,   0.,   0.,   0.,   0.,   0.,),),
                             _F(GROUP_MA='PALIER2',
                                   CARA='K_TR_N',
                                   SYME='NON',
                                   VALE = ( 0.,   0.,   0.,   0.,   0.,   0.,  0.,   (VA['K2YY',0]+VA['K2YY',6])/2,   (VA['K2ZY',0]+VA['K2ZY',6])/2,   0.,
                                   0.,   0.,   0.,   (VA['K2YZ',0]+VA['K2YZ',6])/2,  (VA['K2ZZ',0]+VA['K2ZZ',6])/2,   0.,   0.,   0.,   0.,   0.,
                                   0.,   0.,   0.,   0.,   0.,   0.,   0.,   0.,   0.,   0.,
                                   0.,   0.,   0.,   0.,   0.,   0.,),),
                             _F(GROUP_MA='PALIER2',
                                   CARA='A_TR_N',
                                   SYME='NON',
                                   VALE = ( 0.,   0.,   0.,   0.,   0.,   0.,  0.,   (VA['C2YY',0]+VA['C2YY',6])/2,   (VA['C2ZY',0]+VA['C2ZY',6])/2,   0.,
                                   0.,   0.,   0.,   (VA['C2YZ',0]+VA['C2YZ',6])/2,  (VA['C2ZZ',0]+VA['C2ZZ',6])/2,   0.,   0.,   0.,   0.,   0.,
                                   0.,   0.,   0.,   0.,   0.,   0.,   0.,   0.,   0.,   0.,
                                   0.,   0.,   0.,   0.,   0.,   0.,),),
                           )
                        );

# ------------------
# CONDITIONS AUX LIMITES
# ------------------
blocage=AFFE_CHAR_MECA(MODELE=modele,
                        DDL_IMPO=(_F(GROUP_NO=('PALIER1',),
                                     DX=0,
                                     ),))
                                    
# --------------------------------
#MATRICES ASSEMBLEES K, M
# --------------------------------
   
MACRO_MATR_ASSE(MODELE=modele,
                CHAM_MATER=chmat,
                CARA_ELEM=cara_ele,
                CHARGE=blocage,
                NUME_DDL=CO('NUMEDDL'),
                MATR_ASSE=(_F(MATRICE=CO('RIGIDITE'),
                              OPTION='RIGI_MECA',),
                           _F(MATRICE=CO('MASSE'),
                              OPTION='MASS_MECA',),
                           _F(MATRICE=CO('AMOR'),
                              OPTION='AMOR_MECA',),),);

GYELEM=CALC_MATR_ELEM(OPTION='MECA_GYRO',
                      MODELE=modele,
                      CHAM_MATER=chmat,
                      CARA_ELEM=cara_ele,);

GYASS=ASSE_MATRICE(MATR_ELEM=GYELEM,
                   NUME_DDL=NUMEDDL,);

OM=(L_VITROT[0]+L_VITROT[6])/2

GYOM=COMB_MATR_ASSE(COMB_R=(_F(MATR_ASSE=GYASS, COEF_R=OM,),
                            _F(MATR_ASSE=AMOR, COEF_R=1.,),))

MODES=MODE_ITER_SIMULT(MATR_A=RIGIDITE,
                 MATR_B=MASSE,
                 MATR_C=GYOM,
                 METHODE='QZ',
                 CALC_FREQ=_F(OPTION='CENTRE',FREQ=10.,NMAX_FREQ=nbF,),
                 VERI_MODE=_F(PREC_SHIFT=5.0000000000000001E-3,
                              STOP_ERREUR='NON',
                              STURM='NON',
                              SEUIL=9.9999999999999995E-07),
                             )

#VITESSE DE ROTATION OMEGA=602.139 RAD/S
TEST_RESU(RESU=(
          _F( RESULTAT = MODES, PARA = 'FREQ',
                CRITERE = 'RELATIF', PRECISION = 1.E-3,
                NUME_ORDRE = 1,  VALE = 1.37125E+02, REFERENCE='NON_REGRESSION',),
          _F( RESULTAT = MODES, PARA = 'AMOR_REDUIT',
                CRITERE = 'RELATIF', PRECISION = 1.E-3,
                NUME_ORDRE = 1,  VALE = 5.26316E-01, REFERENCE='NON_REGRESSION',),
          _F( RESULTAT = MODES, PARA = 'FREQ',
                CRITERE = 'RELATIF', PRECISION = 1.E-3,
                NUME_ORDRE = 2,  VALE = 2.20096E+02, REFERENCE='NON_REGRESSION',),
          _F( RESULTAT = MODES, PARA = 'AMOR_REDUIT',
                CRITERE = 'RELATIF', PRECISION = 1.E-3,
                NUME_ORDRE = 2,  VALE = 1.41478E-01, REFERENCE='NON_REGRESSION',),
          _F( RESULTAT = MODES, PARA = 'FREQ',
                CRITERE = 'RELATIF', PRECISION = 1.E-3,
                NUME_ORDRE = 3,  VALE = 3.19233E+02, REFERENCE='NON_REGRESSION',),
          _F( RESULTAT = MODES, PARA = 'AMOR_REDUIT',
                CRITERE = 'RELATIF', PRECISION = 1.E-3,
                NUME_ORDRE = 3,  VALE = 1.96790E-01, REFERENCE='NON_REGRESSION',),
          _F( RESULTAT = MODES, PARA = 'FREQ',
                CRITERE = 'RELATIF', PRECISION = 1.E-3,
                NUME_ORDRE = 4,  VALE = 3.81056E+02, REFERENCE='NON_REGRESSION',),
          _F( RESULTAT = MODES, PARA = 'AMOR_REDUIT',
                CRITERE = 'RELATIF', PRECISION = 1.E-3,
                NUME_ORDRE = 4,  VALE = 1.93719E-01, REFERENCE='NON_REGRESSION',),
          _F( RESULTAT = MODES, PARA = 'FREQ',
                CRITERE = 'RELATIF', PRECISION = 1.E-3,
                NUME_ORDRE = 5,  VALE = 4.16234E+02, REFERENCE='NON_REGRESSION',),
          _F( RESULTAT = MODES, PARA = 'AMOR_REDUIT',
                CRITERE = 'RELATIF', PRECISION = 1.E-3,
                NUME_ORDRE = 5,  VALE = 6.50228E-01, REFERENCE='NON_REGRESSION',),
          _F( RESULTAT = MODES, PARA = 'FREQ',
                CRITERE = 'RELATIF', PRECISION = 1.E-3,
                NUME_ORDRE = 6,  VALE = 5.81803E+02, REFERENCE='NON_REGRESSION',),
#          _F( RESULTAT = MODES, PARA = 'AMOR_REDUIT',
#                CRITERE = 'RELATIF', PRECISION = 1.E-3,
#                NUME_ORDRE = 6,  VALE = 0.0, REFERENCE='NON_REGRESSION',),
          _F( RESULTAT = MODES, PARA = 'FREQ',
                CRITERE = 'RELATIF', PRECISION = 1.E-3,
                NUME_ORDRE = 7,  VALE = 1.49172E+03, REFERENCE='NON_REGRESSION',),
          _F( RESULTAT = MODES, PARA = 'AMOR_REDUIT',
                CRITERE = 'RELATIF', PRECISION = 1.E-3,
                NUME_ORDRE = 7,  VALE = 1.50093E-01, REFERENCE='NON_REGRESSION',),
          _F( RESULTAT = MODES, PARA = 'FREQ',
                CRITERE = 'RELATIF', PRECISION = 1.E-3,
                NUME_ORDRE = 8,  VALE = 1.55633E+03, REFERENCE='NON_REGRESSION',),
          _F( RESULTAT = MODES, PARA = 'AMOR_REDUIT',
                CRITERE = 'RELATIF', PRECISION = 1.E-3,
                NUME_ORDRE = 8,  VALE = 1.21725E-01, REFERENCE='NON_REGRESSION',),
          _F( RESULTAT = MODES, PARA = 'FREQ',
                CRITERE = 'RELATIF', PRECISION = 1.E-3,
                NUME_ORDRE = 9,  VALE = 1.67224E+03, REFERENCE='NON_REGRESSION',),
#          _F( RESULTAT = MODES, PARA = 'AMOR_REDUIT',
#                CRITERE = 'RELATIF', PRECISION = 1.E-3,
#                NUME_ORDRE = 9,  VALE = 0.0, REFERENCE='NON_REGRESSION',),
          _F( RESULTAT = MODES, PARA = 'FREQ',
                CRITERE = 'RELATIF', PRECISION = 1.E-3,
                NUME_ORDRE = 10,  VALE = 1.90680E+03, REFERENCE='NON_REGRESSION',),
          _F( RESULTAT = MODES, PARA = 'AMOR_REDUIT',
                CRITERE = 'RELATIF', PRECISION = 1.E-3,
                NUME_ORDRE = 10,  VALE = 3.91891E-01, REFERENCE='NON_REGRESSION',),
            ),)

FIN();
