# TITRE CALCUL D'UNE LIGNE D'ARBRE SANS DISQUE
# ======================================================================
# COPYRIGHT (C) 1991 - 2012  EDF R&D                  WWW.CODE-ASTER.ORG
# THIS PROGRAM IS FREE SOFTWARE; YOU CAN REDISTRIBUTE IT AND/OR MODIFY  
# IT UNDER THE TERMS OF THE GNU GENERAL PUBLIC LICENSE AS PUBLISHED BY  
# THE FREE SOFTWARE FOUNDATION; EITHER VERSION 2 OF THE LICENSE, OR     
# (AT YOUR OPTION) ANY LATER VERSION.                                                    
#                                                                       
# THIS PROGRAM IS DISTRIBUTED IN THE HOPE THAT IT WILL BE USEFUL, BUT   
# WITHOUT ANY WARRANTY; WITHOUT EVEN THE IMPLIED WARRANTY OF            
# MERCHANTABILITY OR FITNESS FOR A PARTICULAR PURPOSE. SEE THE GNU      
# GENERAL PUBLIC LICENSE FOR MORE DETAILS.                              
#                                                                       
# YOU SHOULD HAVE RECEIVED A COPY OF THE GNU GENERAL PUBLIC LICENSE     
# ALONG WITH THIS PROGRAM; IF NOT, WRITE TO EDF R&D CODE_ASTER,         
#    1 AVENUE DU GENERAL DE GAULLE, 92141 CLAMART CEDEX, FRANCE.        
# ======================================================================
# REFERENCE : R.-J. VIBRATIONS DES STRUCTURES pp 235-237
# VALIDATION INFORMATIQUES DES POUTRES A SECTION VARIABLE
# PAR COMPARAISON AVEC UNE POUTRE DROITE
DEBUT(CODE=_F(NIV_PUB_WEB='INTERNET'),DEBUG=_F(SDVERI='OUI'),)

MAIL=LIRE_MAILLAGE()

MODELE=AFFE_MODELE(MAILLAGE=MAIL,
                   AFFE=(_F(GROUP_MA='ROTOR',
                           PHENOMENE='MECANIQUE',
                           MODELISATION='POU_D_E',),
                         )
                       )

ACIER=DEFI_MATERIAU(ELAS=_F(E=2.0E11,
                            NU=0.0,
                            RHO=7800.0,),);



CHMAT=AFFE_MATERIAU(MAILLAGE=MAIL,
                    AFFE=(_F(GROUP_MA='ROTOR',
                            MATER=ACIER,),))

CARELEM=AFFE_CARA_ELEM(MODELE=MODELE,
                       POUTRE=(_F(GROUP_MA='ROTOR',
                                 SECTION='CERCLE',
                                 VARI_SECT='HOMOTHETIQUE',
                                 CARA=('R_DEBUT','R_FIN'),
                                 VALE=(.025,.025),),),
                        )
                                 
                                 
# CONDITIONS AUX LIMITES 

BLOQUAGE=AFFE_CHAR_MECA(MODELE=MODELE,
                        DDL_IMPO=(
                                 _F(GROUP_NO=('PALIER_A','PALIER_B'),
                                     DX=0, DY=0, DZ=0, DRX=0,
                                     ),
                          ))
                                    
#MATRICES ASSEMBLEES K, M ET C

ASSEMBLAGE(MODELE=MODELE,
                CHAM_MATER=CHMAT,
                CARA_ELEM=CARELEM,
                CHARGE=BLOQUAGE,
                NUME_DDL=CO('NUMEDDL'),
                MATR_ASSE=(_F(MATRICE=CO('RIGIDITE'),
                              OPTION='RIGI_MECA',),
                           _F(MATRICE=CO('MASSE'),
                              OPTION='MASS_MECA',),
                           _F(MATRICE=CO('AMOR'),
                              OPTION='AMOR_MECA',),),);


GYELEM=CALC_MATR_ELEM(OPTION='MECA_GYRO',
                      MODELE=MODELE,
                      CHAM_MATER=CHMAT,
                      CARA_ELEM=CARELEM,);


GYASS=ASSE_MATRICE(MATR_ELEM=GYELEM,
                   NUME_DDL=NUMEDDL,);

                    
MODES=CALC_MODES(MATR_RIGI=RIGIDITE,
                 OPTION='BANDE',
                 CALC_FREQ=_F(FREQ=(3.,3000.),
                              ),
                 MATR_MASS=MASSE,
                 )

                                  
TEST_RESU(RESU=(_F(NUME_ORDRE=1,
                   PARA='FREQ',
                   REFERENCE='SOURCE_EXTERNE',
                   RESULTAT=MODES,
                   VALE_CALC=122.747554168,
                   VALE_REFE=122.7475,),
                _F(NUME_ORDRE=3,
                   PARA='FREQ',
                   REFERENCE='SOURCE_EXTERNE',
                   RESULTAT=MODES,
                   VALE_CALC=490.994945202,
                   VALE_REFE=490.98989999999998,),
                _F(NUME_ORDRE=5,
                   PARA='FREQ',
                   REFERENCE='SOURCE_EXTERNE',
                   RESULTAT=MODES,
                   VALE_CALC= 1.10478449E+03,
                   VALE_REFE=1104.7273,),
                _F(NUME_ORDRE=7,
                   PARA='FREQ',
                   REFERENCE='SOURCE_EXTERNE',
                   RESULTAT=MODES,
                   VALE_CALC= 1.96427913E+03,
                   VALE_REFE=1963.9595999999999,),
                ),
          )

OM=10000.

GYOM=COMB_MATR_ASSE(COMB_R=(_F(MATR_ASSE=GYASS, COEF_R=OM,),
                            _F(MATR_ASSE=AMOR, COEF_R=1.,),))


MODEG=CALC_MODES(MATR_RIGI=RIGIDITE,
                 VERI_MODE=_F(SEUIL=2.E-3,
                              ),
                 OPTION='CENTRE',
                 CALC_FREQ=_F(NMAX_FREQ=30,
                              FREQ=1.,
                              ),
                 MATR_AMOR=GYOM,
                 MATR_MASS=MASSE,
                 SOLVEUR_MODAL=_F(METHODE='QZ',
                                  ),
                 )

TEST_RESU(RESU=(_F(NUME_ORDRE=1,
                   PARA='FREQ',
                   REFERENCE='SOURCE_EXTERNE',
                   RESULTAT=MODEG,
                   VALE_CALC=119.754862566,
                   VALE_REFE=119.7548,),
                _F(NUME_ORDRE=2,
                   PARA='FREQ',
                   REFERENCE='SOURCE_EXTERNE',
                   RESULTAT=MODEG,
                   VALE_CALC=125.815033737,
                   VALE_REFE=125.815,),
                _F(NUME_ORDRE=3,
                   PARA='FREQ',
                   REFERENCE='SOURCE_EXTERNE',
                   RESULTAT=MODEG,
                   VALE_CALC=479.024176662,
                   VALE_REFE=479.01909999999998,),
                _F(NUME_ORDRE=4,
                   PARA='FREQ',
                   REFERENCE='SOURCE_EXTERNE',
                   RESULTAT=MODEG,
                   VALE_CALC=503.264861980,
                   VALE_REFE=503.25979999999998,),
                _F(NUME_ORDRE=5,
                   PARA='FREQ',
                   REFERENCE='SOURCE_EXTERNE',
                   RESULTAT=MODEG,
                   VALE_CALC= 1.07785023E+03,
                   VALE_REFE=1077.7931000000001,),
                _F(NUME_ORDRE=6,
                   PARA='FREQ',
                   REFERENCE='SOURCE_EXTERNE',
                   RESULTAT=MODEG,
                   VALE_CALC= 1.13239181E+03,
                   VALE_REFE=1132.3345999999999,),
                _F(NUME_ORDRE=7,
                   PARA='FREQ',
                   REFERENCE='SOURCE_EXTERNE',
                   RESULTAT=MODEG,
                   VALE_CALC= 1.91639580E+03,
                   VALE_REFE=1916.0764999999999,),
                _F(NUME_ORDRE=9,
                   PARA='FREQ',
                   REFERENCE='SOURCE_EXTERNE',
                   RESULTAT=MODEG,
                   VALE_CALC= 2.01335889E+03,
                   VALE_REFE=2013.0392999999999,),
                ),
          )

FIN();
