# TITRE DEFINITION D'UN INTER-SPECTRE D'EXCITATION ANALYTIQUE
# ======================================================================
# COPYRIGHT (C) 1991 - 2012  EDF R&D                  WWW.CODE-ASTER.ORG
# THIS PROGRAM IS FREE SOFTWARE; YOU CAN REDISTRIBUTE IT AND/OR MODIFY  
# IT UNDER THE TERMS OF THE GNU GENERAL PUBLIC LICENSE AS PUBLISHED BY  
# THE FREE SOFTWARE FOUNDATION; EITHER VERSION 2 OF THE LICENSE, OR     
# (AT YOUR OPTION) ANY LATER VERSION.                                                    
#                                                                       
# THIS PROGRAM IS DISTRIBUTED IN THE HOPE THAT IT WILL BE USEFUL, BUT   
# WITHOUT ANY WARRANTY; WITHOUT EVEN THE IMPLIED WARRANTY OF            
# MERCHANTABILITY OR FITNESS FOR A PARTICULAR PURPOSE. SEE THE GNU      
# GENERAL PUBLIC LICENSE FOR MORE DETAILS.                              
#                                                                       
# YOU SHOULD HAVE RECEIVED A COPY OF THE GNU GENERAL PUBLIC LICENSE     
# ALONG WITH THIS PROGRAM; IF NOT, WRITE TO EDF R&D CODE_ASTER,         
#    1 AVENUE DU GENERAL DE GAULLE, 92141 CLAMART CEDEX, FRANCE.        
# ======================================================================
# person_in_charge: irmela.zentner at edf.fr


DEBUT( CODE=_F( NOM = 'SDLL148A',NIV_PUB_WEB='INTERNET'),DEBUG=_F(SDVERI='OUI'))

#------------------------------------------------
# MODELISATION A : EXCITATION SINUSOIDALE SIMPLE
#------------------------------------------------

TUBE=LIRE_MAILLAGE(FORMAT='MED')

MODELE=AFFE_MODELE(  MAILLAGE=TUBE,
                     AFFE=_F(  GROUP_MA = 'MC',
                               PHENOMENE = 'MECANIQUE',
                               MODELISATION = 'POU_D_T'))


CARA=AFFE_CARA_ELEM(MODELE=MODELE,
                    POUTRE=_F(GROUP_MA='MC',
                              SECTION='GENERALE',
                              CARA=('A','IY','IZ',
                                    'AY','AZ','JX',
                                    'RY','RZ','RT',),
                              VALE=(1.26737E-04,2.71577E-09,2.71577E-09,
                                    1.69403E+00,1.69403E+00,5.43155E-09,
                                    7.93900E-03,7.93900E-03,7.93900E-03,),),);

MAT=DEFI_MATERIAU(  ELAS=_F( E = 2.200000E+11,
                             RHO = 8.330000E+03,
                             NU = 3.000000E-01))

CHMAT=AFFE_MATERIAU(   MAILLAGE=TUBE,
                       AFFE=_F(  TOUT = 'OUI',
                                 MATER = MAT))

CHDDL=AFFE_CHAR_MECA(  MODELE=MODELE,
                       DDL_IMPO=(_F(  GROUP_NO = 'EXTREMIT', 
                                      DX=0.0,DY=0.0,DZ=0.0,DRY=0.0),
                                 _F(  GROUP_NO = 'MC', 
                                      DZ=0.0,)))

MELR=CALC_MATR_ELEM( MODELE=MODELE,
                     CHARGE=CHDDL,
                     CARA_ELEM=CARA,
                     CHAM_MATER=CHMAT,
                     OPTION='RIGI_MECA' )

MELM=CALC_MATR_ELEM( MODELE=MODELE,
                     CHARGE=CHDDL,
                     CARA_ELEM=CARA,
                     CHAM_MATER=CHMAT,
                     OPTION='MASS_MECA' )

NUM=NUME_DDL( MATR_RIGI=MELR )


MATRR=ASSE_MATRICE( MATR_ELEM=MELR,
                    NUME_DDL=NUM )

MATRM=ASSE_MATRICE( MATR_ELEM=MELM,
                     NUME_DDL=NUM )

MODES=MODE_ITER_SIMULT( MATR_RIGI=MATRR,
                        MATR_MASS=MATRM,
                        CALC_FREQ=_F( OPTION = 'PLUS_PETITE',
                                      NMAX_FREQ=2),
                        VERI_MODE=_F(STOP_ERREUR='NON',
                                     STURM='NON'),)


MODES=NORM_MODE(reuse=MODES,MODE=MODES,AVEC_CMP='DX')



#----------------------------------------------------#
# VERSION A : SPECTRE D'EXCITATION EN FORME DE SINUS
#----------------------------------------------------#

import numpy as NP
pi = NP.pi
SXX = FORMULE(NOM_PARA=('X1','Y1','Z1','X2','Y2','Z2','FREQ'),
              VALE_C='FREQ*sin(pi*Y1)*sin(pi*Y2)',)

# INTER-SPECTRE AVEC EFFORTS X ET Y CORRELES
INTESPEC=CREA_TABLE(LISTE=(_F(LISTE_K=('SXX'),PARA='FONCTION_C'),
                           _F(LISTE_K=('DX'),PARA='NUME_ORDRE_I'),
                           _F(LISTE_K=('DX'),PARA='NUME_ORDRE_J'),),
                    TYPE_TABLE='TABLE_FONCTION',
                    TITRE='SPECTRE D EXCITATION SINUS');


SPECTRE1=DEFI_SPEC_TURB( SPEC_CORR_CONV_3=_F( TABLE_FONCTION = INTESPEC ),);


SPPROJ=PROJ_SPEC_BASE( SPEC_TURB=SPECTRE1,
                       MODELE_INTERFACE=MODELE,
                       GROUP_MA='BAS',
                       NB_POIN=2,
                       FREQ_INIT= 1 ,
                       FREQ_FIN= 2 ,
                       TOUT_CMP='NON',
                       MODE_MECA=MODES );


#--------------------
# TEST DES RESULTATS
#--------------------

# LES 2 MODES PROPRES CALCULES SONT DE FORME SIN(PI.Y) ET -SIN(2PI.Y)
# L'INTER-SPECTRE D'EXCITATION ANALYTIQUE EST S(Y1,Y2,FREQ)=SIN(PI.Y1).SIN(PI.Y2).FREQ
# POUR FREQ = 1, LES INTER-SECTRES MODAUX VALENT DONC (CALCULES SUR LE GROUPE 'BAS' UNIQUEMENT)
# 1-1 : INT(INT( SIN(PI.Y1)^2*SIN(PI.Y2)^2,Y1,0,0.5),Y2,0,0.5) = (1/4)^2 = 1/4*1/4
# 1-2 : INT(INT( SIN(PI.Y1)^2*SIN(PI.Y2)*-SIN(2PI.Y2),Y1,0,0.5),Y2,0,0.5) = -2/3PI*1/4 = 0.05305
# 2-2 : INT(INT( SIN(PI.Y1)*SIN(2PI.Y1)*SIN(PI.Y2)*SIN(2PI.Y2),Y1,0,0.5),Y2,0,0.5) = -2/3PI*-2/3PI = 0.04503

vale_i=[1,1,2]
vale_j=[1,2,2]
vale_reg = [6.24897199E-02, 5.302983237E-02, 4.50020119E-02]
#on prend la valeur absolue, les vecteurs propres sont definis a un coeff pres
inter = abs(-0.05305)
vale_refe=[0.0625,inter,0.04503]
for ind in range(3):
    if vale_i[ind] == vale_j[ind] :
        REP0=RECU_FONCTION(    INTE_SPEC=SPPROJ,
                                NUME_ORDRE_I=vale_i[ind],
                      )
        TEST_FONCTION(VALEUR=_F(VALE_CALC=vale_reg[ind],
                                VALE_REFE=vale_refe[ind],
                                VALE_PARA=1.0,
                                REFERENCE='ANALYTIQUE',
                                PRECISION=1.E-2,
                                FONCTION=REP0,),
                      )

    else:
        REP0=RECU_FONCTION(    INTE_SPEC=SPPROJ,
                                NUME_ORDRE_I=vale_i[ind],
                                NUME_ORDRE_J=vale_j[ind],
                           )
        TEST_FONCTION(VALEUR=_F(VALE_CALC_C=vale_reg[ind],
                                VALE_REFE_C=vale_refe[ind],
                                VALE_PARA=1.0,
                                REFERENCE='ANALYTIQUE',
                                PRECISION=1.E-2,
                                VALE_ABS='OUI',
                                FONCTION=REP0,),
                      )

    DETRUIRE(CONCEPT=_F(NOM=REP0),
             INFO=1)

FIN( )
