# TITRE REPONSE TEMPORELLE D'UNE POUTRE
# ======================================================================
# COPYRIGHT (C) 1991 - 2015  EDF R&D                  WWW.CODE-ASTER.ORG
# THIS PROGRAM IS FREE SOFTWARE; YOU CAN REDISTRIBUTE IT AND/OR MODIFY
# IT UNDER THE TERMS OF THE GNU GENERAL PUBLIC LICENSE AS PUBLISHED BY
# THE FREE SOFTWARE FOUNDATION; EITHER VERSION 2 OF THE LICENSE, OR
# (AT YOUR OPTION) ANY LATER VERSION.
#
# THIS PROGRAM IS DISTRIBUTED IN THE HOPE THAT IT WILL BE USEFUL, BUT
# WITHOUT ANY WARRANTY; WITHOUT EVEN THE IMPLIED WARRANTY OF
# MERCHANTABILITY OR FITNESS FOR A PARTICULAR PURPOSE. SEE THE GNU
# GENERAL PUBLIC LICENSE FOR MORE DETAILS.
#
# YOU SHOULD HAVE RECEIVED A COPY OF THE GNU GENERAL PUBLIC LICENSE
# ALONG WITH THIS PROGRAM; IF NOT, WRITE TO EDF R&D CODE_ASTER,
#    1 AVENUE DU GENERAL DE GAULLE, 92141 CLAMART CEDEX, FRANCE.
# ======================================================================
#
# A) METHODE DE DEVOGELARE (INTEGRATION SUR BASE MODALE)
#
DEBUT( CODE=_F(NIV_PUB_WEB='INTERNET'),
         BASE=_F(  FICHIER = 'GLOBALE',
                 LONG_REPE = 30000)
,DEBUG=_F(SDVERI='OUI'))

#
#
# LIRE ACCELEROGRAMME FFFF EN R11
#
CENTROA=LIRE_FONCTION(          UNITE=17,
                                  NOM_PARA='INST',
                                  NOM_RESU='ACCEL_SOL',
                                     TITRE='ACCELE - A ',
                                  INTERPOL='LIN',
                               PROL_DROITE='EXCLU',
                               PROL_GAUCHE='EXCLU'
                           )

#
VITESSA=CALC_FONCTION(    INTEGRE=_F( FONCTION = CENTROA,
                                        COEF = 0.)

                          )

#
#
DEPLACA=CALC_FONCTION(    INTEGRE=_F( FONCTION = VITESSA,
                                        COEF = 0.)
                           )

#
CENTROB=LIRE_FONCTION(          UNITE=38,
                                  NOM_PARA='INST',
                                  NOM_RESU='ACCEL_SOL',
                                     TITRE='ACCELE - B ',
                                  INTERPOL='LIN',
                               PROL_DROITE='EXCLU',
                               PROL_GAUCHE='EXCLU'
                           )

#
VITESSB=CALC_FONCTION(    INTEGRE=_F( FONCTION = CENTROB,
                                        COEF = 0.)
                           )

#
DEPLACB=CALC_FONCTION(    INTEGRE=_F( FONCTION = VITESSB,
                                        COEF = 0.)
                           )

#
MA=LIRE_MAILLAGE(  )

#
MA=DEFI_GROUP( reuse=MA,        MAILLAGE=MA,
                           CREA_GROUP_NO=_F( GROUP_MA = ( 'POUTRE',
                                                     ))
                        )

#
# DEFINITION DES CARACTERISTIQUES DE LA SECTION RECTANGULAIRE
#
HY=0.0508

#
HZ=0.0254

#
# DEFINITION DES PARAMETRES POUR LA DISCRETISATION TEMPORELLE
#
DEBUTR=0.

DEBUTI=0

#
TFIN=2.

#
PAS=0.001

#
NPAS=2000

#
# LISTE DE DISCRETISATION TEMPORELLE
#
L_INST1=DEFI_LIST_REEL(         DEBUT=DEBUTR,
                              INTERVALLE=_F( JUSQU_A = TFIN,
                                          PAS = PAS)
                          )

#
# LISTE D ARCHIVAGE
#
L_ARCH=DEFI_LIST_ENTI(         DEBUT=DEBUTI,
                              INTERVALLE=_F( JUSQU_A = NPAS,
                                          PAS = 10)
                          )

#
L_ARCH2=DEFI_LIST_ENTI(         DEBUT=DEBUTI,
                               INTERVALLE=_F( JUSQU_A = NPAS,
                                           PAS = 20)
                           )

#
# DEFINITION DU MODELE
#
MO=AFFE_MODELE(    MAILLAGE=MA,
                                AFFE=_F( PHENOMENE = 'MECANIQUE',
                                      GROUP_MA = 'POUTRE',
                                      MODELISATION = 'POU_D_T')
                        )

#
# CARACTERISTIQUES DES POUTRES, ET AUTRES ELEMENTS
#
CARAELEM=AFFE_CARA_ELEM(      MODELE=MO,
                                 POUTRE=_F( GROUP_MA = 'POUTRE',
                                         SECTION = 'RECTANGLE',
                                         CARA = ('HY',  'HZ', ),
                                         VALE = ( HY,    HZ,  ))
                           )

#
# DEFINITION DU MATERIAU
#
MAT=DEFI_MATERIAU(    ELAS=_F( E = 2.068E11,
                                    NU = 0.3,
                                    RHO = 7780.)
                          )

#
# AFFECTATION DU MATERIAU
#
CHMAT=AFFE_MATERIAU(    MAILLAGE=MA,
                                  AFFE=_F( TOUT = 'OUI',
                                        MATER = MAT)
                          )

#
# CONDITIONS AUX LIMITES
#
CH1A=AFFE_CHAR_MECA(      MODELE=MO,DDL_IMPO=(
                                _F( GROUP_NO = ('P0', 'P2',),
                                          DX = 0.,
                                          DY = 0.,
                                          DZ = 0.,
                                          DRX = 0.,
                                          DRY = 0.,
                                          DRZ = 0.),
                                _F( TOUT = 'OUI',
                                          DZ = 0.))
                            )

#
# CALCUL DES MATRICES ELEMENTAIRES DE RIGIDITES
#
RIGIELEM=CALC_MATR_ELEM(        MODELE=MO,
                                   CHARGE=CH1A,
                                   OPTION='RIGI_MECA',
                               CHAM_MATER=CHMAT,
                                CARA_ELEM=CARAELEM
                           )

#
# CALCUL DES MATRICES ELEMENTAIRES DE MASSES
#
MASSELEM=CALC_MATR_ELEM(        MODELE=MO,
                                   CHARGE=CH1A,
                                   OPTION='MASS_MECA',
                               CHAM_MATER=CHMAT,
                                CARA_ELEM=CARAELEM
                           )

#
# NUMEROTATIOM
#
NUMEDDL=NUME_DDL(    MATR_RIGI=RIGIELEM )

#
# MATRICE DE RIGIDITE
#
RIGIDITE=ASSE_MATRICE(    MATR_ELEM=RIGIELEM,
                             NUME_DDL=NUMEDDL
                        )

#
# MATRICE DE MASSE
#
MASSE=ASSE_MATRICE(    MATR_ELEM=MASSELEM,
                             NUME_DDL=NUMEDDL
                        )

#
# CALCUL MODAL
#
MODE1=CALC_MODES(MATR_RIGI=RIGIDITE,
                 OPTION='PLUS_PETITE',
                 CALC_FREQ=_F(NMAX_FREQ=6,
                              ),
                 MATR_MASS=MASSE,
                 )


#
# DEFINITION DE LA DIRECTION DU SEISME
#
# CALCUL DES MODES STATIQUES
#
MODESTA=MODE_STATIQUE(    MATR_RIGI=RIGIDITE,
                             MATR_MASS=MASSE,
                              MODE_STAT =_F(  GROUP_NO = ('P0', 'P2',),
                                         AVEC_CMP = 'DY')
                         )

#
# CALCUL DE CHARGEMENT SISMIQUE EN RELATIF
#
MONOX1=CALC_CHAR_SEISME(     MATR_MASS=MASSE,
                                 DIRECTION=(0., 1., 0.,),
                                 MODE_STAT=MODESTA,
                                  GROUP_NO=('P0',)
                            )

#
MONOX2=CALC_CHAR_SEISME(     MATR_MASS=MASSE,
                                 DIRECTION=(0., 1., 0.,),
                                 MODE_STAT=MODESTA,
                                  GROUP_NO=('P2',)
                            )

#
#  RESOLUTION TEMPORELLE SUR BASE MODALE
#
# PROJECTION DANS LA BASE DES MODES : MODE1
#
NUMGEN=NUME_DDL_GENE(        BASE=MODE1,
                             STOCKAGE='PLEIN'
                         )

#
VECTGENA=PROJ_VECT_BASE(             BASE=MODE1,
                              NUME_DDL_GENE=NUMGEN,
                                  VECT_ASSE=MONOX1
                          )

#
VECTGENB=PROJ_VECT_BASE(             BASE=MODE1,
                              NUME_DDL_GENE=NUMGEN,
                                  VECT_ASSE=MONOX2
                          )

#
RIGIGEN1=PROJ_MATR_BASE(             BASE=MODE1,
                              NUME_DDL_GENE=NUMGEN,
                                  MATR_ASSE=RIGIDITE
                          )

#
MASSGEN1=PROJ_MATR_BASE(             BASE=MODE1,
                              NUME_DDL_GENE=NUMGEN,
                                  MATR_ASSE=MASSE
                          )

#


L_INSTA=DEFI_LIST_REEL(         DEBUT=DEBUTR,
                              INTERVALLE=_F( JUSQU_A = TFIN,
                                          PAS = 0.01)
                          )


REPBASE1=DYNA_VIBRA(TYPE_CALCUL='TRAN',BASE_CALCUL='GENE',
                               SCHEMA_TEMPS=_F(SCHEMA='DEVOGE'),
                               MATR_RIGI=RIGIGEN1,
                               MATR_MASS=MASSGEN1,
                               ARCHIVAGE=_F( LIST_INST = L_INSTA),
                               INCREMENT=_F(  INST_INIT = DEBUTR,
                                          PAS = PAS,
                                          INST_FIN = TFIN),
                               EXCIT=(
                                   _F(  VECT_ASSE_GENE = VECTGENA,
                                           MULT_APPUI = 'OUI',
                                           ACCE = CENTROA,
                                           VITE = VITESSA,
                                           DEPL = DEPLACA,
                                           DIRECTION = (0., 1., 0.,),
                                           GROUP_NO = ('P0',)),
                                   _F(  VECT_ASSE_GENE = VECTGENB,
                                           MULT_APPUI = 'OUI',
                                           ACCE = CENTROB,
                                           VITE = VITESSB,
                                           DEPL = DEPLACB,
                                           DIRECTION = (0., 1., 0.,),
                                           GROUP_NO = ('P2',))),
                               MODE_STAT=MODESTA,
                           )

#
#
# PROJECTION DANS LA BASE PHYSIQUE DES DEPLACEMENTS ABSOLUS
#
REP_LIN1=REST_GENE_PHYS(     RESU_GENE=REPBASE1,
                                 MODE_MECA=MODE1,
                                  NOM_CHAM='DEPL',
                                  INTERPOL='LIN',
                                MULT_APPUI='OUI'
                            )

#
# DEPLACEMENTS ABSOLUS AU POINT P1
#
P1_DY1=RECU_FONCTION(      RESULTAT=REP_LIN1,
                                 NOM_CHAM='DEPL',
                                 GROUP_NO='P1',
                                      NOM_CMP='DY'
                           )

#
# TEST_RESU : MODES PROPRES
#
TEST_RESU(RESU=_F(NUME_ORDRE=1,
                  PARA='FREQ',
                  RESULTAT=MODE1,
                  VALE_CALC=4.6351704046603,
                  VALE_REFE=4.5999999999999996,
                  REFERENCE='NON_DEFINI',
                  CRITERE='RELATIF',
                  PRECISION=1.E-2,),
          )

#
TEST_RESU(RESU=_F(NUME_ORDRE=2,
                  PARA='FREQ',
                  RESULTAT=MODE1,
                  VALE_CALC=12.772078634221,
                  VALE_REFE=12.779999999999999,
                  REFERENCE='NON_DEFINI',
                  CRITERE='RELATIF',
                  PRECISION=5.0000000000000001E-3,),
          )

#
TEST_RESU(RESU=_F(NUME_ORDRE=3,
                  PARA='FREQ',
                  RESULTAT=MODE1,
                  VALE_CALC=25.026174609614,
                  CRITERE='RELATIF',
                  ),
          )

#
TEST_RESU(RESU=_F(NUME_ORDRE=4,
                  PARA='FREQ',
                  RESULTAT=MODE1,
                  VALE_CALC=41.346406106003,
                  VALE_REFE=41.420000000000002,
                  REFERENCE='NON_DEFINI',
                  CRITERE='RELATIF',
                  PRECISION=2.E-3,),
          )

#
TEST_RESU(RESU=_F(NUME_ORDRE=5,
                  PARA='FREQ',
                  RESULTAT=MODE1,
                  VALE_CALC=61.728538887474,
                  VALE_REFE=61.869999999999997,
                  REFERENCE='NON_DEFINI',
                  CRITERE='RELATIF',
                  PRECISION=3.0000000000000001E-3,),
          )

#
TEST_RESU(RESU=_F(NUME_ORDRE=6,
                  PARA='FREQ',
                  RESULTAT=MODE1,
                  VALE_CALC=86.169083944502,
                  VALE_REFE=86.420000000000002,
                  REFERENCE='NON_DEFINI',
                  CRITERE='RELATIF',
                  PRECISION=3.0000000000000001E-3,),
          )

#
# DEPLACEMENTS ABSOLUS SUIVANT Y
#
TEST_RESU(RESU=_F(NUME_ORDRE=11,
                  GROUP_NO='P1',
                  RESULTAT=REP_LIN1,
                  NOM_CHAM='DEPL',
                  NOM_CMP='DY',
                  VALE_CALC=-2.6345472057777E-04,
                  VALE_REFE=-2.6431239999999997E-4,
                  REFERENCE='NON_DEFINI',
                  PRECISION=4.0000000000000001E-3,),
          )

#
TEST_RESU(RESU=_F(NUME_ORDRE=21,
                  GROUP_NO='P1',
                  RESULTAT=REP_LIN1,
                  NOM_CHAM='DEPL',
                  NOM_CMP='DY',
                  VALE_CALC=-1.1906342168688E-03,
                  VALE_REFE=-1.1853925999999999E-3,
                  REFERENCE='NON_DEFINI',
                  PRECISION=5.0000000000000001E-3,),
          )

#
TEST_RESU(RESU=_F(NUME_ORDRE=31,
                  GROUP_NO='P1',
                  RESULTAT=REP_LIN1,
                  NOM_CHAM='DEPL',
                  NOM_CMP='DY',
                  VALE_CALC=-5.1992213587718E-04,
                  VALE_REFE=-5.2387500000000004E-4,
                  REFERENCE='NON_DEFINI',
                  PRECISION=8.0000000000000002E-3,),
          )

#
TEST_RESU(RESU=_F(NUME_ORDRE=41,
                  GROUP_NO='P1',
                  RESULTAT=REP_LIN1,
                  NOM_CHAM='DEPL',
                  NOM_CMP='DY',
                  VALE_CALC=-2.1966909825794E-03,
                  VALE_REFE=-2.1924264000000001E-3,
                  REFERENCE='NON_DEFINI',
                  PRECISION=2.E-3,),
          )

#
TEST_RESU(RESU=_F(NUME_ORDRE=51,
                  GROUP_NO='P1',
                  RESULTAT=REP_LIN1,
                  NOM_CHAM='DEPL',
                  NOM_CMP='DY',
                  VALE_CALC=2.5295554301923E-04,
                  
                  CRITERE='ABSOLU',
                  ),
          )

#
TEST_RESU(RESU=_F(NUME_ORDRE=61,
                  GROUP_NO='P1',
                  RESULTAT=REP_LIN1,
                  NOM_CHAM='DEPL',
                  NOM_CMP='DY',
                  VALE_CALC=-1.4659302907319E-03,
                  VALE_REFE=-1.4602967999999999E-3,
                  REFERENCE='NON_DEFINI',
                  PRECISION=4.0000000000000001E-3,),
          )

#
TEST_RESU(RESU=_F(NUME_ORDRE=71,
                  GROUP_NO='P1',
                  RESULTAT=REP_LIN1,
                  NOM_CHAM='DEPL',
                  NOM_CMP='DY',
                  VALE_CALC=2.4741483996039E-04,
                  CRITERE='ABSOLU',
                  ),
          )

#
TEST_RESU(RESU=_F(NUME_ORDRE=81,
                  GROUP_NO='P1',
                  RESULTAT=REP_LIN1,
                  NOM_CHAM='DEPL',
                  NOM_CMP='DY',
                  VALE_CALC=-2.5866933265748E-03,
                  VALE_REFE=-2.5907999999999999E-3,
                  REFERENCE='NON_DEFINI',
                  PRECISION=2.E-3,),
          )

#
TEST_RESU(RESU=_F(NUME_ORDRE=91,
                  GROUP_NO='P1',
                  RESULTAT=REP_LIN1,
                  NOM_CHAM='DEPL',
                  NOM_CMP='DY',
                  VALE_CALC=-3.5938077102809E-03,
                  VALE_REFE=-3.6067999999999994E-3,
                  REFERENCE='NON_DEFINI',
                  PRECISION=4.0000000000000001E-3,),
          )

#
TEST_RESU(RESU=_F(NUME_ORDRE=101,
                  GROUP_NO='P1',
                  RESULTAT=REP_LIN1,
                  NOM_CHAM='DEPL',
                  NOM_CMP='DY',
                  VALE_CALC=-0.011167741906512,
                  ),
          )

#
TEST_RESU(RESU=_F(NUME_ORDRE=111,
                  GROUP_NO='P1',
                  RESULTAT=REP_LIN1,
                  NOM_CHAM='DEPL',
                  NOM_CMP='DY',
                  VALE_CALC=-4.7690225445236E-03,
                  VALE_REFE=-4.7777399999999999E-3,
                  REFERENCE='NON_DEFINI',
                  PRECISION=2.E-3,),
          )

#
TEST_RESU(RESU=_F(NUME_ORDRE=121,
                  GROUP_NO='P1',
                  RESULTAT=REP_LIN1,
                  NOM_CHAM='DEPL',
                  NOM_CMP='DY',
                  VALE_CALC=-0.015166227632221,
                  ),
          )

#
TEST_RESU(RESU=_F(NUME_ORDRE=131,
                  GROUP_NO='P1',
                  RESULTAT=REP_LIN1,
                  NOM_CHAM='DEPL',
                  NOM_CMP='DY',
                  VALE_CALC=-3.5773110647907E-03,
                  VALE_REFE=-3.5813999999999993E-3,
                  REFERENCE='NON_DEFINI',
                  PRECISION=2.E-3,),
          )

#
TEST_RESU(RESU=_F(NUME_ORDRE=141,
                  GROUP_NO='P1',
                  RESULTAT=REP_LIN1,
                  NOM_CHAM='DEPL',
                  NOM_CMP='DY',
                  VALE_CALC=-0.012060610752765,
                  ),
          )

#
TEST_RESU(RESU=_F(NUME_ORDRE=151,
                  GROUP_NO='P1',
                  RESULTAT=REP_LIN1,
                  NOM_CHAM='DEPL',
                  NOM_CMP='DY',
                  VALE_CALC=4.0796478203782E-04,
                  CRITERE='ABSOLU',
                  ),
          )

#
TEST_RESU(RESU=_F(NUME_ORDRE=161,
                  GROUP_NO='P1',
                  RESULTAT=REP_LIN1,
                  NOM_CHAM='DEPL',
                  NOM_CMP='DY',
                  VALE_CALC=-9.1458126761652E-03,
                  VALE_REFE=-9.1719399999999982E-3,
                  REFERENCE='NON_DEFINI',
                  PRECISION=3.0000000000000001E-3,),
          )

#
TEST_RESU(RESU=_F(NUME_ORDRE=171,
                  GROUP_NO='P1',
                  RESULTAT=REP_LIN1,
                  NOM_CHAM='DEPL',
                  NOM_CMP='DY',
                  VALE_CALC=-1.4681404211575E-03,
                  VALE_REFE=-1.4330425999999998E-3,
                  REFERENCE='NON_DEFINI',
                  PRECISION=0.025000000000000001,),
          )

#
TEST_RESU(RESU=_F(NUME_ORDRE=181,
                  GROUP_NO='P1',
                  RESULTAT=REP_LIN1,
                  NOM_CHAM='DEPL',
                  NOM_CMP='DY',
                  VALE_CALC=-7.2958388330485E-03,
                  VALE_REFE=-7.3558400000000006E-3,
                  REFERENCE='NON_DEFINI',
                  PRECISION=8.9999999999999993E-3,),
          )

#
TEST_RESU(RESU=_F(NUME_ORDRE=191,
                  GROUP_NO='P1',
                  RESULTAT=REP_LIN1,
                  NOM_CHAM='DEPL',
                  NOM_CMP='DY',
                  VALE_CALC=-6.6820160852661E-03,
                  VALE_REFE=-6.62686E-3,
                  REFERENCE='NON_DEFINI',
                  PRECISION=8.9999999999999993E-3,),
          )

#
TEST_RESU(RESU=_F(NUME_ORDRE=200,
                  GROUP_NO='P1',
                  RESULTAT=REP_LIN1,
                  NOM_CHAM='DEPL',
                  NOM_CMP='DY',
                  VALE_CALC=-1.7815978283068E-03,
                  VALE_REFE=-3.5077400000000001E-3,
                  REFERENCE='NON_DEFINI',
                  CRITERE='ABSOLU',
                  PRECISION=3.0000000000000001E-3,),
          )

#
# METHODE DE NEWMARK (INTEGRATION DIRECTE SUR BASE PHYSIQUE)
#
#  RESOLUTION TEMPORELLE PAR INTEGRATION DIRECTE
#
#
L_INSTA2=DEFI_LIST_REEL(         DEBUT=DEBUTR,
                              INTERVALLE=_F( JUSQU_A = TFIN,
                                          PAS = PAS*20)
                          )

REP_LIN2=DYNA_VIBRA(TYPE_CALCUL='TRAN',BASE_CALCUL='PHYS',
                               MATR_RIGI=RIGIDITE,
                               MATR_MASS=MASSE,
                               SCHEMA_TEMPS=_F(SCHEMA='NEWMARK',BETA = 0.25,
                                          GAMMA = 0.50),
                             INCREMENT=_F(  LIST_INST = L_INST1),
                               ARCHIVAGE=_F( LIST_INST = L_INSTA2,
                                          CHAM_EXCLU = ('ACCE', 'VITE',)),EXCIT=(
                                   _F(  VECT_ASSE = MONOX1,
                                           FONC_MULT = CENTROA),
                                   _F(  VECT_ASSE = MONOX2,
                                           FONC_MULT = CENTROB))

                           )

#
# RECUPERATION DE LA FONCTION
#
# DEPLACEMENT AU POINT P1
#
P1_DY2=RECU_FONCTION(    RESULTAT=REP_LIN2,
                              NOM_CHAM='DEPL',
                              GROUP_NO='P1',
                                   NOM_CMP='DY'
                          )

#
TEST_RESU(RESU=_F(NUME_ORDRE=5,
                  GROUP_NO='P1',
                  RESULTAT=REP_LIN2,
                  NOM_CHAM='DEPL',
                  NOM_CMP='DY',
                  VALE_CALC=2.9088726682744E-04,
                  ),
          )

#
TEST_RESU(RESU=_F(NUME_ORDRE=10,
                  GROUP_NO='P1',
                  RESULTAT=REP_LIN2,
                  NOM_CHAM='DEPL',
                  NOM_CMP='DY',
                  VALE_CALC=-6.692059723666E-04,
                  VALE_REFE=-6.6806000000000005E-4,
                  REFERENCE='NON_DEFINI',
                  PRECISION=2.E-3,),
          )

#
TEST_RESU(RESU=_F(NUME_ORDRE=15,
                  GROUP_NO='P1',
                  RESULTAT=REP_LIN2,
                  NOM_CHAM='DEPL',
                  NOM_CMP='DY',
                  VALE_CALC=7.2353619015775E-04,
                  ),
          )

#
TEST_RESU(RESU=_F(NUME_ORDRE=20,
                  GROUP_NO='P1',
                  RESULTAT=REP_LIN2,
                  NOM_CHAM='DEPL',
                  NOM_CMP='DY',
                  VALE_CALC=-1.1418996934988E-03,
                  ),
          )

#
TEST_RESU(RESU=_F(NUME_ORDRE=25,
                  GROUP_NO='P1',
                  RESULTAT=REP_LIN2,
                  NOM_CHAM='DEPL',
                  NOM_CMP='DY',
                  VALE_CALC=9.1062213860409E-04,
                  VALE_REFE=9.0959999999999999E-4,
                  REFERENCE='NON_DEFINI',
                  PRECISION=1.5E-3,),
          )

#
TEST_RESU(RESU=_F(NUME_ORDRE=30,
                  GROUP_NO='P1',
                  RESULTAT=REP_LIN2,
                  NOM_CHAM='DEPL',
                  NOM_CMP='DY',
                  VALE_CALC=-1.2914375230693E-03,
                  ),
          )

#
TEST_RESU(RESU=_F(NUME_ORDRE=35,
                  GROUP_NO='P1',
                  RESULTAT=REP_LIN2,
                  NOM_CHAM='DEPL',
                  NOM_CMP='DY',
                  VALE_CALC=1.6288815499333E-03,
                  ),
          )

#
TEST_RESU(RESU=_F(NUME_ORDRE=40,
                  GROUP_NO='P1',
                  RESULTAT=REP_LIN2,
                  NOM_CHAM='DEPL',
                  NOM_CMP='DY',
                  VALE_CALC=-4.8736683404283E-04,
                  VALE_REFE=-4.8480000000000002E-4,
                  REFERENCE='NON_DEFINI',
                  PRECISION=6.0000000000000001E-3,),
          )

#
TEST_RESU(RESU=_F(NUME_ORDRE=45,
                  GROUP_NO='P1',
                  RESULTAT=REP_LIN2,
                  NOM_CHAM='DEPL',
                  NOM_CMP='DY',
                  VALE_CALC=2.2000986882669E-03,
                  ),
          )

#
TEST_RESU(RESU=_F(NUME_ORDRE=50,
                  GROUP_NO='P1',
                  RESULTAT=REP_LIN2,
                  NOM_CHAM='DEPL',
                  NOM_CMP='DY',
                  VALE_CALC=-3.3338792730742E-03,
                  ),
          )

#
TEST_RESU(RESU=_F(NUME_ORDRE=55,
                  GROUP_NO='P1',
                  RESULTAT=REP_LIN2,
                  NOM_CHAM='DEPL',
                  NOM_CMP='DY',
                  VALE_CALC=4.6150204565246E-03,
                  VALE_REFE=4.6090000000000002E-3,
                  REFERENCE='NON_DEFINI',
                  PRECISION=1.5E-3,),
          )

#
TEST_RESU(RESU=_F(NUME_ORDRE=60,
                  GROUP_NO='P1',
                  RESULTAT=REP_LIN2,
                  NOM_CHAM='DEPL',
                  NOM_CMP='DY',
                  VALE_CALC=-5.0800202685765E-03,
                  ),
          )

#
TEST_RESU(RESU=_F(NUME_ORDRE=65,
                  GROUP_NO='P1',
                  RESULTAT=REP_LIN2,
                  NOM_CHAM='DEPL',
                  NOM_CMP='DY',
                  VALE_CALC=5.3493371266065E-03,
                  VALE_REFE=5.3410000000000003E-3,
                  REFERENCE='NON_DEFINI',
                  PRECISION=1.8E-3,),
          )

#
TEST_RESU(RESU=_F(NUME_ORDRE=70,
                  GROUP_NO='P1',
                  RESULTAT=REP_LIN2,
                  NOM_CHAM='DEPL',
                  NOM_CMP='DY',
                  VALE_CALC=-5.7604295391912E-03,
                  VALE_REFE=-5.7520000000000002E-3,
                  REFERENCE='NON_DEFINI',
                  PRECISION=1.5E-3,),
          )

#
TEST_RESU(RESU=_F(NUME_ORDRE=75,
                  GROUP_NO='P1',
                  RESULTAT=REP_LIN2,
                  NOM_CHAM='DEPL',
                  NOM_CMP='DY',
                  VALE_CALC=4.9749278188975E-03,
                  ),
          )

#
TEST_RESU(RESU=_F(NUME_ORDRE=80,
                  GROUP_NO='P1',
                  RESULTAT=REP_LIN2,
                  NOM_CHAM='DEPL',
                  NOM_CMP='DY',
                  VALE_CALC=-4.5818544587323E-03,
                  VALE_REFE=-4.5710000000000004E-3,
                  REFERENCE='NON_DEFINI',
                  PRECISION=2.5000000000000001E-3,),
          )

#
TEST_RESU(RESU=_F(NUME_ORDRE=85,
                  GROUP_NO='P1',
                  RESULTAT=REP_LIN2,
                  NOM_CHAM='DEPL',
                  NOM_CMP='DY',
                  VALE_CALC=3.43473114857E-03,
                  VALE_REFE=3.4259999999999998E-3,
                  REFERENCE='NON_DEFINI',
                  PRECISION=2.7000000000000001E-3,),
          )

#
TEST_RESU(RESU=_F(NUME_ORDRE=90,
                  GROUP_NO='P1',
                  RESULTAT=REP_LIN2,
                  NOM_CHAM='DEPL',
                  NOM_CMP='DY',
                  VALE_CALC=-1.0506186706093E-03,
                  VALE_REFE=-1.044E-3,
                  REFERENCE='NON_DEFINI',
                  PRECISION=6.4999999999999997E-3,),
          )

#
TEST_RESU(RESU=_F(NUME_ORDRE=95,
                  GROUP_NO='P1',
                  RESULTAT=REP_LIN2,
                  NOM_CHAM='DEPL',
                  NOM_CMP='DY',
                  VALE_CALC=-4.226771683236E-04,
                  VALE_REFE=-4.349E-4,
                  REFERENCE='NON_DEFINI',
                  PRECISION=0.029999999999999999,),
          )

#
TEST_RESU(RESU=_F(NUME_ORDRE=100,
                  GROUP_NO='P1',
                  RESULTAT=REP_LIN2,
                  NOM_CHAM='DEPL',
                  NOM_CMP='DY',
                  VALE_CALC=1.9446697218083E-03,
                  VALE_REFE=1.9550000000000001E-3,
                  REFERENCE='NON_DEFINI',
                  PRECISION=6.0000000000000001E-3,),
          )

#
FIN()
#
