# TITRE POUTRE SOUMISE A UNE EXCITATION ALEATOIRE REPARTIE
# ======================================================================
# COPYRIGHT (C) 1991 - 2013  EDF R&D                  WWW.CODE-ASTER.ORG
# THIS PROGRAM IS FREE SOFTWARE; YOU CAN REDISTRIBUTE IT AND/OR MODIFY
# IT UNDER THE TERMS OF THE GNU GENERAL PUBLIC LICENSE AS PUBLISHED BY
# THE FREE SOFTWARE FOUNDATION; EITHER VERSION 2 OF THE LICENSE, OR
# (AT YOUR OPTION) ANY LATER VERSION.
#
# THIS PROGRAM IS DISTRIBUTED IN THE HOPE THAT IT WILL BE USEFUL, BUT
# WITHOUT ANY WARRANTY; WITHOUT EVEN THE IMPLIED WARRANTY OF
# MERCHANTABILITY OR FITNESS FOR A PARTICULAR PURPOSE. SEE THE GNU
# GENERAL PUBLIC LICENSE FOR MORE DETAILS.
#
# YOU SHOULD HAVE RECEIVED A COPY OF THE GNU GENERAL PUBLIC LICENSE
# ALONG WITH THIS PROGRAM; IF NOT, WRITE TO EDF R&D CODE_ASTER,
#    1 AVENUE DU GENERAL DE GAULLE, 92141 CLAMART CEDEX, FRANCE.
# ======================================================================
# FICHIER MODELE GEVIBUS
# person_in_charge: andre.adobes at edf.fr

DEBUT( CODE=_F(NIV_PUB_WEB='INTERNET'),DEBUG=_F(SDVERI='OUI') )

#

POUTRE=LIRE_MAILLAGE()

MODI_MAILLAGE(reuse=POUTRE, MAILLAGE=POUTRE,ABSC_CURV=_F(NOEUD_ORIG='N001',TOUT='OUI'))

POUTRE=DEFI_GROUP( reuse=POUTRE,   MAILLAGE=POUTRE,
                   CREA_GROUP_MA=_F(  NOM = 'TOUT', TOUT = 'OUI'))

#

RHOE=DEFI_FONCTION(
                  NOM_PARA='ABSC',
                  MAILLAGE=POUTRE,
                    VALE_Y=(1000., 1000.,),  NOEUD_PARA=('N001',  'N200',)
                         )

#

RHOI=DEFI_FONCTION(
                  NOM_PARA='ABSC',
                  MAILLAGE=POUTRE,
                    VALE_Y=(1000., 1000.,), NOEUD_PARA=('N001',  'N200',)
                         )

#
# FORCE FLUIDE ELASTIQUE
# ----------------------
# CALCUL AVEC UNE ZONE D EXCITATION DU FLUIDE
# -------------------------------------------
# VITESSE DU FLUIDE: 1 M/S SUR TOUTE LA ZONE
# ------------------------------------------
# CELLULE DE TUBES VIBRANTS EN DEBUT DE FAISCEAU VISCACHE1
# --------------------------------------------------------
#

PROFVI1=DEFI_FONC_FLUI(
   TITRE='CAS TEST &CODE   COMMANDE &COMMANDE SANS L_TX !!',
                   MAILLAGE=POUTRE,
                 NOEUD_INIT='N001',
                  NOEUD_FIN='N200',
                       VITE=_F(
                               PROFIL = 'UNIFORME',
                               VALE = 1.0)
                           )

#

MODELE=AFFE_MODELE(
                  MAILLAGE=POUTRE,
               AFFE=_F( TOUT = 'OUI', PHENOMENE = 'MECANIQUE',
                        MODELISATION = 'POU_D_T'))

#

CARA=AFFE_CARA_ELEM(  MODELE=MODELE,
                      POUTRE=_F(  GROUP_MA = 'TOUT',
                                  SECTION = 'CERCLE',
                                  CARA = ( 'R'     , 'EP'    ,),
                                  VALE = (9.525E-03, 1.09E-03,)))
#

TYPEFLU1=DEFI_FLUI_STRU(
                 FAISCEAU_TRANS=_F(
                 COUPLAGE = 'OUI',
                 CARA_ELEM = CARA,
                 PROF_RHO_F_INT = RHOI,
                 PROF_RHO_F_EXT = RHOE,
                 NOM_CMP = 'DX',
                 TYPE_PAS = 'CARRE_LIGN',
                 PAS = 1.5,
                 PROF_VITE_FLUI = PROFVI1,
                 TYPE_RESEAU = 1001)
                           )

#

FONC_CM=FONC_FLUI_STRU(  TYPE_FLUI_STRU=TYPEFLU1   )

#

MATERIAU=DEFI_MATERIAU(
              ELAS_FLUI=_F(
                  E = 2.00E+11,
                  NU = 0.3,
                  RHO = 8320.,
                  PROF_RHO_F_INT = RHOI,
                  PROF_RHO_F_EXT = RHOE,
                  COEF_MASS_AJOU = FONC_CM)
                          )

#

CHMAT=AFFE_MATERIAU(  MAILLAGE=POUTRE,
                      AFFE=_F(  TOUT = 'OUI',
                                MATER = MATERIAU)
                          )

#

CHARG=AFFE_CHAR_MECA(  MODELE=MODELE,
                DDL_IMPO=(_F( NOEUD = 'N001',
                              DX = 0., DY = 0., DZ = 0., DRY = 0.),
                          _F( NOEUD = 'N200',
                              DX = 0., DY = 0., DZ = 0., DRY = 0.)))

#

MELR=CALC_MATR_ELEM(
                      MODELE=MODELE,
                      CHARGE=CHARG,
                   CARA_ELEM=CARA,
                  CHAM_MATER=CHMAT,
                      OPTION='RIGI_FLUI_STRU'
                           )

#

MELM=CALC_MATR_ELEM(
                      MODELE=MODELE,
                      CHARGE=CHARG,
                   CARA_ELEM=CARA,
                  CHAM_MATER=CHMAT,
                      OPTION='MASS_FLUI_STRU'
                           )

#

NUM=NUME_DDL(   MATR_RIGI=MELR,   METHODE='LDLT')

#

MATRR=ASSE_MATRICE( MATR_ELEM=MELR,   NUME_DDL=NUM)

#

MATRM=ASSE_MATRICE( MATR_ELEM=MELM,   NUME_DDL=NUM)

#

MODES=CALC_MODES(MATR_RIGI=MATRR,
                 OPTION='PLUS_PETITE',
                 CALC_FREQ=_F(NMAX_FREQ=4,
                              ),
                 MATR_MASS=MATRM,
                 SOLVEUR_MODAL=_F(METHODE='TRI_DIAG',
                                  ),
                 )


#

MODES=NORM_MODE( reuse=MODES,  MODE  = MODES,
                               NORME = 'TRAN' )
#

vite_min = 0.3
vite_max = 3.1
nb_poin = 8

pas = (vite_max - vite_min)/(nb_poin - 1)
vite = []
for i in range(nb_poin):
  vitesse = vite_min+i*pas
  vite.append(vitesse)

MELES1=CALC_FLUI_STRU(
             VITE_FLUI=_F(  VITE_MIN = vite_min,
                         VITE_MAX = vite_max,
                         NB_POIN = nb_poin),
               BASE_MODALE=_F(  MODE_MECA = MODES,
                                NUME_ORDRE = (1,2,),
                                AMOR_UNIF  = 0.03 ),
              TYPE_FLUI_STRU=TYPEFLU1,
                  IMPRESSION=_F(  PARA_COUPLAGE = 'OUI',
                                  DEFORMEE = 'NON')
                           )

#

FREQ1_1=RECU_FONCTION(
                 BASE_ELAS_FLUI=MELES1,
                         PARA_X='VITE_FLU',
                         PARA_Y='FREQ',
                     TOUT_ORDRE='OUI',
                      NUME_MODE=1
                          )

FREQ1_2=RECU_FONCTION(
                 BASE_ELAS_FLUI=MELES1,
                         PARA_X='VITE_FLU',
                         PARA_Y='FREQ',
                     TOUT_ORDRE='OUI',
                      NUME_MODE=2
                          )

#

AMOR1_1=RECU_FONCTION(
                 BASE_ELAS_FLUI=MELES1,
                         PARA_X='VITE_FLU',
                         PARA_Y='AMOR',
                     TOUT_ORDRE='OUI',
                      NUME_MODE=1
                          )

AMOR1_2=RECU_FONCTION(
                 BASE_ELAS_FLUI=MELES1,
                         PARA_X='VITE_FLU',
                         PARA_Y='AMOR',
                     TOUT_ORDRE='OUI',
                      NUME_MODE=2
                          )

#
TEST_FONCTION(VALEUR=(_F(VALE_CALC=32.28970274066,
                         VALE_REFE=32.29,
                         REFERENCE='NON_DEFINI',
                         PRECISION=1.E-3,
                         VALE_PARA=1.5,
                         FONCTION=FREQ1_1,
                         ),
                      _F(VALE_CALC=32.28970274084,
                         VALE_REFE=32.29,
                         REFERENCE='NON_DEFINI',
                         PRECISION=1.E-3,
                         VALE_PARA=1.5,
                         FONCTION=FREQ1_2,
                         ),
                      _F(VALE_CALC=8.943517832643E-03,
                         VALE_REFE=8.944E-3,
                         REFERENCE='NON_DEFINI',
                         CRITERE='ABSOLU',
                         PRECISION=1.E-3,
                         VALE_PARA=1.5,
                         FONCTION=AMOR1_1,
                         ),
                      _F(VALE_CALC=8.943517832665E-03,
                         VALE_REFE=8.944E-3,
                         REFERENCE='NON_DEFINI',
                         CRITERE='ABSOLU',
                         PRECISION=1.E-3,
                         VALE_PARA=1.5,
                         FONCTION=AMOR1_2,
                         ),
                      ),
              )

#
# FORCE FLUIDE ELASTIQUE
# ----------------------
# CALCUL AVEC DEUX ZONES D EXCITATION DU FLUIDE
# ---------------------------------------------
# VITESSE DU FLUIDE: 1 M/S SUR LES DEUX ZONES
# -------------------------------------------
# CELLULE DE TUBES VIBRANTS EN DEBUT DE FAISCEAU VISCACHE1
# --------------------------------------------------------
#

PROFVI2A=DEFI_FONC_FLUI(
   TITRE='CAS TEST &CODE   COMMANDE &COMMANDE SANS L_TX !!',
                   MAILLAGE=POUTRE,
                 NOEUD_INIT='N001',
                  NOEUD_FIN='N100',
                       VITE=_F(
                               PROFIL = 'UNIFORME',
                               VALE = 1.0)
                           )

#

PROFVI2B=DEFI_FONC_FLUI(
   TITRE='CAS TEST &CODE   COMMANDE &COMMANDE SANS L_TX !!',
                   MAILLAGE=POUTRE,
                 NOEUD_INIT='N101',
                  NOEUD_FIN='N200',
                       VITE=_F(
                               PROFIL = 'UNIFORME',
                               VALE = 1.0)
                           )

#

TYPEFLU2=DEFI_FLUI_STRU( FAISCEAU_TRANS=(
                 _F(
                 COUPLAGE = 'OUI',
                 CARA_ELEM = CARA,
                 PROF_RHO_F_INT = RHOI,
                 PROF_RHO_F_EXT = RHOE,
                 NOM_CMP = 'DX',
                 TYPE_PAS = 'CARRE_LIGN',
                 PAS = 1.5,
                 PROF_VITE_FLUI = PROFVI2A,
                 TYPE_RESEAU = 1001),
                 _F(
                 PROF_VITE_FLUI = PROFVI2B,
                 TYPE_RESEAU = 1001))
                           )

#

MELES2=CALC_FLUI_STRU(
             VITE_FLUI=_F(  VITE_MIN = vite_min,
                         VITE_MAX = vite_max,
                         NB_POIN = nb_poin),
               BASE_MODALE=_F(  MODE_MECA  = MODES,
                                NUME_ORDRE = (1,2,),
                                AMOR_UNIF  = 0.03 ),
              TYPE_FLUI_STRU=TYPEFLU2,
                  IMPRESSION=_F(  PARA_COUPLAGE = 'OUI',
                               DEFORMEE = 'NON')
                           )

#

FREQ2_1=RECU_FONCTION(
                 BASE_ELAS_FLUI=MELES2,
                         PARA_X='VITE_FLU',
                         PARA_Y='FREQ',
                     TOUT_ORDRE='OUI',
                      NUME_MODE=1
                          )

FREQ2_2=RECU_FONCTION(
                 BASE_ELAS_FLUI=MELES2,
                         PARA_X='VITE_FLU',
                         PARA_Y='FREQ',
                     TOUT_ORDRE='OUI',
                      NUME_MODE=2
                          )

#

AMOR2_1=RECU_FONCTION(
                 BASE_ELAS_FLUI=MELES2,
                         PARA_X='VITE_FLU',
                         PARA_Y='AMOR',
                     TOUT_ORDRE='OUI',
                      NUME_MODE=1
                          )

AMOR2_2=RECU_FONCTION(
                 BASE_ELAS_FLUI=MELES2,
                         PARA_X='VITE_FLU',
                         PARA_Y='AMOR',
                     TOUT_ORDRE='OUI',
                      NUME_MODE=2
                          )

#

TEST_FONCTION(VALEUR=(_F(VALE_REFE=32.29,
                         VALE_CALC=32.28970274066,
                         REFERENCE='NON_DEFINI',
                         PRECISION=1.E-3,
                         VALE_PARA=1.5,
                         FONCTION=FREQ2_1,
                         ),
                      _F(VALE_REFE=32.29,
                         VALE_CALC=32.28970274084,
                         REFERENCE='NON_DEFINI',
                         PRECISION=1.E-3,
                         VALE_PARA=1.5,
                         FONCTION=FREQ2_2,
                         ),
                      _F(VALE_REFE=8.944E-03,
                         VALE_CALC=8.943517832643E-03,
                         REFERENCE='NON_DEFINI',
                         CRITERE='ABSOLU',
                         PRECISION=1.E-3,
                         VALE_PARA=1.5,
                         FONCTION=AMOR2_1,
                         ),
                      _F(VALE_REFE=8.944E-03,
                         VALE_CALC=8.943517832665E-03,
                         REFERENCE='NON_DEFINI',
                         CRITERE='ABSOLU',
                         PRECISION=1.E-3,
                         VALE_PARA=1.5,
                         FONCTION=AMOR2_2,
                         ),
                      ),
              )

#
# FORCE FLUIDE ELASTIQUE
# ----------------------
# CALCUL AVEC UNE ZONE D EXCITATION DU FLUIDE
# -------------------------------------------
# VITESSE DU FLUIDE: 0.5 M/S ET 1 M/S SUR LA ZONE
# ---------------------------------------------
# CELLULE DE TUBES VIBRANTS EN DEBUT DE FAISCEAU VISCACHE1
# --------------------------------------------------------
#
PROFVI3=DEFI_FONCTION( NOM_PARA='ABSC', MAILLAGE=POUTRE,
                    VALE_Y=(1., 1., 0.5, 0.5,),
                    #VALE_Y=(0.5, 0.5, 1., 1., ),
                    NOEUD_PARA=('N001',  'N100',  'N101',  'N200',),
                    #NOEUD_PARA=('N200', 'N101', 'N100', 'N001',),
                    PROL_GAUCHE='EXCLU',  PROL_DROITE='EXCLU'
                         )

#

TYPEFLU3=DEFI_FLUI_STRU(
                 FAISCEAU_TRANS=_F(
                 COUPLAGE = 'OUI',
                 CARA_ELEM = CARA,
                 PROF_RHO_F_INT = RHOI,
                 PROF_RHO_F_EXT = RHOE,
                 NOM_CMP = 'DX',
                 TYPE_PAS = 'CARRE_LIGN',
                 PAS = 1.5,
                 PROF_VITE_FLUI = PROFVI3,
                 TYPE_RESEAU = 1001)
                           )

#

MELES3=CALC_FLUI_STRU(
             VITE_FLUI=_F(  VITE_MIN = vite_min,
                         VITE_MAX = vite_max,
                         NB_POIN = nb_poin),
               BASE_MODALE=_F(  MODE_MECA  = MODES,
                                NUME_ORDRE = (1,2,),
                                AMOR_UNIF  = 0.03 ),
              TYPE_FLUI_STRU=TYPEFLU3,
                  IMPRESSION=_F(  PARA_COUPLAGE = 'OUI',
                               DEFORMEE = 'NON')
                           )

#

FREQ3_1=RECU_FONCTION(
                 BASE_ELAS_FLUI=MELES3,
                         PARA_X='VITE_FLU',
                         PARA_Y='FREQ',
                     TOUT_ORDRE='OUI',
                      NUME_MODE=1
                          )

FREQ3_2=RECU_FONCTION(
                 BASE_ELAS_FLUI=MELES3,
                         PARA_X='VITE_FLU',
                         PARA_Y='FREQ',
                     TOUT_ORDRE='OUI',
                      NUME_MODE=2
                          )

#
AMOR3_1=RECU_FONCTION(
                 BASE_ELAS_FLUI=MELES3,
                         PARA_X='VITE_FLU',
                         PARA_Y='AMOR',
                     TOUT_ORDRE='OUI',
                      NUME_MODE=1
                          )

AMOR3_2=RECU_FONCTION(
                 BASE_ELAS_FLUI=MELES3,
                         PARA_X='VITE_FLU',
                         PARA_Y='AMOR',
                     TOUT_ORDRE='OUI',
                      NUME_MODE=2
                          )

#

TEST_FONCTION(VALEUR=(_F(VALE_REFE=31.40,
                         VALE_CALC=31.40286865667,
                         REFERENCE='NON_DEFINI',
                         PRECISION=1.E-3,
                         VALE_PARA=1.5,
                         FONCTION=FREQ3_1,
                         ),
                      _F(VALE_REFE=31.40,
                         VALE_CALC=31.40286865689,
                         REFERENCE='NON_DEFINI',
                         PRECISION=1.E-3,
                         VALE_PARA=1.5,
                         FONCTION=FREQ3_2,
                         ),
                      _F(VALE_REFE=9.157E-03,
                         VALE_CALC=9.156813243107E-03,
                         REFERENCE='NON_DEFINI',
                         CRITERE='ABSOLU',
                         PRECISION=1.E-3,
                         VALE_PARA=1.5,
                         FONCTION=AMOR3_1,
                         ),
                      _F(VALE_REFE=9.157E-03,
                         VALE_CALC=9.156813243189E-03,
                         REFERENCE='NON_DEFINI',
                         CRITERE='ABSOLU',
                         PRECISION=1.E-3,
                         VALE_PARA=1.5,
                         FONCTION=AMOR3_2,
                         ),
                      ),
              )

#
# FORCE FLUIDE ELASTIQUE
# ----------------------
# CALCUL AVEC DEUX ZONES D EXCITATION DU FLUIDE
# ---------------------------------------------
# VITESSE DU FLUIDE: 0.5 M/S SUR UNE ZONE ET 1 M/S SUR L AUTRE
# ----------------------------------------------------------
# CELLULE DE TUBES VIBRANTS EN DEBUT DE FAISCEAU VISCACHE1
# --------------------------------------------------------
#

PROFVI4A=DEFI_FONC_FLUI(
   TITRE='CAS TEST &CODE   COMMANDE &COMMANDE SANS L_TX !!',
                   MAILLAGE=POUTRE,
                 NOEUD_INIT='N001',
                  NOEUD_FIN='N100',
                       VITE=_F(
                               PROFIL = 'UNIFORME',
                               VALE = 1.0)
                           )

#

PROFVI4B=DEFI_FONC_FLUI(
   TITRE='CAS TEST &CODE   COMMANDE &COMMANDE SANS L_TX !!',
                   MAILLAGE=POUTRE,
                 NOEUD_INIT='N101',
                  NOEUD_FIN='N200',
                       VITE=_F(
                               PROFIL = 'UNIFORME',
                               VALE = 0.5)
                           )

#

TYPEFLU4=DEFI_FLUI_STRU( FAISCEAU_TRANS=(
                 _F(
                 COUPLAGE = 'OUI',
                 CARA_ELEM = CARA,
                 PROF_RHO_F_INT = RHOI,
                 PROF_RHO_F_EXT = RHOE,
                 NOM_CMP = 'DX',
                 TYPE_PAS = 'CARRE_LIGN',
                 PAS = 1.5,
                 PROF_VITE_FLUI = PROFVI4A,
                 TYPE_RESEAU = 1001),
                 _F(
                 PROF_VITE_FLUI = PROFVI4B,
                 TYPE_RESEAU = 1001))
                           )

#

MELES4=CALC_FLUI_STRU(
             VITE_FLUI=_F(  VITE_MIN = vite_min,
                         VITE_MAX = vite_max,
                         NB_POIN = nb_poin),
               BASE_MODALE=_F(  MODE_MECA  = MODES,
                                NUME_ORDRE = (1,2,),
                                AMOR_UNIF  = 0.03 ),
              TYPE_FLUI_STRU=TYPEFLU4,
                  IMPRESSION=_F(  PARA_COUPLAGE = 'OUI',
                               DEFORMEE = 'NON')
                           )

#

FREQ4_1=RECU_FONCTION(
                 BASE_ELAS_FLUI=MELES4,
                         PARA_X='VITE_FLU',
                         PARA_Y='FREQ',
                     TOUT_ORDRE='OUI',
                      NUME_MODE=1
                          )

FREQ4_2=RECU_FONCTION(
                 BASE_ELAS_FLUI=MELES4,
                         PARA_X='VITE_FLU',
                         PARA_Y='FREQ',
                     TOUT_ORDRE='OUI',
                      NUME_MODE=2
                          )

#

AMOR4_1=RECU_FONCTION(
                 BASE_ELAS_FLUI=MELES4,
                         PARA_X='VITE_FLU',
                         PARA_Y='AMOR',
                     TOUT_ORDRE='OUI',
                      NUME_MODE=1
                          )

AMOR4_2=RECU_FONCTION(
                 BASE_ELAS_FLUI=MELES4,
                         PARA_X='VITE_FLU',
                         PARA_Y='AMOR',
                     TOUT_ORDRE='OUI',
                      NUME_MODE=2
                          )

#

TEST_FONCTION(VALEUR=(_F(VALE_REFE=31.40,
                         VALE_CALC=31.40286865667,
                         REFERENCE='NON_DEFINI',
                         PRECISION=1.E-3,
                         VALE_PARA=1.5,
                         FONCTION=FREQ4_1,
                         ),
                      _F(VALE_REFE=31.40,
                         VALE_CALC=31.40286865689,
                         REFERENCE='NON_DEFINI',
                         PRECISION=1.E-3,
                         VALE_PARA=1.5,
                         FONCTION=FREQ4_2,
                         ),
                      _F(VALE_REFE=9.157E-03,
                         VALE_CALC=9.156813243107E-03,
                         REFERENCE='NON_DEFINI',
                         CRITERE='ABSOLU',
                         PRECISION=1.E-3,
                         VALE_PARA=1.5,
                         FONCTION=AMOR4_1,
                         ),
                      _F(VALE_REFE=9.157E-03,
                         VALE_CALC=9.156813243189E-03,
                         REFERENCE='NON_DEFINI',
                         CRITERE='ABSOLU',
                         PRECISION=1.E-3,
                         VALE_PARA=1.5,
                         FONCTION=AMOR4_2,
                         ),
                      ),
              )

#
# FORCE FLUIDE ELASTIQUE
# ----------------------
# CALCUL AVEC UNE ZONE D EXCITATION DU FLUIDE
# -------------------------------------------
# VITESSE DU FLUIDE: 0.5 M/S ET 1 M/S SUR LA ZONE
# ---------------------------------------------
# CELLULE DE TUBES VIBRANTS CLOTAIRE PROFIL UNIFORME
# --------------------------------------------------
#

TYPEFLU5=DEFI_FLUI_STRU(
                 FAISCEAU_TRANS=_F(
                 COUPLAGE = 'OUI',
                 CARA_ELEM = CARA,
                 PROF_RHO_F_INT = RHOI,
                 PROF_RHO_F_EXT = RHOE,
                 NOM_CMP = 'DX',
                 TYPE_PAS = 'CARRE_LIGN',
                 PAS = 1.5,
                 PROF_VITE_FLUI = PROFVI3,
                 TYPE_RESEAU = 1003)
                           )

#

MELES5=CALC_FLUI_STRU(
             VITE_FLUI=_F(  VITE_MIN = vite_min,
                         VITE_MAX = vite_max,
                         NB_POIN = nb_poin),
               BASE_MODALE=_F(  MODE_MECA  = MODES,
                                NUME_ORDRE = (1,2,),
                                AMOR_UNIF  = 0.03 ),
              TYPE_FLUI_STRU=TYPEFLU5,
                  IMPRESSION=_F(  PARA_COUPLAGE = 'OUI',
                               DEFORMEE = 'NON')
                           )

#

FREQ5_1=RECU_FONCTION(
                 BASE_ELAS_FLUI=MELES5,
                         PARA_X='VITE_FLU',
                         PARA_Y='FREQ',
                     TOUT_ORDRE='OUI',
                      NUME_MODE=1
                          )

FREQ5_2=RECU_FONCTION(
                 BASE_ELAS_FLUI=MELES5,
                         PARA_X='VITE_FLU',
                         PARA_Y='FREQ',
                     TOUT_ORDRE='OUI',
                      NUME_MODE=2
                          )

#

AMOR5_1=RECU_FONCTION(
                 BASE_ELAS_FLUI=MELES5,
                         PARA_X='VITE_FLU',
                         PARA_Y='AMOR',
                     TOUT_ORDRE='OUI',
                      NUME_MODE=1
                          )

AMOR5_2=RECU_FONCTION(
                 BASE_ELAS_FLUI=MELES5,
                         PARA_X='VITE_FLU',
                         PARA_Y='AMOR',
                     TOUT_ORDRE='OUI',
                      NUME_MODE=2
                          )

#

TEST_FONCTION(VALEUR=(_F(VALE_REFE=32.20,
                         VALE_CALC=32.20166887784,
                         REFERENCE='NON_DEFINI',
                         PRECISION=1.E-3,
                         VALE_PARA=1.5,
                         FONCTION=FREQ5_1,
                         ),
                      _F(VALE_REFE=32.20,
                         VALE_CALC=32.20166887802,
                         REFERENCE='NON_DEFINI',
                         PRECISION=1.E-3,
                         VALE_PARA=1.5,
                         FONCTION=FREQ5_2,
                         ),
                      _F(VALE_REFE=5.951E-03,
                         VALE_CALC=5.951453293610E-03,
                         REFERENCE='NON_DEFINI',
                         CRITERE='ABSOLU',
                         PRECISION=1.E-3,
                         VALE_PARA=1.5,
                         FONCTION=AMOR5_1,
                         ),
                      _F(VALE_REFE=5.951E-03,
                         VALE_CALC=5.951453294086E-03,
                         REFERENCE='NON_DEFINI',
                         CRITERE='ABSOLU',
                         PRECISION=1.E-3,
                         VALE_PARA=1.5,
                         FONCTION=AMOR5_2,
                         ),
                      ),
              )

#
# FORCE FLUIDE ELASTIQUE
# ----------------------
# CALCUL AVEC DEUX ZONES D EXCITATION DU FLUIDE
# ---------------------------------------------
# VITESSE DU FLUIDE: 0.5 M/S SUR UNE ZONE ET 1 M/S SUR L AUTRE
# ----------------------------------------------------------
# CELLULE DE TUBES VIBRANTS CLOTAIRE PROFIL UNIFORME
# --------------------------------------------------
#

TYPEFLU6=DEFI_FLUI_STRU( FAISCEAU_TRANS=(
                 _F(
                 COUPLAGE = 'OUI',
                 CARA_ELEM = CARA,
                 PROF_RHO_F_INT = RHOI,
                 PROF_RHO_F_EXT = RHOE,
                 NOM_CMP = 'DX',
                 TYPE_PAS = 'CARRE_LIGN',
                 PAS = 1.5,
                 PROF_VITE_FLUI = PROFVI4A,
                 TYPE_RESEAU = 1003),
                 _F(
                 PROF_VITE_FLUI = PROFVI4B,
                 TYPE_RESEAU = 1003))
                           )

#

MELES6=CALC_FLUI_STRU(
             VITE_FLUI=_F(  VITE_MIN = vite_min,
                         VITE_MAX = vite_max,
                         NB_POIN = nb_poin),
               BASE_MODALE=_F(  MODE_MECA  = MODES,
                                NUME_ORDRE = (1,2,),
                                AMOR_UNIF  = 0.03 ),
              TYPE_FLUI_STRU=TYPEFLU6,
                  IMPRESSION=_F(  PARA_COUPLAGE = 'OUI',
                               DEFORMEE = 'NON')
                           )

#

FREQ6_1=RECU_FONCTION(
                 BASE_ELAS_FLUI=MELES6,
                         PARA_X='VITE_FLU',
                         PARA_Y='FREQ',
                     TOUT_ORDRE='OUI',
                      NUME_MODE=1
                          )

FREQ6_2=RECU_FONCTION(
                 BASE_ELAS_FLUI=MELES6,
                         PARA_X='VITE_FLU',
                         PARA_Y='FREQ',
                     TOUT_ORDRE='OUI',
                      NUME_MODE=2
                          )

#

AMOR6_1=RECU_FONCTION(
                 BASE_ELAS_FLUI=MELES6,
                         PARA_X='VITE_FLU',
                         PARA_Y='AMOR',
                     TOUT_ORDRE='OUI',
                      NUME_MODE=1
                          )

AMOR6_2=RECU_FONCTION(
                 BASE_ELAS_FLUI=MELES6,
                         PARA_X='VITE_FLU',
                         PARA_Y='AMOR',
                     TOUT_ORDRE='OUI',
                      NUME_MODE=2
                          )

#

TEST_FONCTION(VALEUR=(_F(VALE_CALC=32.60393607785,
                         VALE_REFE=32.604652275020001,
                         REFERENCE='NON_DEFINI',
                         PRECISION=1.E-3,
                         VALE_PARA=1.5,
                         FONCTION=FREQ6_1,
                         ),
                      _F(VALE_CALC=32.60393607803,
                         VALE_REFE=32.604652275145,
                         REFERENCE='NON_DEFINI',
                         PRECISION=1.E-3,
                         VALE_PARA=1.5,
                         FONCTION=FREQ6_2,
                         ),
                      _F(VALE_CALC=0.01292797821353,
                         VALE_REFE=0.012930255640873,
                         REFERENCE='NON_DEFINI',
                         CRITERE='ABSOLU',
                         PRECISION=1.E-3,
                         VALE_PARA=1.5,
                         FONCTION=AMOR6_1,
                         ),
                      _F(VALE_CALC=0.01292797821413,
                         VALE_REFE=0.012930255641235001,
                         REFERENCE='NON_DEFINI',
                         CRITERE='ABSOLU',
                         PRECISION=1.E-3,
                         VALE_PARA=1.5,
                         FONCTION=AMOR6_2,
                         ),
                      ),
              )

#
# EXCITATION TURBULENTE
# ---------------------
# CALCUL AVEC UNE ZONE D EXCITATION DU FLUIDE
# -------------------------------------------
# VITESSE DU FLUIDE: 0.5 M/S SUR TOUTE LA ZONE
# ------------------------------------------
# CELLULE DE TUBES VIBRANTS EN DEBUT DE FAISCEAU VISCACHE1
# --------------------------------------------------------
#

PROFVI7=DEFI_FONC_FLUI(
   TITRE='CAS TEST &CODE   COMMANDE &COMMANDE SANS L_TX !!',
                   MAILLAGE=POUTRE,
                 NOEUD_INIT='N001',
                  NOEUD_FIN='N200',
                       VITE=_F(
                               PROFIL = 'UNIFORME',
                               VALE = 0.5)
                           )

#

TYPEFLU7=DEFI_FLUI_STRU(
                 FAISCEAU_TRANS=_F(
                 COUPLAGE = 'OUI',
                 CARA_ELEM = CARA,
                 PROF_RHO_F_INT = RHOI,
                 PROF_RHO_F_EXT = RHOE,
                 NOM_CMP = 'DX',
                 TYPE_PAS = 'CARRE_LIGN',
                 PAS = 1.5,
                 PROF_VITE_FLUI = PROFVI7,
                 TYPE_RESEAU = 1003)
                           )

#

MELES7=CALC_FLUI_STRU(
             VITE_FLUI=_F(  VITE_MIN = vite_min,
                         VITE_MAX = vite_max,
                         NB_POIN = nb_poin),
               BASE_MODALE=_F(  MODE_MECA  = MODES,
                                NUME_ORDRE = (1,2,),
                                AMOR_UNIF  = 0.03 ),
              TYPE_FLUI_STRU=TYPEFLU7,
                  IMPRESSION=_F(  PARA_COUPLAGE = 'OUI',
                               DEFORMEE = 'NON')
                           )

#

FREQ7_1=RECU_FONCTION(
                 BASE_ELAS_FLUI=MELES7,
                         PARA_X='VITE_FLU',
                         PARA_Y='FREQ',
                     TOUT_ORDRE='OUI',
                      NUME_MODE=1
                          )

FREQ7_2=RECU_FONCTION(
                 BASE_ELAS_FLUI=MELES7,
                         PARA_X='VITE_FLU',
                         PARA_Y='FREQ',
                     TOUT_ORDRE='OUI',
                      NUME_MODE=2
                          )

#

AMOR7_1=RECU_FONCTION(
                 BASE_ELAS_FLUI=MELES7,
                         PARA_X='VITE_FLU',
                         PARA_Y='AMOR',
                     TOUT_ORDRE='OUI',
                      NUME_MODE=1
                          )

AMOR7_2=RECU_FONCTION(
                 BASE_ELAS_FLUI=MELES7,
                         PARA_X='VITE_FLU',
                         PARA_Y='AMOR',
                     TOUT_ORDRE='OUI',
                      NUME_MODE=2
                          )

#

TEST_FONCTION(VALEUR=(_F(VALE_CALC=32.28970274072,
                         VALE_REFE=32.290407286433002,
                         REFERENCE='NON_DEFINI',
                         PRECISION=1.E-3,
                         VALE_PARA=1.5,
                         FONCTION=FREQ7_1,
                         ),
                      _F(VALE_CALC=32.28970274090,
                         VALE_REFE=32.290407286552998,
                         REFERENCE='NON_DEFINI',
                         PRECISION=1.E-3,
                         VALE_PARA=1.5,
                         FONCTION=FREQ7_2,
                         ),
                      _F(VALE_CALC=6.075605507857E-03,
                         VALE_REFE=6.0774959041148E-3,
                         REFERENCE='NON_DEFINI',
                         CRITERE='ABSOLU',
                         PRECISION=1.E-3,
                         VALE_PARA=1.5,
                         FONCTION=AMOR7_1,
                         ),
                      _F(VALE_CALC=6.075605508336E-03,
                         VALE_REFE=6.0774959044317999E-3,
                         REFERENCE='NON_DEFINI',
                         CRITERE='ABSOLU',
                         PRECISION=1.E-3,
                         VALE_PARA=1.5,
                         FONCTION=AMOR7_2,
                         ),
                      ),
              )

#

SPECTR7=DEFI_SPEC_TURB(
                  SPEC_LONG_COR_3=_F(
                  LONG_COR = 3.4,
                  PROF_VITE_FLUI = PROFVI7)
                           )

#

SPR7  = [None]*nb_poin
RPM7  = [None]*nb_poin
RPP7  = [None]*nb_poin
STX7  = [None]*nb_poin

for i in range(len(vite)):
  SPR7[i]=PROJ_SPEC_BASE(
                       SPEC_TURB=SPECTR7,
                        NB_POIN=1024,
                        FREQ_INIT= 16.692555 ,
                        FREQ_FIN= 50.077665 ,
                        TOUT_CMP='NON',
                        TOUT='OUI',
                        BASE_ELAS_FLUI=MELES7,
                    VITE_FLUI=vite[i],
                           )

#

  RPM7[i]=DYNA_SPEC_MODAL(
                  BASE_ELAS_FLUI=MELES7,
                    VITE_FLUI=vite[i],
                  EXCIT=_F(  INTE_SPEC_GENE = SPR7[i]),
                          OPTION='TOUT'
                           )

#

  RPP7[i]=REST_SPEC_PHYS(
                 BASE_ELAS_FLUI=MELES7,
                    VITE_FLUI=vite[i],
                 INTE_SPEC_GENE=RPM7[i],
                       GROUP_NO='GR_N100',
                       NOM_CHAM='DEPL',
                        NOM_CMP='DX',
                         OPTION='TOUT_TOUT'
                           )

#

  STX7[i]=POST_DYNA_ALEA(INTERSPECTRE=_F(
                           INTE_SPEC=RPP7[i],
                              OPTION='DIAG'
                           ))

#

# IMPR_TABLE( TABLE=STX7[i],
#             NOM_PARA=('NUME_VITE_FLUI','NOEUD_I','NOEUD_J','ECART',),
#           )

TEST_TABLE(
           VALE_CALC=2.22488120822E-06,
           VALE_REFE=2.2245009941048001E-06,
           REFERENCE='NON_DEFINI',
           PRECISION=1.E-3,
           NOM_PARA='ECART',
           TABLE=STX7_1,
           FILTRE=(_F(NOM_PARA='NOEUD_I',
                      VALE_K='N100',),
                   _F(NOM_PARA='NOEUD_J',
                      VALE_K='N100',),
                   ),
           )

TEST_TABLE(
           VALE_CALC=1.5881571955E-05,
           VALE_REFE=1.5879709874746999E-05,
           REFERENCE='NON_DEFINI',
           PRECISION=1.E-3,
           NOM_PARA='ECART',
           TABLE=STX7_2,
           FILTRE=(_F(NOM_PARA='NOEUD_I',
                      VALE_K='N100',),
                   _F(NOM_PARA='NOEUD_J',
                      VALE_K='N100',),
                   ),
           )

TEST_TABLE(
           VALE_CALC=7.42851748039E-05,
           VALE_REFE=7.4268014427209997E-05,
           REFERENCE='NON_DEFINI',
           PRECISION=1.E-3,
           NOM_PARA='ECART',
           TABLE=STX7_3,
           FILTRE=(_F(NOM_PARA='NOEUD_I',
                      VALE_K='N100',),
                   _F(NOM_PARA='NOEUD_J',
                      VALE_K='N100',),
                   ),
           )

#
# EXCITATION TURBULENTE
# ---------------------
# CALCUL AVEC DEUX ZONES D EXCITATION DU FLUIDE
# ---------------------------------------------
# VITESSE DU FLUIDE: 0.5 M/S SUR LES DEUX ZONES
# -------------------------------------------
# CELLULE DE TUBES VIBRANTS EN DEBUT DE FAISCEAU VISCACHE1
# --------------------------------------------------------
#

PROFVI8A=DEFI_FONC_FLUI(
   TITRE='CAS TEST &CODE   COMMANDE &COMMANDE SANS L_TX !!',
                   MAILLAGE=POUTRE,
                 NOEUD_INIT='N001',
                  NOEUD_FIN='N100',
                       VITE=_F(
                               PROFIL = 'UNIFORME',
                               VALE = 0.5)
                           )

#

PROFVI8B=DEFI_FONC_FLUI(
   TITRE='CAS TEST &CODE   COMMANDE &COMMANDE SANS L_TX !!',
                   MAILLAGE=POUTRE,
                 NOEUD_INIT='N101',
                  NOEUD_FIN='N200',
                       VITE=_F(
                               PROFIL = 'UNIFORME',
                               VALE = 0.5)
                           )

#

TYPEFLU8=DEFI_FLUI_STRU( FAISCEAU_TRANS=(
                 _F(
                 COUPLAGE = 'OUI',
                 CARA_ELEM = CARA,
                 PROF_RHO_F_INT = RHOI,
                 PROF_RHO_F_EXT = RHOE,
                 NOM_CMP = 'DX',
                 TYPE_PAS = 'CARRE_LIGN',
                 PAS = 1.5,
                 PROF_VITE_FLUI = PROFVI8A,
                 TYPE_RESEAU = 1003),
                 _F(
                 PROF_VITE_FLUI = PROFVI8B,
                 TYPE_RESEAU = 1003))
                           )

#

MELES8=CALC_FLUI_STRU(
             VITE_FLUI=_F(  VITE_MIN = vite_min,
                         VITE_MAX = vite_max,
                         NB_POIN = nb_poin),
               BASE_MODALE=_F(  MODE_MECA  = MODES,
                                NUME_ORDRE = (1,2,),
                                AMOR_UNIF  = 0.03 ),
              TYPE_FLUI_STRU=TYPEFLU8,
                  IMPRESSION=_F(  PARA_COUPLAGE = 'OUI',
                               DEFORMEE = 'NON')
                           )

#

FREQ8_1=RECU_FONCTION(
                 BASE_ELAS_FLUI=MELES8,
                         PARA_X='VITE_FLU',
                         PARA_Y='FREQ',
                     TOUT_ORDRE='OUI',
                      NUME_MODE=1
                          )

FREQ8_2=RECU_FONCTION(
                 BASE_ELAS_FLUI=MELES8,
                         PARA_X='VITE_FLU',
                         PARA_Y='FREQ',
                     TOUT_ORDRE='OUI',
                      NUME_MODE=2
                          )

#

AMOR8_1=RECU_FONCTION(
                 BASE_ELAS_FLUI=MELES8,
                         PARA_X='VITE_FLU',
                         PARA_Y='AMOR',
                     TOUT_ORDRE='OUI',
                      NUME_MODE=1
                          )

AMOR8_2=RECU_FONCTION(
                 BASE_ELAS_FLUI=MELES8,
                         PARA_X='VITE_FLU',
                         PARA_Y='AMOR',
                     TOUT_ORDRE='OUI',
                      NUME_MODE=2
                          )

#

TEST_FONCTION(VALEUR=(_F(VALE_CALC=32.28970274072,
                         VALE_REFE=32.290407286433002,
                         REFERENCE='NON_DEFINI',
                         PRECISION=1.E-3,
                         VALE_PARA=1.5,
                         FONCTION=FREQ8_1,
                         ),
                      _F(VALE_CALC=32.28970274090,
                         VALE_REFE=32.290407286552998,
                         REFERENCE='NON_DEFINI',
                         PRECISION=1.E-3,
                         VALE_PARA=1.5,
                         FONCTION=FREQ8_2,
                         ),
                      _F(VALE_CALC=6.075605507857E-03,
                         VALE_REFE=6.0774959041148E-3,
                         REFERENCE='NON_DEFINI',
                         CRITERE='ABSOLU',
                         PRECISION=1.E-3,
                         VALE_PARA=1.5,
                         FONCTION=AMOR8_1,
                         ),
                      _F(VALE_CALC=6.075605508336E-03,
                         VALE_REFE=6.0774959044317999E-3,
                         REFERENCE='NON_DEFINI',
                         CRITERE='ABSOLU',
                         PRECISION=1.E-3,
                         VALE_PARA=1.5,
                         FONCTION=AMOR8_2,
                         ),
                      ),
              )

#

SPECTR8A=DEFI_SPEC_TURB(
                  SPEC_LONG_COR_3=_F(
                  LONG_COR = 3.4,
                  PROF_VITE_FLUI = PROFVI8A)
                           )

#

SPECTR8B=DEFI_SPEC_TURB(
                  SPEC_LONG_COR_3=_F(
                  LONG_COR = 3.4,
                  PROF_VITE_FLUI = PROFVI8B)
                           )

#

SPR8  = [None]*nb_poin
RPM8  = [None]*nb_poin
RPP8  = [None]*nb_poin
STX8  = [None]*nb_poin

for i in range(len(vite)):
  SPR8[i]=PROJ_SPEC_BASE(
                        SPEC_TURB=( SPECTR8A, SPECTR8B, ),
                        NB_POIN=1024,
                        FREQ_INIT= 16.692555 ,
                        FREQ_FIN= 50.077665 ,
                        TOUT_CMP='NON',
                        TOUT='OUI',
                        BASE_ELAS_FLUI=MELES8,
                    VITE_FLUI=vite[i],
                           )

#

  RPM8[i]=DYNA_SPEC_MODAL(
                  BASE_ELAS_FLUI=MELES8,
                    VITE_FLUI=vite[i],
                  EXCIT=_F(  INTE_SPEC_GENE = SPR8[i])
                           )

#

  RPP8[i]=REST_SPEC_PHYS(
                 BASE_ELAS_FLUI=MELES8,
                    VITE_FLUI=vite[i],
                 INTE_SPEC_GENE=RPM8[i],
                          NOEUD='N100',
                       NOM_CHAM='DEPL',
                        NOM_CMP='DX',
                         OPTION='TOUT_TOUT'
                           )

#

  STX8[i]=POST_DYNA_ALEA(INTERSPECTRE=_F(
                           INTE_SPEC=RPP8[i],
                               OPTION='DIAG'
                           ))

#

# IMPR_TABLE( TABLE=STX8[i],
#             NOM_PARA=('NUME_VITE_FLUI','NOEUD_I','NOEUD_J','ECART',),
#           )

TEST_TABLE(
           VALE_CALC=2.07003136951E-06,
           VALE_REFE=2.0696652715740001E-06,
           REFERENCE='NON_DEFINI',
           PRECISION=1.E-3,
           NOM_PARA='ECART',
           TABLE=STX8_1,
           FILTRE=(_F(NOM_PARA='NOEUD_I',
                      VALE_K='N100',),
                   _F(NOM_PARA='NOEUD_J',
                      VALE_K='N100',),
                   ),
           )

TEST_TABLE(
           VALE_CALC=1.47762280622E-05,
           VALE_REFE=1.4774407445775E-05,
           REFERENCE='NON_DEFINI',
           PRECISION=1.E-3,
           NOM_PARA='ECART',
           TABLE=STX8_2,
           FILTRE=(_F(NOM_PARA='NOEUD_I',
                      VALE_K='N100',),
                   _F(NOM_PARA='NOEUD_J',
                      VALE_K='N100',),
                   ),
           )

TEST_TABLE(
           VALE_CALC=6.91149898546E-05,
           VALE_REFE=6.9098611623958994E-05,
           REFERENCE='NON_DEFINI',
           PRECISION=1.E-3,
           NOM_PARA='ECART',
           TABLE=STX8_3,
           FILTRE=(_F(NOM_PARA='NOEUD_I',
                      VALE_K='N100',),
                   _F(NOM_PARA='NOEUD_J',
                      VALE_K='N100',),
                   ),
           )

#
# EXCITATION TURBULENTE
# ---------------------
# CALCUL AVEC UNE ZONE D EXCITATION DU FLUIDE
# -------------------------------------------
# VITESSE DU FLUIDE: 1 M/S SUR TOUTE LA ZONE
# ------------------------------------------
# CELLULE DE TUBES VIBRANTS EN DEBUT DE FAISCEAU VISCACHE1
# --------------------------------------------------------
#

SPECTR9=DEFI_SPEC_TURB(
                  SPEC_LONG_COR_3=_F(
                  LONG_COR = 3.4,
                  PROF_VITE_FLUI = PROFVI1)
                           )

#

SPR9  = [None]*nb_poin
RPM9  = [None]*nb_poin
RPP9  = [None]*nb_poin
STX9  = [None]*nb_poin

for i in range(len(vite)):
  SPR9[i]=PROJ_SPEC_BASE(
                      SPEC_TURB=( SPECTR9, ),
                        NB_POIN=1024,
                        FREQ_INIT= 16.692555 ,
                        FREQ_FIN= 50.077665 ,
                        TOUT_CMP='NON',
                        TOUT='OUI',
                        BASE_ELAS_FLUI=MELES1,
                    VITE_FLUI=vite[i],
                           )

#

  RPM9[i]=DYNA_SPEC_MODAL(
                  BASE_ELAS_FLUI=MELES1,
                    VITE_FLUI=vite[i],
                  EXCIT=_F(  INTE_SPEC_GENE = SPR9[i])
                           )

#

  RPP9[i]=REST_SPEC_PHYS(
                 BASE_ELAS_FLUI=MELES1,
                    VITE_FLUI=vite[i],
                 INTE_SPEC_GENE=RPM9[i],
                          NOEUD='N100',
                       NOM_CHAM='DEPL',
                        NOM_CMP='DX',
                         OPTION='TOUT_TOUT'
                           )

#

  STX9[i]=POST_DYNA_ALEA(INTERSPECTRE=_F(
                           INTE_SPEC=RPP9[i],
                                OPTION='DIAG'
                           ))

#

# IMPR_TABLE( TABLE=STX9[i],
#            NOM_PARA=('NUME_VITE_FLUI','NOEUD_I','NOEUD_J','ECART',),
#          )

TEST_TABLE(
           VALE_CALC=5.3652595616E-06,
           VALE_REFE=5.3645293500426998E-06,
           REFERENCE='NON_DEFINI',
           PRECISION=1.E-3,
           NOM_PARA='ECART',
           TABLE=STX9_1,
           FILTRE=(_F(NOM_PARA='NOEUD_I',
                      VALE_K='N100',),
                   _F(NOM_PARA='NOEUD_J',
                      VALE_K='N100',),
                   ),
           )

TEST_TABLE(
           VALE_CALC=2.59626719354E-05,
           VALE_REFE=2.5960351119112001E-05,
           REFERENCE='NON_DEFINI',
           PRECISION=1.E-3,
           NOM_PARA='ECART',
           TABLE=STX9_2,
           FILTRE=(_F(NOM_PARA='NOEUD_I',
                      VALE_K='N100',),
                   _F(NOM_PARA='NOEUD_J',
                      VALE_K='N100',),
                   ),
           )

TEST_TABLE(
           VALE_CALC=6.15631762491E-05,
           VALE_REFE=6.1557954058177004E-05,
           REFERENCE='NON_DEFINI',
           PRECISION=1.E-3,
           NOM_PARA='ECART',
           TABLE=STX9_3,
           FILTRE=(_F(NOM_PARA='NOEUD_I',
                      VALE_K='N100',),
                   _F(NOM_PARA='NOEUD_J',
                      VALE_K='N100',),
                   ),
           )

#
# EXCITATION TURBULENTE
# ---------------------
# CALCUL AVEC DEUX ZONES D EXCITATION DU FLUIDE
# ---------------------------------------------
# VITESSE DU FLUIDE: 1 M/S SUR LES DEUX ZONES
# -------------------------------------------
# CELLULE DE TUBES VIBRANTS EN DEBUT DE FAISCEAU VISCACHE1
# --------------------------------------------------------
#

SPECT10A=DEFI_SPEC_TURB(
                  SPEC_LONG_COR_3=_F(
                  LONG_COR = 3.4,
                  PROF_VITE_FLUI = PROFVI2A)
                           )

#

SPECT10B=DEFI_SPEC_TURB(
                  SPEC_LONG_COR_3=_F(
                  LONG_COR = 3.4,
                  PROF_VITE_FLUI = PROFVI2B)
                           )

#

SPR10  = [None]*nb_poin
RPM10  = [None]*nb_poin
RPP10  = [None]*nb_poin
STX10  = [None]*nb_poin

for i in range(len(vite)):
  SPR10[i]=PROJ_SPEC_BASE(
                         SPEC_TURB=( SPECT10A, SPECT10B, ),
                         NB_POIN=1024,
                         FREQ_INIT= 16.692555 ,
                         FREQ_FIN= 50.077665 ,
                         TOUT_CMP='NON',
                         TOUT='OUI',
                         BASE_ELAS_FLUI=MELES2,
                    VITE_FLUI=vite[i],
                           )

#

  RPM10[i]=DYNA_SPEC_MODAL(
                   BASE_ELAS_FLUI=MELES2,
                    VITE_FLUI=vite[i],
                   EXCIT=_F(  INTE_SPEC_GENE = SPR10[i])
                            )

#

  RPP10[i]=REST_SPEC_PHYS(
                 BASE_ELAS_FLUI=MELES2,
                    VITE_FLUI=vite[i],
                 INTE_SPEC_GENE=RPM10[i],
                       GROUP_NO='GR_N100',
                       NOM_CHAM='DEPL',
                        NOM_CMP='DX',
                         OPTION='TOUT_TOUT'
                           )

#

  STX10[i]=POST_DYNA_ALEA(INTERSPECTRE=_F(
                            INTE_SPEC=RPP10[i],
                                OPTION='DIAG'
                            ))

#

# IMPR_TABLE( TABLE=STX10[i],
#             NOM_PARA=('NUME_VITE_FLUI','NOEUD_I','NOEUD_J','ECART',),
#           )

TEST_TABLE(
           VALE_CALC=4.99184206197E-06,
           VALE_REFE=4.9911328983653999E-06,
           REFERENCE='NON_DEFINI',
           PRECISION=1.E-3,
           NOM_PARA='ECART',
           TABLE=STX10_1,
           FILTRE=(_F(NOM_PARA='NOEUD_I',
                      VALE_K='N100',),
                   _F(NOM_PARA='NOEUD_J',
                      VALE_K='N100',),
                   ),
           )

TEST_TABLE(
           VALE_CALC=2.4155692063E-05,
           VALE_REFE=2.4153388688736999E-05,
           REFERENCE='NON_DEFINI',
           PRECISION=1.E-3,
           NOM_PARA='ECART',
           TABLE=STX10_2,
           FILTRE=(_F(NOM_PARA='NOEUD_I',
                      VALE_K='N100',),
                   _F(NOM_PARA='NOEUD_J',
                      VALE_K='N100',),
                   ),
           )

TEST_TABLE(
           VALE_CALC=5.72784315727E-05,
           VALE_REFE=5.7273231183531003E-05,
           REFERENCE='NON_DEFINI',
           PRECISION=1.E-3,
           NOM_PARA='ECART',
           TABLE=STX10_3,
           FILTRE=(_F(NOM_PARA='NOEUD_I',
                      VALE_K='N100',),
                   _F(NOM_PARA='NOEUD_J',
                      VALE_K='N100',),
                   ),
           )

#

FIN()
#
