# TITRE CAMPBELL POUR UN ROTOR AVEC PALIERS A CARACTERISTIQUES VARIABLES
# ======================================================================
# COPYRIGHT (C) 1991 - 2012  EDF R&D                  WWW.CODE-ASTER.ORG
# THIS PROGRAM IS FREE SOFTWARE; YOU CAN REDISTRIBUTE IT AND/OR MODIFY  
# IT UNDER THE TERMS OF THE GNU GENERAL PUBLIC LICENSE AS PUBLISHED BY  
# THE FREE SOFTWARE FOUNDATION; EITHER VERSION 2 OF THE LICENSE, OR     
# (AT YOUR OPTION) ANY LATER VERSION.                                                    
#                                                                       
# THIS PROGRAM IS DISTRIBUTED IN THE HOPE THAT IT WILL BE USEFUL, BUT   
# WITHOUT ANY WARRANTY; WITHOUT EVEN THE IMPLIED WARRANTY OF            
# MERCHANTABILITY OR FITNESS FOR A PARTICULAR PURPOSE. SEE THE GNU      
# GENERAL PUBLIC LICENSE FOR MORE DETAILS.                              
#                                                                       
# YOU SHOULD HAVE RECEIVED A COPY OF THE GNU GENERAL PUBLIC LICENSE     
# ALONG WITH THIS PROGRAM; IF NOT, WRITE TO EDF R&D CODE_ASTER,         
#    1 AVENUE DU GENERAL DE GAULLE, 92141 CLAMART CEDEX, FRANCE.        
# ======================================================================
# person_in_charge: mohamed.torkhani at edf.fr
#

import numpy as NP
from Utilitai.Table import Table

DEBUT(CODE=_F(
              NIV_PUB_WEB='INTERNET',
              VISU_EFICAS='OUI',),
              PAR_LOT='OUI',
              DEBUG=_F(SDVERI='OUI'),);

K1YY=DEFI_FONCTION(NOM_PARA='INST',
                   VALE=(0.0,    0.9000000e+08,
                         5000.0, 0.9000000e+08,
                         6500.0, 1.0000000e+08,
                         8000.0, 1.1000000e+08,
                         10000.0,1.1500000e+08,
                         14000.0,1.2000000e+08,),
                   PROL_DROITE='CONSTANT',
                   PROL_GAUCHE='EXCLU',
                   );

K1YX=DEFI_FONCTION(NOM_PARA='INST',
                   NOM_RESU='K1YX',
                   VALE=(0.0,    -0.9000000e+05,
                         5000.0, -0.9000000e+05,
                         6500.0, -1.5000000e+05,
                         8000.0, -2.0000000e+05,
                         10000.0,-3.5000000e+05,
                         14000.0,-7.0000000e+05,),
                   PROL_DROITE='CONSTANT',
                   PROL_GAUCHE='CONSTANT',
                   );

K1XY=DEFI_FONCTION(NOM_PARA='INST',
                   NOM_RESU='K1XY',
                   VALE=(0.0,    0.9000000e+05,
                         5000.0, 0.9000000e+05,
                         6500.0, 1.5000000e+05,
                         8000.0, 2.0000000e+05,
                         10000.0,3.5000000e+05,
                         14000.0,7.0000000e+05,),
                   PROL_DROITE='CONSTANT',
                   PROL_GAUCHE='CONSTANT',
                   );

K1XX=DEFI_FONCTION(NOM_PARA='INST',
                   NOM_RESU='K1XX',
                   VALE=(0.0,    5.0000000e+08,
                         5000.0, 5.0000000e+08,
                         6500.0, 4.0000000e+08,
                         8000.0, 3.5000000e+08,
                         10000.0,3.3000000e+08,
                         14000.0,3.0000000e+08,),
                   PROL_DROITE='CONSTANT',
                   PROL_GAUCHE='CONSTANT',
                   );

C1YY=DEFI_FONCTION(NOM_PARA='INST',
                   NOM_RESU='C1YY',
                   VALE=(0.0,    1.5000000e+05,
                         5000.0, 1.5000000e+05,
                         6500.0, 1.3000000e+05,
                         8000.0, 1.1000000e+05,
                         10000.0,1.0000000e+05,
                         14000.0,0.7000000e+05,),
                   PROL_DROITE='CONSTANT',
                   PROL_GAUCHE='CONSTANT',
                   );

C1YX=DEFI_FONCTION(NOM_PARA='INST',
                   NOM_RESU='C1YX',
                   VALE=(0.0,    1.0000000e+02,
                         5000.0, 1.0000000e+02,
                         6500.0, 1.0000000e+02,
                         8000.0, 2.0000000e+02,
                         10000.0,2.0000000e+02,
                         14000.0,3.0000000e+02,),
                   PROL_DROITE='CONSTANT',
                   PROL_GAUCHE='CONSTANT',
                   );

C1XY=DEFI_FONCTION(NOM_PARA='INST',
                   NOM_RESU='C1XY',
                   VALE=(0.0,    -1.0000000e+02,
                         5000.0, -1.0000000e+02,
                         6500.0, -1.0000000e+02,
                         8000.0, -2.0000000e+02,
                         10000.0,-3.0000000e+02,
                         14000.0,-4.0000000e+02,),
                   PROL_DROITE='CONSTANT',
                   PROL_GAUCHE='CONSTANT',
                   );

C1XX=DEFI_FONCTION(NOM_PARA='INST',
                   NOM_RESU='C1XX',
                   VALE=(0.0,    4.5000000e+05,
                         5000.0, 4.5000000e+05,
                         6500.0, 3.3000000e+05,
                         8000.0, 2.6000000e+05,
                         10000.0,2.0000000e+05,
                         14000.0,1.5000000e+05,),
                   PROL_DROITE='CONSTANT',
                   PROL_GAUCHE='CONSTANT',
                   );

K2YY=DEFI_FONCTION(NOM_PARA='INST',
                   NOM_RESU='K2YY',
                   VALE=(0.0,    0.6000000e+08,
                         5000.0, 0.6000000e+08,
                         6500.0, 0.7000000e+08,
                         8000.0, 0.8000000e+08,
                         10000.0,0.9000000e+08,
                         14000.0,1.0000000e+08,),
                   PROL_DROITE='CONSTANT',
                   PROL_GAUCHE='CONSTANT',
                   );

K2YX=DEFI_FONCTION(NOM_PARA='INST',
                   NOM_RESU='K2YX',
                   VALE=(0.0,    -0.8000000e+05,
                         5000.0, -0.8000000e+05,
                         6500.0, -1.3000000e+05,
                         8000.0, -2.0000000e+05,
                         10000.0,-3.0000000e+05,
                         14000.0,-6.0000000e+05,),
                   PROL_DROITE='CONSTANT',
                   PROL_GAUCHE='CONSTANT',
                   );

K2XY=DEFI_FONCTION(NOM_PARA='INST',
                   NOM_RESU='K2XY',
                   VALE=(0.0,    0.8000000e+05,
                         5000.0, 0.8000000e+05,
                         6500.0, 1.3000000e+05,
                         8000.0, 2.0000000e+05,
                         10000.0,3.0000000e+05,
                         14000.0,6.0000000e+05,),
                   PROL_DROITE='CONSTANT',
                   PROL_GAUCHE='CONSTANT',
                   );

K2XX=DEFI_FONCTION(NOM_PARA='INST',
                   NOM_RESU='K2XX',
                   VALE=(0.0,    1.5000000e+08,
                         5000.0, 1.5000000e+08,
                         6500.0, 1.4000000e+08,
                         8000.0, 1.4000000e+08,
                         10000.0,1.4000000e+08,
                         14000.0,1.4000000e+08,),
                   PROL_DROITE='CONSTANT',
                   PROL_GAUCHE='CONSTANT',
                   );

C2YY=DEFI_FONCTION(NOM_PARA='INST',
                   NOM_RESU='C2YY',
                   VALE=(0.0,    1.2000000e+05,
                         5000.0, 1.2000000e+05,
                         6500.0, 1.0000000e+05,
                         8000.0, 0.9000000e+05,
                         10000.0,0.8000000e+05,
                         14000.0,0.6000000e+05,),
                   PROL_DROITE='CONSTANT',
                   PROL_GAUCHE='CONSTANT',
                   );

C2YX=DEFI_FONCTION(NOM_PARA='INST',
                   NOM_RESU='C2YX',
                   VALE=(0.0,    1.0000000e+02,
                         5000.0, 1.0000000e+02,
                         6500.0, 1.0000000e+02,
                         8000.0, 2.0000000e+02,
                         10000.0,2.0000000e+02,
                         14000.0,3.0000000e+02,),
                   PROL_DROITE='CONSTANT',
                   PROL_GAUCHE='CONSTANT',
                   );

C2XY=DEFI_FONCTION(NOM_PARA='INST',
                   NOM_RESU='C2XY',
                   VALE=(0.0,    -1.0000000e+02,
                         5000.0, -1.0000000e+02,
                         6500.0, -1.0000000e+02,
                         8000.0, -2.0000000e+02,
                         10000.0,-2.0000000e+02,
                         14000.0,-3.0000000e+02,),
                   PROL_DROITE='CONSTANT',
                   PROL_GAUCHE='CONSTANT',
                   );

C2XX=DEFI_FONCTION(NOM_PARA='INST',
                   NOM_RESU='C2XX',
                   VALE=(0.0,    1.9000000e+05,
                         5000.0, 1.9000000e+05,
                         6500.0, 1.5000000e+05,
                         8000.0, 1.3000000e+05,
                         10000.0,1.0000000e+05,
                         14000.0,0.8000000e+05,),
                   PROL_DROITE='CONSTANT',
                   PROL_GAUCHE='CONSTANT',
                   );

mail=LIRE_MAILLAGE();

# ---------------------
# DEFINITION DU MATERIAU
# ---------------------
acier=DEFI_MATERIAU(ELAS=_F(E=2.e11,
                            NU=0.3,
                            RHO=7800,),);

# ---------------------
# AFFECTATION DU MODELE
# ---------------------
modele=AFFE_MODELE(MAILLAGE=mail,
                   AFFE=(_F(GROUP_MA='ROTOR',
                            PHENOMENE='MECANIQUE',
                            MODELISATION='POU_D_T',),
                         _F(GROUP_MA=('DISQ1','DISQ2','DISQ3','PALIER1','PALIER2'),
                            PHENOMENE='MECANIQUE',
                            MODELISATION='DIS_TR',),),);

# -----------------------
# AFFECTATION DU MATERIAU
# -----------------------
chmat=AFFE_MATERIAU(MAILLAGE=mail,
                    AFFE=_F(GROUP_MA='ROTOR',
                            MATER=acier,),);

# ------------------
# CONDITIONS AUX LIMITES
# ------------------
blocage=AFFE_CHAR_MECA(MODELE=modele,
                     DDL_IMPO=(_F(GROUP_NO=('PALIER1',),
                                  DZ=0,
                                  ),))
                                    
cara1=AFFE_CARA_ELEM(MODELE=modele,
                    POUTRE=(_F(GROUP_MA='SA1',
                              SECTION='CERCLE',
                              CARA=('R','EP'),
                              VALE=(0.08,0.02,),),
                            _F(GROUP_MA='SA2',
                              SECTION='CERCLE',
                              CARA='R',
                              VALE=0.08,),
                            _F(GROUP_MA='SA3',
                              SECTION='CERCLE',
                              CARA='R',
                              VALE=0.045,),
                            _F(GROUP_MA='SA4',
                              SECTION='CERCLE',
                              CARA='R',
                              VALE=0.03,),),
                    DISCRET=(_F(CARA='M_TR_D_N',
                                GROUP_MA='DISQ1',
                                REPERE='LOCAL',
                                VALE=(2.00E+01,4.00E-01, 
                                2.00E-01,2.00E-01,0,0,0,0,0,0,),),
                             _F(CARA='K_TR_D_N',
                                GROUP_MA='DISQ1',
                                REPERE='LOCAL',
                                VALE=(0,0,0,0,0,0,),),
                             _F(CARA='A_TR_D_N',
                                GROUP_MA='DISQ1',
                                REPERE='LOCAL',
                                VALE=(0,0,0,0,0,0,),),
                             _F(CARA='M_TR_D_N',
                                GROUP_MA='DISQ2',
                                REPERE='LOCAL',
                                VALE=(1.70E+01,3.40E-01, 
                                1.70E-01,1.70E-01,0,0,0,0,0,0,),),
                             _F(CARA='K_TR_D_N',
                                GROUP_MA='DISQ2',
                                REPERE='LOCAL',
                                VALE=(0,0,0,0,0,0,),),
                             _F(CARA='A_TR_D_N',
                                GROUP_MA='DISQ2',
                                REPERE='LOCAL',
                                VALE=(0,0,0,0,0,0,),),
                             _F(CARA='M_TR_D_N',
                                GROUP_MA='DISQ3',
                                REPERE='LOCAL',
                                VALE=(1.00E+01,3.00E-02, 
                                1.50E-02,1.50E-02,0,0,0,0,0,0,),),
                             _F(CARA='K_TR_D_N',
                                GROUP_MA='DISQ3',
                                REPERE='LOCAL',
                                VALE=(0,0,0,0,0,0,),),
                             _F(CARA='A_TR_D_N',
                                GROUP_MA='DISQ3',
                                REPERE='LOCAL',
                                VALE=(0,0,0,0,0,0,),),
                             _F(GROUP_MA='PALIER1',
                                CARA='K_TR_D_N',
                                SYME='OUI',
                                VALE=(3.0000000e+08,0.9000000e+08,0.,0.,0.,0. ) ),
                             _F(GROUP_MA='PALIER2',
                                CARA='K_TR_D_N',
                                SYME='OUI',
                                VALE=(1.4000000e+08,0.6000000e+08,0.,0.,0.,0. ) ),
                             ),
                      ORIENTATION=_F(GROUP_MA=('DISQ1','DISQ2','DISQ3'),
                                      CARA='ANGL_NAUT',
                                      VALE=(0.,-90.,0.,),),
                        );

ASSEMBLAGE(MODELE=modele,
                CHAM_MATER=chmat,
                CARA_ELEM=cara1,
                CHARGE=blocage,
                NUME_DDL=CO('NUMEDDL'),
                MATR_ASSE=(_F(MATRICE=CO('RIGIDIT1'),
                              OPTION='RIGI_MECA',),
                           _F(MATRICE=CO('MASSE1'),
                              OPTION='MASS_MECA',),
                           _F(MATRICE=CO('AMOR1'),
                              OPTION='AMOR_MECA',),),);

MODET=MODE_ITER_SIMULT(MATR_RIGI=RIGIDIT1,
                       MATR_MASS=MASSE1,
                       METHODE='SORENSEN',
                       CALC_FREQ=_F(OPTION='BANDE',
                                    FREQ=(0.1,25000),));

MODES=EXTR_MODE(FILTRE_MODE=_F(MODE=MODET,
                               NUME_ORDRE=(1,2,3,4,5,6,8,9,11,12,15,16,18,19,20,21,23,24,26,
                                           27,28,29,32,33,37,38,39,40,42,43,46,47,50,51,52,
                                           53,55,56,58,59),),)

DEBV=0.0;
FINV=20000;
PASV = 500.0;
nbF=12;
VIT=NP.arange(DEBV,FINV+1,PASV);
nbV=len(VIT);
L_VITROT=[VIT[ii]*2*pi/60. for ii in range(nbV)];

cara=[None]*nbV
RIGI=[None]*nbV
MASS=[None]*nbV
AMOR=[None]*nbV
GYOM=[None]*nbV
GYAS=[None]*nbV
RIGE=[None]*nbV
MAGE=[None]*nbV
AMGE=[None]*nbV
GYGE=[None]*nbV
OMGE=[None]*nbV
NUME=[None]*nbV

_mod1=[None]*nbV;
_mod2=[None]*nbV;
tab=Table()

for kk in range(0,nbV,1) :

   # --------------------------------
   # DEF DES SECTIONS et des RAIDEURS
   # --------------------------------
   OM=L_VITROT[kk]
   RPM=OM*60/(2*pi)
   nom = 'OM_'+str(kk)
   cara[kk]=AFFE_CARA_ELEM(MODELE=modele,
                    POUTRE=(_F(GROUP_MA='SA1',
                              SECTION='CERCLE',
                              CARA=('R','EP'),
                              VALE=(0.08,0.02,),),
                            _F(GROUP_MA='SA2',
                              SECTION='CERCLE',
                              CARA='R',
                              VALE=0.08,),
                            _F(GROUP_MA='SA3',
                              SECTION='CERCLE',
                              CARA='R',
                              VALE=0.045,),
                            _F(GROUP_MA='SA4',
                              SECTION='CERCLE',
                              CARA='R',
                              VALE=0.03,),),
                    DISCRET=(_F(CARA='M_TR_D_N',
                                GROUP_MA='DISQ1',
                                REPERE='LOCAL',
                                VALE=(2.00E+01,4.00E-01, 
                                2.00E-01,2.00E-01,0,0,0,0,0,0,),),
                             _F(CARA='K_TR_D_N',
                                GROUP_MA='DISQ1',
                                REPERE='LOCAL',
                                VALE=(0,0,0,0,0,0,),),
                             _F(CARA='A_TR_D_N',
                                GROUP_MA='DISQ1',
                                REPERE='LOCAL',
                                VALE=(0,0,0,0,0,0,),),
                             _F(CARA='M_TR_D_N',
                                GROUP_MA='DISQ2',
                                REPERE='LOCAL',
                                VALE=(1.70E+01,3.40E-01, 
                                1.70E-01,1.70E-01,0,0,0,0,0,0,),),
                             _F(CARA='K_TR_D_N',
                                GROUP_MA='DISQ2',
                                REPERE='LOCAL',
                                VALE=(0,0,0,0,0,0,),),
                             _F(CARA='A_TR_D_N',
                                GROUP_MA='DISQ2',
                                REPERE='LOCAL',
                                VALE=(0,0,0,0,0,0,),),
                             _F(CARA='M_TR_D_N',
                                GROUP_MA='DISQ3',
                                REPERE='LOCAL',
                                VALE=(1.00E+01,3.00E-02, 
                                1.50E-02,1.50E-02,0,0,0,0,0,0,),),
                             _F(CARA='K_TR_D_N',
                                GROUP_MA='DISQ3',
                                REPERE='LOCAL',
                                VALE=(0,0,0,0,0,0,),),
                             _F(CARA='A_TR_D_N',
                                GROUP_MA='DISQ3',
                                REPERE='LOCAL',
                                VALE=(0,0,0,0,0,0,),),
                             _F(GROUP_MA='PALIER1',
                                   CARA='K_TR_N',
                                   SYME='NON',
                                   VALE = ( K1XX(RPM),   K1YX(RPM),   0.,   0.,   0.,   0.,  K1XY(RPM),   K1YY(RPM),   0.,   0.,
                                   0.,   0.,   0.,   0.,   0.,   0.,   0.,   0.,   0.,   0.,
                                   0.,   0.,   0.,   0.,   0.,   0.,   0.,   0.,   0.,   0.,
                                   0.,   0.,   0.,   0.,   0.,   0.,),),
                             _F(GROUP_MA='PALIER1',
                                   CARA='A_TR_N',
                                   SYME='NON',
                                   VALE = ( C1XX(RPM),   C1YX(RPM),   0.,   0.,   0.,   0.,  C1XY(RPM),   C1YY(RPM),   0.,   0.,
                                   0.,   0.,   0.,   0.,   0.,   0.,   0.,   0.,   0.,   0.,
                                   0.,   0.,   0.,   0.,   0.,   0.,   0.,   0.,   0.,   0.,
                                   0.,   0.,   0.,   0.,   0.,   0.,),),
                             _F(GROUP_MA='PALIER2',
                                   CARA='K_TR_N',
                                   SYME='NON',
                                   VALE = ( K2XX(RPM),   K2YX(RPM),   0.,   0.,   0.,   0.,  K2XY(RPM),   K2YY(RPM),   0.,   0.,
                                   0.,   0.,   0.,   0.,   0.,   0.,   0.,   0.,   0.,   0.,
                                   0.,   0.,   0.,   0.,   0.,   0.,   0.,   0.,   0.,   0.,
                                   0.,   0.,   0.,   0.,   0.,   0.,),),
                             _F(GROUP_MA='PALIER2',
                                   CARA='A_TR_N',
                                   SYME='NON',
                                   VALE = ( C2XX(RPM),   C2YX(RPM),   0.,   0.,   0.,   0.,  C2XY(RPM),   C2YY(RPM),   0.,   0.,
                                   0.,   0.,   0.,   0.,   0.,   0.,   0.,   0.,   0.,   0.,
                                   0.,   0.,   0.,   0.,   0.,   0.,   0.,   0.,   0.,   0.,
                                   0.,   0.,   0.,   0.,   0.,   0.,),),
                           ),
                      ORIENTATION=_F(GROUP_MA=('DISQ1','DISQ2','DISQ3'),
                                      CARA='ANGL_NAUT',
                                      VALE=(0.,-90.,0.,),),
                        );

   # --------------------------------
   #MATRICES ASSEMBLEES K, M
   # --------------------------------
   
   RIGI[kk]=CO('RIGI_%d' % (kk))
   MASS[kk]=CO('MASS_%d' % (kk))
   AMOR[kk]=CO('AMOR_%d' % (kk))
   GYAS[kk]=CO('GYAS_%d' % (kk))
   RIGE[kk]=CO('RIGE_%d' % (kk))
   MAGE[kk]=CO('MAGE_%d' % (kk))
   AMGE[kk]=CO('AMGE_%d' % (kk))
   GYGE[kk]=CO('GYGE_%d' % (kk))
   OMGE[kk]=CO('OMGE_%d' % (kk))
   NUME[kk]=CO('NUME_%d' % (kk)) 
   
   ASSEMBLAGE(MODELE=modele,
                CHAM_MATER=chmat,
                CARA_ELEM=cara[kk],
                CHARGE=blocage,
                NUME_DDL=NUME[kk],
                MATR_ASSE=(_F(MATRICE=RIGI[kk],
                              OPTION='RIGI_MECA',),
                           _F(MATRICE=MASS[kk],
                              OPTION='MASS_MECA',),
                           _F(MATRICE=GYAS[kk],
                              OPTION='MECA_GYRO',),
                           _F(MATRICE=AMOR[kk],
                              OPTION='AMOR_MECA',),),);

   GYOM[kk]=COMB_MATR_ASSE(COMB_R=(_F(MATR_ASSE=GYAS[kk], COEF_R=OM,),
                                   _F(MATR_ASSE=AMOR[kk], COEF_R=1.,),))

   PROJ_BASE(BASE=MODES,
             STOCKAGE='PLEIN',
             MATR_ASSE_GENE=(_F(MATRICE=MAGE[kk],
                               MATR_ASSE=MASS[kk],),
                            _F(MATRICE=RIGE[kk],
                               MATR_ASSE=RIGI[kk],),
                            _F(MATRICE=AMGE[kk],
                               MATR_ASSE=AMOR[kk],),
                            _F(MATRICE=GYGE[kk],
                               MATR_ASSE=GYAS[kk],),
                            _F(MATRICE=OMGE[kk],
                               MATR_ASSE=GYOM[kk],),),);
     
   _mod1[kk]=MODE_ITER_SIMULT(MATR_RIGI=RIGI[kk],
                               MATR_MASS=MASS[kk],
                               MATR_AMOR=GYOM[kk],
                               METHODE='QZ',
                               CALC_FREQ=_F(OPTION='CENTRE',FREQ=10.,NMAX_FREQ=nbF,),
                               VERI_MODE=_F(PREC_SHIFT=5.000000000000000E-3,
                                            STOP_ERREUR='NON',
                                            STURM='NON',
                                            SEUIL=1.9999999999999995E-04),
                               )
   
   _mod2[kk]=MODE_ITER_SIMULT(MATR_RIGI=RIGE[kk],
                               MATR_MASS=MAGE[kk],
                               MATR_AMOR=OMGE[kk],
                               METHODE='QZ',
                               CALC_FREQ=_F(OPTION='CENTRE',FREQ=10.,NMAX_FREQ=nbF,),
                               VERI_MODE=_F(PREC_SHIFT=5.000000000000000E-3,
                                            STOP_ERREUR='NON',
                                            STURM='NON',
                                            SEUIL=1.9999999999999995E-04),
                               )
   
   tab.append({'NUME_VITE' : kk, 'VITE_ROTA' : OM, 'NOM_OBJET': 'MODE_MECA', 'TYPE_OBJET': 'MODE_MECA', 'NOM_SD' : _mod1[kk].nom})

motcles=tab.dict_CREA_TABLE()
tab_out=CREA_TABLE(TYPE_TABLE = 'TABLE_CONTENEUR', **motcles);

#VITESSE DE ROTATION OMEGA=0 RAD/S, METHODE QZ DIRECT
TEST_RESU(RESU=(_F(NUME_ORDRE=1,
                   PARA='FREQ',
                   REFERENCE='SOURCE_EXTERNE',
                   RESULTAT=_mod1_0,
                   VALE_CALC=131.778297393,
                   VALE_REFE=130.69499999999999,
                   CRITERE='RELATIF',
                   PRECISION=0.10000000000000001,),
                _F(NUME_ORDRE=1,
                   PARA='AMOR_REDUIT',
                   REFERENCE='SOURCE_EXTERNE',
                   RESULTAT=_mod1_0,
                   VALE_CALC=0.636557435,
                   VALE_REFE=0.63786600000000004,
                   CRITERE='RELATIF',
                   PRECISION=0.10000000000000001,),
                _F(NUME_ORDRE=2,
                   PARA='FREQ',
                   REFERENCE='SOURCE_EXTERNE',
                   RESULTAT=_mod1_0,
                   VALE_CALC=227.485583040,
                   VALE_REFE=227.92500000000001,
                   CRITERE='RELATIF',
                   PRECISION=0.10000000000000001,),
                _F(NUME_ORDRE=2,
                   PARA='AMOR_REDUIT',
                   REFERENCE='SOURCE_EXTERNE',
                   RESULTAT=_mod1_0,
                   VALE_CALC=0.094991574,
                   VALE_REFE=0.095875699999999994,
                   CRITERE='RELATIF',
                   PRECISION=0.10000000000000001,),
                _F(NUME_ORDRE=3,
                   PARA='FREQ',
                   REFERENCE='SOURCE_EXTERNE',
                   RESULTAT=_mod1_0,
                   VALE_CALC=314.009336692,
                   VALE_REFE=313.31099999999998,
                   CRITERE='RELATIF',
                   PRECISION=0.10000000000000001,),
                _F(NUME_ORDRE=3,
                   PARA='AMOR_REDUIT',
                   REFERENCE='SOURCE_EXTERNE',
                   RESULTAT=_mod1_0,
                   VALE_CALC=0.227489955,
                   VALE_REFE=0.22736400000000001,
                   CRITERE='RELATIF',
                   PRECISION=0.10000000000000001,),
                _F(NUME_ORDRE=4,
                   PARA='FREQ',
                   REFERENCE='SOURCE_EXTERNE',
                   RESULTAT=_mod1_0,
                   VALE_CALC=373.460358435,
                   VALE_REFE=381.529,
                   CRITERE='RELATIF',
                   PRECISION=0.10000000000000001,),
                _F(NUME_ORDRE=4,
                   PARA='AMOR_REDUIT',
                   REFERENCE='SOURCE_EXTERNE',
                   RESULTAT=_mod1_0,
                   VALE_CALC=0.664365035,
                   VALE_REFE=0.65281199999999995,
                   CRITERE='RELATIF',
                   PRECISION=0.10000000000000001,),
                _F(NUME_ORDRE=5,
                   PARA='FREQ',
                   REFERENCE='SOURCE_EXTERNE',
                   RESULTAT=_mod1_0,
                   VALE_CALC=389.637490682,
                   VALE_REFE=390.80200000000002,
                   CRITERE='RELATIF',
                   PRECISION=0.10000000000000001,),
                _F(NUME_ORDRE=5,
                   PARA='AMOR_REDUIT',
                   REFERENCE='SOURCE_EXTERNE',
                   RESULTAT=_mod1_0,
                   VALE_CALC=0.173900772,
                   VALE_REFE=0.17736099999999999,
                   CRITERE='RELATIF',
                   PRECISION=0.10000000000000001,),
                _F(NUME_ORDRE=7,
                   PARA='FREQ',
                   REFERENCE='SOURCE_EXTERNE',
                   RESULTAT=_mod1_0,
                   VALE_CALC= 1.43449845E+03,
                   VALE_REFE=1448.01,
                   CRITERE='RELATIF',
                   PRECISION=0.10000000000000001,),
                _F(NUME_ORDRE=7,
                   PARA='AMOR_REDUIT',
                   REFERENCE='SOURCE_EXTERNE',
                   RESULTAT=_mod1_0,
                   VALE_CALC=0.156292291,
                   VALE_REFE=0.14231199999999999,
                   CRITERE='RELATIF',
                   PRECISION=0.10000000000000001,),
                _F(NUME_ORDRE=8,
                   PARA='FREQ',
                   REFERENCE='SOURCE_EXTERNE',
                   RESULTAT=_mod1_0,
                   VALE_CALC= 1.54806483E+03,
                   VALE_REFE=1554.8399999999999,
                   CRITERE='RELATIF',
                   PRECISION=0.10000000000000001,),
                _F(NUME_ORDRE=8,
                   PARA='AMOR_REDUIT',
                   REFERENCE='SOURCE_EXTERNE',
                   RESULTAT=_mod1_0,
                   VALE_CALC=0.112066623,
                   VALE_REFE=0.107354,
                   CRITERE='RELATIF',
                   PRECISION=0.10000000000000001,),
                _F(NUME_ORDRE=10,
                   PARA='FREQ',
                   REFERENCE='SOURCE_EXTERNE',
                   RESULTAT=_mod1_0,
                   VALE_CALC= 1.89416616E+03,
                   VALE_REFE=2050.1199999999999,
                   CRITERE='RELATIF',
                   PRECISION=0.10000000000000001,),
                _F(NUME_ORDRE=10,
                   PARA='AMOR_REDUIT',
                   REFERENCE='SOURCE_EXTERNE',
                   RESULTAT=_mod1_0,
                   VALE_CALC=0.297390654,
                   VALE_REFE=0.30829400000000001,
                   CRITERE='RELATIF',
                   PRECISION=0.10000000000000001,),
                ),
          )

#VITESSE DE ROTATION OMEGA=0 RAD/S, METHODE QZ A 2 ETAGES
TEST_RESU(RESU=(_F(NUME_ORDRE=1,
                   PARA='FREQ',
                   REFERENCE='SOURCE_EXTERNE',
                   RESULTAT=_mod2_0,
                   VALE_CALC=131.108611762,
                   VALE_REFE=130.69499999999999,
                   CRITERE='RELATIF',
                   PRECISION=0.050000000000000003,),
                _F(NUME_ORDRE=1,
                   PARA='AMOR_REDUIT',
                   REFERENCE='SOURCE_EXTERNE',
                   RESULTAT=_mod2_0,
                   VALE_CALC=0.636959136,
                   VALE_REFE=0.63786600000000004,
                   CRITERE='RELATIF',
                   PRECISION=0.050000000000000003,),
                _F(NUME_ORDRE=2,
                   PARA='FREQ',
                   REFERENCE='SOURCE_EXTERNE',
                   RESULTAT=_mod2_0,
                   VALE_CALC=227.665233553,
                   VALE_REFE=227.92500000000001,
                   CRITERE='RELATIF',
                   PRECISION=0.050000000000000003,),
                _F(NUME_ORDRE=2,
                   PARA='AMOR_REDUIT',
                   REFERENCE='SOURCE_EXTERNE',
                   RESULTAT=_mod2_0,
                   VALE_CALC=0.095632882,
                   VALE_REFE=0.095875699999999994,
                   CRITERE='RELATIF',
                   PRECISION=0.050000000000000003,),
                _F(NUME_ORDRE=3,
                   PARA='FREQ',
                   REFERENCE='SOURCE_EXTERNE',
                   RESULTAT=_mod2_0,
                   VALE_CALC=313.496623078,
                   VALE_REFE=313.31099999999998,
                   CRITERE='RELATIF',
                   PRECISION=0.050000000000000003,),
                _F(NUME_ORDRE=3,
                   PARA='AMOR_REDUIT',
                   REFERENCE='SOURCE_EXTERNE',
                   RESULTAT=_mod2_0,
                   VALE_CALC=0.227633901,
                   VALE_REFE=0.22736400000000001,
                   CRITERE='RELATIF',
                   PRECISION=0.050000000000000003,),
                _F(NUME_ORDRE=4,
                   PARA='FREQ',
                   REFERENCE='SOURCE_EXTERNE',
                   RESULTAT=_mod2_0,
                   VALE_CALC=378.974967226,
                   VALE_REFE=381.529,
                   CRITERE='RELATIF',
                   PRECISION=0.050000000000000003,),
                _F(NUME_ORDRE=4,
                   PARA='AMOR_REDUIT',
                   REFERENCE='SOURCE_EXTERNE',
                   RESULTAT=_mod2_0,
                   VALE_CALC=0.657424048,
                   VALE_REFE=0.65281199999999995,
                   CRITERE='RELATIF',
                   PRECISION=0.050000000000000003,),
                _F(NUME_ORDRE=5,
                   PARA='FREQ',
                   REFERENCE='SOURCE_EXTERNE',
                   RESULTAT=_mod2_0,
                   VALE_CALC=390.296724708,
                   VALE_REFE=390.80200000000002,
                   CRITERE='RELATIF',
                   PRECISION=0.050000000000000003,),
                _F(NUME_ORDRE=5,
                   PARA='AMOR_REDUIT',
                   REFERENCE='SOURCE_EXTERNE',
                   RESULTAT=_mod2_0,
                   VALE_CALC=0.176437989,
                   VALE_REFE=0.17736099999999999,
                   CRITERE='RELATIF',
                   PRECISION=0.050000000000000003,),
                _F(NUME_ORDRE=6,
                   PARA='FREQ',
                   REFERENCE='SOURCE_EXTERNE',
                   RESULTAT=_mod2_0,
                   VALE_CALC= 1.44377798E+03,
                   VALE_REFE=1448.01,
                   CRITERE='RELATIF',
                   PRECISION=0.050000000000000003,),
                _F(NUME_ORDRE=6,
                   PARA='AMOR_REDUIT',
                   REFERENCE='SOURCE_EXTERNE',
                   RESULTAT=_mod2_0,
                   VALE_CALC=0.146537675,
                   VALE_REFE=0.14231199999999999,
                   CRITERE='RELATIF',
                   PRECISION=0.050000000000000003,),
                _F(NUME_ORDRE=7,
                   PARA='FREQ',
                   REFERENCE='SOURCE_EXTERNE',
                   RESULTAT=_mod2_0,
                   VALE_CALC= 1.55050705E+03,
                   VALE_REFE=1554.8399999999999,
                   CRITERE='RELATIF',
                   PRECISION=0.050000000000000003,),
                _F(NUME_ORDRE=7,
                   PARA='AMOR_REDUIT',
                   REFERENCE='SOURCE_EXTERNE',
                   RESULTAT=_mod2_0,
                   VALE_CALC=0.107735303,
                   VALE_REFE=0.107354,
                   CRITERE='RELATIF',
                   PRECISION=0.050000000000000003,),
                _F(NUME_ORDRE=8,
                   PARA='FREQ',
                   REFERENCE='SOURCE_EXTERNE',
                   RESULTAT=_mod2_0,
                   VALE_CALC= 1.97201752E+03,
                   VALE_REFE=2050.1199999999999,
                   CRITERE='RELATIF',
                   PRECISION=0.050000000000000003,),
                _F(NUME_ORDRE=8,
                   PARA='AMOR_REDUIT',
                   REFERENCE='SOURCE_EXTERNE',
                   RESULTAT=_mod2_0,
                   VALE_CALC=0.303540410,
                   VALE_REFE=0.30829400000000001,
                   CRITERE='RELATIF',
                   PRECISION=0.050000000000000003,),
                ),
          )

#VITESSE DE ROTATION OMEGA=20000 RAD/S, METHODE QZ DIRECT
TEST_RESU(RESU=(_F(NUME_ORDRE=1,
                   PARA='FREQ',
                   REFERENCE='SOURCE_EXTERNE',
                   RESULTAT=_mod1_40,
                   VALE_CALC=123.644577523,
                   VALE_REFE=123.68300000000001,
                   CRITERE='RELATIF',
                   PRECISION=0.050000000000000003,),
                _F(NUME_ORDRE=1,
                   PARA='AMOR_REDUIT',
                   REFERENCE='SOURCE_EXTERNE',
                   RESULTAT=_mod1_40,
                   VALE_CALC=0.124499973,
                   VALE_REFE=0.124817,
                   CRITERE='RELATIF',
                   PRECISION=0.050000000000000003,),
                _F(NUME_ORDRE=2,
                   PARA='FREQ',
                   REFERENCE='SOURCE_EXTERNE',
                   RESULTAT=_mod1_40,
                   VALE_CALC=200.628562480,
                   VALE_REFE=200.58099999999999,
                   CRITERE='RELATIF',
                   PRECISION=0.050000000000000003,),
                _F(NUME_ORDRE=2,
                   PARA='AMOR_REDUIT',
                   REFERENCE='SOURCE_EXTERNE',
                   RESULTAT=_mod1_40,
                   VALE_CALC=0.217256160,
                   VALE_REFE=0.21796099999999999,
                   CRITERE='RELATIF',
                   PRECISION=0.050000000000000003,),
                _F(NUME_ORDRE=3,
                   PARA='FREQ',
                   REFERENCE='SOURCE_EXTERNE',
                   RESULTAT=_mod1_40,
                   VALE_CALC=286.794630887,
                   VALE_REFE=286.74299999999999,
                   CRITERE='RELATIF',
                   PRECISION=0.050000000000000003,),
                _F(NUME_ORDRE=3,
                   PARA='AMOR_REDUIT',
                   REFERENCE='SOURCE_EXTERNE',
                   RESULTAT=_mod1_40,
                   VALE_CALC=0.180970769,
                   VALE_REFE=0.18165200000000001,
                   CRITERE='RELATIF',
                   PRECISION=0.050000000000000003,),
                _F(NUME_ORDRE=4,
                   PARA='FREQ',
                   REFERENCE='SOURCE_EXTERNE',
                   RESULTAT=_mod1_40,
                   VALE_CALC=310.105278830,
                   VALE_REFE=308.62400000000002,
                   CRITERE='RELATIF',
                   PRECISION=0.050000000000000003,),
                _F(NUME_ORDRE=4,
                   PARA='AMOR_REDUIT',
                   REFERENCE='SOURCE_EXTERNE',
                   RESULTAT=_mod1_40,
                   VALE_CALC=0.430916922,
                   VALE_REFE=0.43272699999999997,
                   CRITERE='RELATIF',
                   PRECISION=0.050000000000000003,),
                _F(NUME_ORDRE=5,
                   PARA='FREQ',
                   REFERENCE='SOURCE_EXTERNE',
                   RESULTAT=_mod1_40,
                   VALE_CALC=369.171080215,
                   VALE_REFE=370.33800000000002,
                   CRITERE='RELATIF',
                   PRECISION=0.050000000000000003,),
                _F(NUME_ORDRE=5,
                   PARA='AMOR_REDUIT',
                   REFERENCE='SOURCE_EXTERNE',
                   RESULTAT=_mod1_40,
                   VALE_CALC=0.254337716,
                   VALE_REFE=0.25491200000000003,
                   CRITERE='RELATIF',
                   PRECISION=0.050000000000000003,),
                _F(NUME_ORDRE=6,
                   PARA='FREQ',
                   REFERENCE='SOURCE_EXTERNE',
                   RESULTAT=_mod1_40,
                   VALE_CALC=413.384369333,
                   VALE_REFE=409.86099999999999,
                   CRITERE='RELATIF',
                   PRECISION=0.050000000000000003,),
                _F(NUME_ORDRE=6,
                   PARA='AMOR_REDUIT',
                   REFERENCE='SOURCE_EXTERNE',
                   RESULTAT=_mod1_40,
                   VALE_CALC=0.562317027,
                   VALE_REFE=0.55876400000000004,
                   CRITERE='RELATIF',
                   PRECISION=0.050000000000000003,),
                _F(NUME_ORDRE=8,
                   PARA='FREQ',
                   REFERENCE='SOURCE_EXTERNE',
                   RESULTAT=_mod1_40,
                   VALE_CALC=826.699023527,
                   VALE_REFE=813.12400000000002,
                   CRITERE='RELATIF',
                   PRECISION=0.050000000000000003,),
                _F(NUME_ORDRE=8,
                   PARA='AMOR_REDUIT',
                   REFERENCE='SOURCE_EXTERNE',
                   RESULTAT=_mod1_40,
                   VALE_CALC=0.468365006,
                   VALE_REFE=0.47322999999999998,
                   CRITERE='RELATIF',
                   PRECISION=0.050000000000000003,),
                _F(NUME_ORDRE=9,
                   PARA='FREQ',
                   REFERENCE='SOURCE_EXTERNE',
                   RESULTAT=_mod1_40,
                   VALE_CALC= 1.00815284E+03,
                   VALE_REFE=997.31200000000001,
                   CRITERE='RELATIF',
                   PRECISION=0.050000000000000003,),
                _F(NUME_ORDRE=9,
                   PARA='AMOR_REDUIT',
                   REFERENCE='SOURCE_EXTERNE',
                   RESULTAT=_mod1_40,
                   VALE_CALC=0.511325311,
                   VALE_REFE=0.49382799999999999,
                   CRITERE='RELATIF',
                   PRECISION=0.050000000000000003,),
                ),
          )

#VITESSE DE ROTATION OMEGA=20000 RAD/S, METHODE QZ A 2 ETAGES
TEST_RESU(RESU=(_F(NUME_ORDRE=1,
                   PARA='FREQ',
                   REFERENCE='SOURCE_EXTERNE',
                   RESULTAT=_mod2_40,
                   VALE_CALC=123.638066338,
                   VALE_REFE=123.68300000000001,
                   CRITERE='RELATIF',
                   PRECISION=1.E-2,),
                _F(NUME_ORDRE=1,
                   PARA='AMOR_REDUIT',
                   REFERENCE='SOURCE_EXTERNE',
                   RESULTAT=_mod2_40,
                   VALE_CALC=0.124642260,
                   VALE_REFE=0.124817,
                   CRITERE='RELATIF',
                   PRECISION=1.E-2,),
                _F(NUME_ORDRE=2,
                   PARA='FREQ',
                   REFERENCE='SOURCE_EXTERNE',
                   RESULTAT=_mod2_40,
                   VALE_CALC=200.530246912,
                   VALE_REFE=200.58099999999999,
                   CRITERE='RELATIF',
                   PRECISION=1.E-2,),
                _F(NUME_ORDRE=2,
                   PARA='AMOR_REDUIT',
                   REFERENCE='SOURCE_EXTERNE',
                   RESULTAT=_mod2_40,
                   VALE_CALC=0.217512447,
                   VALE_REFE=0.21796099999999999,
                   CRITERE='RELATIF',
                   PRECISION=1.E-2,),
                _F(NUME_ORDRE=3,
                   PARA='FREQ',
                   REFERENCE='SOURCE_EXTERNE',
                   RESULTAT=_mod2_40,
                   VALE_CALC=286.689214857,
                   VALE_REFE=286.74299999999999,
                   CRITERE='RELATIF',
                   PRECISION=1.E-2,),
                _F(NUME_ORDRE=3,
                   PARA='AMOR_REDUIT',
                   REFERENCE='SOURCE_EXTERNE',
                   RESULTAT=_mod2_40,
                   VALE_CALC=0.181343908,
                   VALE_REFE=0.18165200000000001,
                   CRITERE='RELATIF',
                   PRECISION=1.E-2,),
                _F(NUME_ORDRE=4,
                   PARA='FREQ',
                   REFERENCE='SOURCE_EXTERNE',
                   RESULTAT=_mod2_40,
                   VALE_CALC=308.978984419,
                   VALE_REFE=308.62400000000002,
                   CRITERE='RELATIF',
                   PRECISION=1.E-2,),
                _F(NUME_ORDRE=4,
                   PARA='AMOR_REDUIT',
                   REFERENCE='SOURCE_EXTERNE',
                   RESULTAT=_mod2_40,
                   VALE_CALC=0.431935207,
                   VALE_REFE=0.43272699999999997,
                   CRITERE='RELATIF',
                   PRECISION=1.E-2,),
                _F(NUME_ORDRE=5,
                   PARA='FREQ',
                   REFERENCE='SOURCE_EXTERNE',
                   RESULTAT=_mod2_40,
                   VALE_CALC=369.701738678,
                   VALE_REFE=370.33800000000002,
                   CRITERE='RELATIF',
                   PRECISION=1.E-2,),
                _F(NUME_ORDRE=5,
                   PARA='AMOR_REDUIT',
                   REFERENCE='SOURCE_EXTERNE',
                   RESULTAT=_mod2_40,
                   VALE_CALC=0.254929342,
                   VALE_REFE=0.25491200000000003,
                   CRITERE='RELATIF',
                   PRECISION=1.E-2,),
                _F(NUME_ORDRE=6,
                   PARA='FREQ',
                   REFERENCE='SOURCE_EXTERNE',
                   RESULTAT=_mod2_40,
                   VALE_CALC=411.042071777,
                   VALE_REFE=409.86099999999999,
                   CRITERE='RELATIF',
                   PRECISION=1.E-2,),
                _F(NUME_ORDRE=6,
                   PARA='AMOR_REDUIT',
                   REFERENCE='SOURCE_EXTERNE',
                   RESULTAT=_mod2_40,
                   VALE_CALC=0.559421955,
                   VALE_REFE=0.55876400000000004,
                   CRITERE='RELATIF',
                   PRECISION=1.E-2,),
                _F(NUME_ORDRE=7,
                   PARA='FREQ',
                   REFERENCE='SOURCE_EXTERNE',
                   RESULTAT=_mod2_40,
                   VALE_CALC=815.884248507,
                   VALE_REFE=813.12400000000002,
                   CRITERE='RELATIF',
                   PRECISION=1.E-2,),
                _F(NUME_ORDRE=7,
                   PARA='AMOR_REDUIT',
                   REFERENCE='SOURCE_EXTERNE',
                   RESULTAT=_mod2_40,
                   VALE_CALC=0.471424635,
                   VALE_REFE=0.47322999999999998,
                   CRITERE='RELATIF',
                   PRECISION=1.E-2,),
                _F(NUME_ORDRE=8,
                   PARA='FREQ',
                   REFERENCE='SOURCE_EXTERNE',
                   RESULTAT=_mod2_40,
                   VALE_CALC=999.185034792,
                   VALE_REFE=997.31200000000001,
                   CRITERE='RELATIF',
                   PRECISION=1.E-2,),
                _F(NUME_ORDRE=8,
                   PARA='AMOR_REDUIT',
                   REFERENCE='SOURCE_EXTERNE',
                   RESULTAT=_mod2_40,
                   VALE_CALC=0.498178717,
                   VALE_REFE=0.49382799999999999,
                   CRITERE='RELATIF',
                   PRECISION=1.E-2,),
                ),
          )

# --------------------------------------------------------------
# APPEL MACRO DE CALCUL DES FREQUENCES ET DES MODES EN ROTATION
# --------------------------------------------------------------
#TYPE DE PRECESSION (1 SOMME, 2 PLUS GRANDE ORBITE)
typ_prec =1
#TYPE DE SUIVI, (0 SANS_TRI, 1 TRI_PREC, 2 TRI_FORM_MOD)
typ_tri=2

nbF_camp=8;

# UNITES DES FICHIERS DE SORTIE DES TRACES
unit_fle = 29;
unit_tor = 28; 
uniy_lon = 27;
unit_tot = 26;
unit_int = 25;
nomfic   = 'intersec.txt'

L_S=[1.0, 1.0];
# ---------------------------------------------------
# APPEL MACRO PERMETTANT DE TRACER LE DIAGRAMME DE CAMPBELL
# ---------------------------------------------------
IMPR_DIAG_CAMPBELL(MAILLAGE   =mail, 
                 MODES      =tab_out,
                 NFREQ_CAMP =nbF_camp,
                 TYP_PREC   =typ_prec, 
                 TYP_TRI    =typ_tri,
                 UNIT_FLE   = unit_fle,
                 UNIT_TOR   = unit_tor, 
                 UNIT_LON   = uniy_lon, 
                 UNIT_TOT   = unit_tot,
                 UNIT_INT   = unit_int,
                 L_S        = L_S);

FIN();
