# TITRE CALCUL TEMPOREL POUTRE SOUS EXCITATION ALEATOIRE AVEC DSP
# ======================================================================
# COPYRIGHT (C) 1991 - 2015  EDF R&D                  WWW.CODE-ASTER.ORG
# THIS PROGRAM IS FREE SOFTWARE; YOU CAN REDISTRIBUTE IT AND/OR MODIFY
# IT UNDER THE TERMS OF THE GNU GENERAL PUBLIC LICENSE AS PUBLISHED BY
# THE FREE SOFTWARE FOUNDATION; EITHER VERSION 2 OF THE LICENSE, OR
# (AT YOUR OPTION) ANY LATER VERSION.
#
# THIS PROGRAM IS DISTRIBUTED IN THE HOPE THAT IT WILL BE USEFUL, BUT
# WITHOUT ANY WARRANTY; WITHOUT EVEN THE IMPLIED WARRANTY OF
# MERCHANTABILITY OR FITNESS FOR A PARTICULAR PURPOSE. SEE THE GNU
# GENERAL PUBLIC LICENSE FOR MORE DETAILS.
#
# YOU SHOULD HAVE RECEIVED A COPY OF THE GNU GENERAL PUBLIC LICENSE
# ALONG WITH THIS PROGRAM; IF NOT, WRITE TO EDF R&D CODE_ASTER,
#    1 AVENUE DU GENERAL DE GAULLE, 92141 CLAMART CEDEX, FRANCE.
# ======================================================================
# TEST DE LA GENERATION DES FONCTIONS ALEATOIRE D INTERSPECTRE
# CONNU, TEST DU CALCUL D UNE MATRICE INTERSPECTRALE
# TEST DE LA REPONSE SPECTRALE D UNE STRUCTURE POUTRE
# MODELE POUTRE
# MAILLAGE : ELEMENT SEGMENTS A 2 NOEUDS
# UNITES   : NEWTON , METRE , SECONDE (N,M,S)
#----------------------------------------------------------------
#

DEBUT(CODE=_F(NIV_PUB_WEB='INTERNET', VISU_EFICAS='NON'), DEBUG=_F(SDVERI='OUI'))

#
POUTRE=LIRE_MAILLAGE(FORMAT='MED', )

POUTRE=DEFI_GROUP( reuse=POUTRE,   MAILLAGE=POUTRE,
  CREA_GROUP_MA=_F(  NOM = 'TOUT', TOUT = 'OUI'))

#

MODEL=AFFE_MODELE(   MAILLAGE=POUTRE,
                         AFFE=_F( TOUT = 'OUI',PHENOMENE = 'MECANIQUE',
                        MODELISATION = 'POU_D_T'))

#
MATER1=DEFI_MATERIAU(  ELAS=_F( E = 2.E11,NU = 0.3, RHO = 7900.0))

#
CHMAT=AFFE_MATERIAU(  MAILLAGE=POUTRE,
                      AFFE=_F( TOUT = 'OUI', MATER = MATER1)
                           )

#
CHCAR=AFFE_CARA_ELEM(  MODELE=MODEL,
         POUTRE=_F(
       GROUP_MA = 'TOUT',

        SECTION = 'CERCLE', CARA = ('R','EP',),
        VALE = (0.005,0.0005,))
                )

#
CHARGE1=AFFE_CHAR_MECA(  MODELE=MODEL,DDL_IMPO=(
           _F( TOUT = 'OUI',DRX = 0.0, DRY = 0.0, DX = 0.0, DZ = 0.),
                              _F( NOEUD = 'N1', DY = 0.0, DZ = 0.0,
                                 DRY = 0.,  DRZ = 0.))
                             )

#
#
FORCE1=AFFE_CHAR_MECA(  MODELE=MODEL,
                     FORCE_NODALE=_F( NOEUD = 'N51', FY = 1.)
                       )

FORCE2=AFFE_CHAR_MECA(  MODELE=MODEL,
                     FORCE_NODALE=_F( NOEUD = 'N51', MZ = 1.)
                       )

#
MELA=CALC_MATR_ELEM(  MODELE=MODEL,  CHARGE=CHARGE1,
                         CHAM_MATER=CHMAT,
                         CARA_ELEM=CHCAR,
                         OPTION='RIGI_MECA')

#
MELB=CALC_MATR_ELEM(  MODELE=MODEL,  CHARGE=CHARGE1,
                         CHAM_MATER=CHMAT,
                         CARA_ELEM=CHCAR,
                         OPTION='MASS_MECA')

#
VECTEL1=CALC_VECT_ELEM(   CHARGE=FORCE1,   OPTION='CHAR_MECA')

VECTEL2=CALC_VECT_ELEM(   CHARGE=FORCE2,   OPTION='CHAR_MECA')

#
NUMERO=NUME_DDL(   MATR_RIGI=MELA )

#
A=ASSE_MATRICE(MATR_ELEM=MELA,NUME_DDL=NUMERO)

#
B=ASSE_MATRICE(MATR_ELEM=MELB,NUME_DDL=NUMERO)

#
VECTAS1=ASSE_VECTEUR(   VECT_ELEM=VECTEL1,  NUME_DDL=NUMERO)

VECTAS2=ASSE_VECTEUR(   VECT_ELEM=VECTEL2,  NUME_DDL=NUMERO)

#
MODES=CALC_MODES(MATR_RIGI=A,
                 MATR_MASS=B,
                 )


#

SPECT1=DEFI_FONCTION(    NOM_PARA='FREQ',  VALE_C=(
 0.0000000000000E+00,  0.1000000000000E+00,  0.0000000000000E+00,
 0.1000000000000E+01,  0.9999748817887E-01,  0.0000000000000E+00,
 0.2000000000000E+01,  0.9998763155941E-01,  0.0000000000000E+00,
 0.3000000000000E+01,  0.9996857740070E-01,  0.0000000000000E+00,
 0.4000000000000E+01,  0.9993912019744E-01,  0.0000000000000E+00,
 0.5000000000000E+01,  0.9989833089653E-01,  0.0000000000000E+00,
 0.6000000000000E+01,  0.9984544754401E-01,  0.0000000000000E+00,
 0.7000000000000E+01,  0.9977982499765E-01,  0.0000000000000E+00,
 0.8000000000000E+01,  0.9970090726011E-01,  0.0000000000000E+00,
 0.9000000000000E+01,  0.9960821057416E-01,  0.0000000000000E+00,
 0.1000000000000E+02,  0.9950131234425E-01,  0.0000000000000E+00,
 0.1100000000000E+02,  0.9937984349784E-01,  0.0000000000000E+00,
 0.1200000000000E+02,  0.9924348300648E-01,  0.0000000000000E+00,
 0.1300000000000E+02,  0.9909195382594E-01,  0.0000000000000E+00,
 0.1400000000000E+02,  0.9892501980005E-01,  0.0000000000000E+00,
 0.1500000000000E+02,  0.9874248323531E-01,  0.0000000000000E+00,
 0.1600000000000E+02,  0.9854418295013E-01,  0.0000000000000E+00,
 0.1700000000000E+02,  0.9832999266312E-01,  0.0000000000000E+00,
 0.1800000000000E+02,  0.9809981962440E-01,  0.0000000000000E+00,
 0.1900000000000E+02,  0.9785360342019E-01,  0.0000000000000E+00,
# ... 481 like lines cut
      ))

SPECT3=DEFI_FONCTION(    NOM_PARA='FREQ',  VALE_C=(
 0.0000000000000E+00,  0.2500000000000E-01,  0.0000000000000E+00,
 0.1000000000000E+01,  0.2499937204472E-01,  0.0000000000000E+00,
 0.2000000000000E+01,  0.2499690788985E-01,  0.0000000000000E+00,
 0.3000000000000E+01,  0.2499214435018E-01,  0.0000000000000E+00,
 0.4000000000000E+01,  0.2498478004936E-01,  0.0000000000000E+00,
 0.5000000000000E+01,  0.2497458272413E-01,  0.0000000000000E+00,
 0.6000000000000E+01,  0.2496136188600E-01,  0.0000000000000E+00,
 0.7000000000000E+01,  0.2494495624941E-01,  0.0000000000000E+00,
 0.8000000000000E+01,  0.2492522681503E-01,  0.0000000000000E+00,
 0.9000000000000E+01,  0.2490205264354E-01,  0.0000000000000E+00,
 0.1000000000000E+02,  0.2487532808606E-01,  0.0000000000000E+00,
 0.1100000000000E+02,  0.2484496087446E-01,  0.0000000000000E+00,
 0.1200000000000E+02,  0.2481087075162E-01,  0.0000000000000E+00,
 0.1300000000000E+02,  0.2477298845649E-01,  0.0000000000000E+00,
 0.1400000000000E+02,  0.2473125495001E-01,  0.0000000000000E+00,
 0.1500000000000E+02,  0.2468562080883E-01,  0.0000000000000E+00,
 0.1600000000000E+02,  0.2463604573753E-01,  0.0000000000000E+00,
 0.1700000000000E+02,  0.2458249816578E-01,  0.0000000000000E+00,
 0.1800000000000E+02,  0.2452495490610E-01,  0.0000000000000E+00,
 0.1900000000000E+02,  0.2446340085505E-01,  0.0000000000000E+00,
# ... 481 like lines cut
      ))

SPECT2=DEFI_FONCTION(    NOM_PARA='FREQ',  VALE_C=(
 0.0000000000000E+00,  0.8000000000000E-02,  0.0000000000000E+00,
 0.1000000000000E+01,  0.7936718236274E-02,  0.1002640786786E-02,
 0.2000000000000E+01,  0.7747706848112E-02,  0.1989273226793E-02,
 0.3000000000000E+01,  0.7435874492474E-02,  0.2944071317802E-02,
 0.4000000000000E+01,  0.7006185289332E-02,  0.3851683432594E-02,
 0.5000000000000E+01,  0.6465555486271E-02,  0.4697501671718E-02,
 0.6000000000000E+01,  0.5822735480433E-02,  0.5467913427862E-02,
 0.7000000000000E+01,  0.5088163770567E-02,  0.6150534586025E-02,
 0.8000000000000E+01,  0.4273792705302E-02,  0.6734421261433E-02,
 0.9000000000000E+01,  0.3392888220802E-02,  0.7210256684014E-02,
 0.1000000000000E+02,  0.2459806731445E-02,  0.7570510039397E-02,
 0.1100000000000E+02,  0.1489752937777E-02,  0.7809564473373E-02,
 0.1200000000000E+02,  0.4985227493153E-03,  0.7923811970994E-02,
 0.1300000000000E+02, -0.4977641614934E-03,  0.7911713394898E-02,
 0.1400000000000E+02, -0.1482937438943E-02,  0.7773822587621E-02,
 0.1500000000000E+02, -0.2441049899703E-02,  0.7512774092052E-02,
 0.1600000000000E+02, -0.3356647279903E-02,  0.7133234707725E-02,
 0.1700000000000E+02, -0.4215029057161E-02,  0.6641819763658E-02,
 0.1800000000000E+02, -0.5002495692144E-02,  0.6046975637147E-02,
 0.1900000000000E+02, -0.5706577884934E-02,  0.5358830668905E-02,
# ... 481 like lines cut
    ))

#

AUTOSPC1=LIRE_INTE_SPEC(
                        UNITE=19,
                        FORMAT_C='MODULE_PHASE',
                        PROL_DROITE='EXCLU',
                        PROL_GAUCHE='EXCLU',
                        INTERPOL='LIN'
                             )

#
# GENERATION DES EFFORTS ALEATOIRES

INT1=DEFI_INTE_SPEC(    DIMENSION=2,PAR_FONCTION=(
                     _F(  NUME_ORDRE_I = 1,
                                    NUME_ORDRE_J = 1,
                                    FONCTION = SPECT1),
                     _F(  NUME_ORDRE_I = 1,
                                    NUME_ORDRE_J = 2,
                                    FONCTION = SPECT2),
                     _F(  NUME_ORDRE_I = 2,
                                    NUME_ORDRE_J = 2,
                                    FONCTION = SPECT3))
                          )


VECT1=GENE_FONC_ALEA(INTE_SPEC=INT1,
                     FREQ_INIT=0.,
                     FREQ_FIN=500.,
                     NB_TIRAGE=10,
                     NB_POIN=512,
                     INFO=2,)

#
#

FONCT1=RECU_FONCTION(INTE_SPEC=VECT1,
                     NUME_ORDRE = 1,
                     INTERPOL='LIN',
                     PROL_DROITE='CONSTANT',
                     PROL_GAUCHE='EXCLU',
                    )
#

FONCT2=RECU_FONCTION(INTE_SPEC=VECT1,
                     NUME_ORDRE = 2,
                     INTERPOL='LIN',
                     PROL_DROITE='CONSTANT',
                     PROL_GAUCHE='EXCLU',
                    )

#

INTERS=CALC_INTE_SPEC(          INST_INIT=0.,
                                     INST_FIN=10.22,
                                 DUREE_ANALYSE=1.022,
                                DUREE_DECALAGE=1.022,
                                      NB_POIN=2*512,
                               FONCTION=( FONCT1,  FONCT2, )
                           )

#

REP1=RECU_FONCTION(    INTE_SPEC=INTERS,
                    NUME_ORDRE_I = 1,
                      )

REP2=RECU_FONCTION(    INTE_SPEC=INTERS,
                    NUME_ORDRE_I = 2,
                      )

TEST_FONCTION(VALEUR=(_F(VALE_CALC=0.10075246,
                         VALE_REFE=0.10000000000000001,
                         REFERENCE='NON_DEFINI',
                         VALE_PARA=2.0,
                         PRECISION=0.10000000000000001,
                         FONCTION=REP1,),
                      _F(VALE_CALC=0.02317516,
                         VALE_REFE=0.025000000000000001,
                         REFERENCE='NON_DEFINI',
                         VALE_PARA=2.0,
                         PRECISION=0.10000000000000001,
                         FONCTION=REP2,),
                      ),
              )

##
PROJ_BASE(  BASE=MODES,
            STOCKAGE='DIAG',
            MATR_ASSE_GENE=(
             _F(
                             MATRICE = CO("MASSEPRO"),
                             MATR_ASSE = B),
             _F(
                             MATRICE = CO("RIGIPROJ"),
                             MATR_ASSE = A)),VECT_ASSE_GENE=(
             _F(
                             VECTEUR = CO("EFPROJ1"),
                             VECT_ASSE = VECTAS1),
             _F(
                             VECTEUR = CO("EFPROJ2"),
                             VECT_ASSE = VECTAS2))
)

#
CARTE=DEFI_OBSTACLE(   TYPE='CERCLE' )

#
OBST=DEFI_OBSTACLE(   TYPE='DISCRET',
                         VALE=( 0.,  1.,
                                20., 1.,
                                40., 1.,
                                60., 1.,
                                80., 1.,
                                100., 1.,
                                120., 1.,
                                140., 1.,
                                160., 1.,
                                180., 1.5,
                                200., 1.,
                                220., 1.,
                                240., 1.,
                                260., 1.,
                                280., 1.,
                                300., 1.,
                                320., 1.,
                                340., 1.,
                                360., 1.,) )

#
DYNAMODE=DYNA_VIBRA(TYPE_CALCUL='TRAN',BASE_CALCUL='GENE',
                       SCHEMA_TEMPS=_F(SCHEMA='DIFF_CENTRE',),
                       MATR_MASS=MASSEPRO,
                       MATR_RIGI=RIGIPROJ,
                       AMOR_MODAL=_F(AMOR_REDUIT=( 0.01,  0.01,  0.01, 0.01,
                                      0.01, 0.01,  0.01, 0.01,
                                      0.01, 0.01,),),
                      EXCIT=(
                 _F(  VECT_ASSE_GENE = EFPROJ1,  FONC_MULT = FONCT1),
                 _F(  VECT_ASSE_GENE = EFPROJ2,  FONC_MULT = FONCT2)),
                 INCREMENT=_F(  INST_INIT = 0.,
                             INST_FIN = 2.,  PAS = 3.5E-5),
                       ARCHIVAGE=_F(  PAS_ARCH = 4),CHOC=(
                      _F(    NOEUD_1 = 'N76',
                               OBSTACLE = CARTE,
                               ORIG_OBST = (1., 0., 0.,),
                               NORM_OBST = (1., 0., 0.,),
                               JEU = 0.,
                               RIGI_NOR = 1.E6,
                               RIGI_TAN = 0.,
                               FROTTEMENT='COULOMB',
                               COULOMB = 0.3),
                      _F(    NOEUD_1 = 'N70',
                               OBSTACLE = OBST,
                               ORIG_OBST = (1., 0., 0.,),
                               NORM_OBST = (1., 0., 0.,),
                               RIGI_NOR = 1.E2,
                               RIGI_TAN = 0.,
                               FROTTEMENT='COULOMB',
                               COULOMB = 0.3))
                          )

#

TT=POST_DYNA_MODA_T(      RESU_GENE=DYNAMODE,
                           CHOC=_F(  INST_INIT = 0.,
                                  INST_FIN = 2.,
                                  NB_BLOC = 4,
                                  SEUIL_FORCE = 0.,
                                  DUREE_REPOS = 0.)
                        )

IMPR_TABLE(  TABLE=TT,
              FILTRE=_F(  NOM_PARA = 'CALCUL',
                       VALE_K = 'DEPL_X'),
             NOM_PARA=( 'NOEUD', 'MOYEN', 'ECART_TYPE',
                        'RMS',  'MAXI', 'MINI', )
          )

IMPR_TABLE(  TABLE=TT,
              FILTRE=_F(  NOM_PARA = 'CALCUL',
                       VALE_K = 'DEPL_Y'),
             NOM_PARA=( 'NOEUD', 'MOYEN', 'ECART_TYPE',
                        'RMS',  'MAXI', 'MINI', )
          )

IMPR_TABLE(  TABLE=TT,
              FILTRE=_F(  NOM_PARA = 'CALCUL',
                       VALE_K = 'DEPL_Z'),
             NOM_PARA=( 'NOEUD', 'MOYEN', 'ECART_TYPE',
                        'RMS',  'MAXI', 'MINI', )
          )

IMPR_TABLE(  TABLE=TT,
              FILTRE=_F(  NOM_PARA = 'CALCUL',
                       VALE_K = 'DEPL_RADIAL'),
             NOM_PARA=( 'NOEUD', 'MOYEN', 'ECART_TYPE',
                        'RMS',  'MAXI', 'MINI', )
          )

IMPR_TABLE(  TABLE=TT,
              FILTRE=_F(  NOM_PARA = 'CALCUL',
                       VALE_K = 'DEPL_ANGULAIRE'),
             NOM_PARA=( 'NOEUD', 'MOYEN', 'ECART_TYPE',
                        'RMS',  'MAXI', 'MINI', )
          )

IMPR_TABLE(  TABLE=TT,
              FILTRE=_F(  NOM_PARA = 'CALCUL',
                       VALE_K = 'FORCE_NORMALE'),
             NOM_PARA=( 'NOEUD', 'MOYEN_T_TOTAL', 'MOYEN_T_CHOC',
                        'RMS_T_TOTAL', 'RMS_T_CHOC', 'MAXI', )
          )

IMPR_TABLE(  TABLE=TT,
              FILTRE=_F(  NOM_PARA = 'CALCUL',
                       VALE_K = 'FORCE_TANG_1'),
             NOM_PARA=( 'NOEUD', 'MOYEN', 'ECART_TYPE',
                        'RMS',  'MAXI', 'MINI', )
          )

IMPR_TABLE(  TABLE=TT,
              FILTRE=_F(  NOM_PARA = 'CALCUL',
                       VALE_K = 'FORCE_TANG_2'),
             NOM_PARA=( 'NOEUD', 'MOYEN', 'ECART_TYPE',
                        'RMS',  'MAXI', 'MINI', )
          )

IMPR_TABLE(  TABLE=TT,
              FILTRE=_F(  NOM_PARA = 'CALCUL',
                       VALE_K = 'STAT_CHOC'),
             NOM_PARA=( 'NOEUD', 'NB_CHOC_S', 'NB_REBON_CHOC',
                        'T_CHOC_MOYEN', 'T_CHOC_MAXI', 'T_CHOC_MINI',
                        'T_REBON_MOYEN', '%_T_CHOC', )
          )

IMPR_TABLE(  TABLE=TT,
              FILTRE=_F(  NOM_PARA = 'CALCUL',
                       VALE_K = 'PUIS_USURE'),
             NOM_PARA=( 'NOEUD', 'PUIS_USURE', )
          )

TEST_TABLE(VALE_CALC=0.5,
           NOM_PARA='MOYEN',
           TABLE=TT,
           FILTRE=(_F(NOM_PARA='CALCUL',
                      VALE_K='DEPL_X',),
                   _F(NOM_PARA='NOEUD',
                      VALE_K='N76',),
                   ),
           )

# attention : le comportement du generateur de nombres aleatoires
# (module random) a change entre la version 2.2 de python et la
# version 2.3. Les resultats s en trouvent un peu affectes.
TEST_TABLE(VALE_CALC=2.3952571718236E-05,
         NOM_PARA='ECART_TYPE',
         TABLE=TT,
         FILTRE=(_F(NOM_PARA='CALCUL',
                    VALE_K='DEPL_Y',),
                 _F(NOM_PARA='NOEUD',
                    VALE_K='N76',),
                 ),
         )

TEST_TABLE(VALE_CALC=2.3953796924052E-05,
         NOM_PARA='RMS',
         TABLE=TT,
         FILTRE=(_F(NOM_PARA='CALCUL',
                    VALE_K='DEPL_RADIAL',),
                 _F(NOM_PARA='NOEUD',
                    VALE_K='N76',),
                 ),
         )

TEST_TABLE(VALE_CALC=23.953796924052,
         NOM_PARA='RMS_T_TOTAL',
         TABLE=TT,
         FILTRE=(_F(NOM_PARA='CALCUL',
                    VALE_K='FORCE_NORMALE',),
                 _F(NOM_PARA='NOEUD',
                    VALE_K='N76',),
                 ),
         )

TEST_TABLE(VALE_CALC=180.0,
           NOM_PARA='MAXI',
           TABLE=TT,
           FILTRE=(_F(NOM_PARA='CALCUL',
                      VALE_K='DEPL_ANGULAIRE',),
                   _F(NOM_PARA='NOEUD',
                      VALE_K='N70',),
                   ),
           )

TEST_TABLE(CRITERE='ABSOLU',
           VALE_CALC=0.0,
           NOM_PARA='MOYEN',
           TABLE=TT,
           FILTRE=(_F(NOM_PARA='CALCUL',
                      VALE_K='FORCE_TANG_1',),
                   _F(NOM_PARA='NOEUD',
                      VALE_K='N76',),
                   ),
           )

TEST_TABLE(CRITERE='ABSOLU',
           VALE_CALC=0.0,
           NOM_PARA='ECART_TYPE',
           TABLE=TT,
           FILTRE=(_F(NOM_PARA='CALCUL',
                      VALE_K='FORCE_TANG_2',),
                   _F(NOM_PARA='NOEUD',
                      VALE_K='N76',),
                   ),
           )

TEST_TABLE(CRITERE='ABSOLU',
           VALE_CALC=0.0,
           NOM_PARA='T_CHOC_MOYEN',
           TABLE=TT,
           FILTRE=(_F(NOM_PARA='CALCUL',
                      VALE_K='STAT_CHOC',),
                   _F(NOM_PARA='NOEUD',
                      VALE_K='N70',),
                   ),
           )

TEST_TABLE(CRITERE='ABSOLU',
           VALE_CALC=0.0,
           NOM_PARA='PUIS_USURE',
           TABLE=TT,
           FILTRE=(_F(NOM_PARA='CALCUL',
                      VALE_K='PUIS_USURE',),
                   _F(NOM_PARA='NOEUD',
                      VALE_K='N70',),
                   ),
           )

#

DEPLY=RECU_FONCTION(   RESU_GENE=DYNAMODE,     NOM_CHAM='DEPL',
                            NOEUD='N51',            NOM_CMP='DY',
                            INTERPOL='LIN'      )

#

INT2=CALC_INTE_SPEC(   INST_INIT=0.,
                             INST_FIN=1.999,
                              DUREE_ANALYSE=1.,
                             DUREE_DECALAGE=1.,
                              NB_POIN=2*512,
                             FONCTION=DEPLY
                         )

REP3=RECU_FONCTION(    INTE_SPEC=INT2,
                    NUME_ORDRE_I = 1,
                      )

TEST_FONCTION(VALEUR=_F(VALE_CALC=4.489358E-08,                         #7.390728E-08
                        VALE_REFE=4.49E-08,                             #7.40E-08
                        REFERENCE='NON_DEFINI',
                        VALE_PARA=4.2000000000000002,
                        PRECISION=1.E-2,
                        FONCTION=REP3,),
                )

FIN( )
#
