# ======================================================================
# COPYRIGHT (C) 1991 - 2016  EDF R&D                  WWW.CODE-ASTER.ORG
# THIS PROGRAM IS FREE SOFTWARE; YOU CAN REDISTRIBUTE IT AND/OR MODIFY
# IT UNDER THE TERMS OF THE GNU GENERAL PUBLIC LICENSE AS PUBLISHED BY
# THE FREE SOFTWARE FOUNDATION; EITHER VERSION 2 OF THE LICENSE, OR
# (AT YOUR OPTION) ANY LATER VERSION.
#
# THIS PROGRAM IS DISTRIBUTED IN THE HOPE THAT IT WILL BE USEFUL, BUT
# WITHOUT ANY WARRANTY; WITHOUT EVEN THE IMPLIED WARRANTY OF
# MERCHANTABILITY OR FITNESS FOR A PARTICULAR PURPOSE. SEE THE GNU
# GENERAL PUBLIC LICENSE FOR MORE DETAILS.
#
# YOU SHOULD HAVE RECEIVED A COPY OF THE GNU GENERAL PUBLIC LICENSE
# ALONG WITH THIS PROGRAM; IF NOT, WRITE TO EDF R&D CODE_ASTER,
#    1 AVENUE DU GENERAL DE GAULLE, 92141 CLAMART CEDEX, FRANCE.
# ======================================================================
# ======================================================================
# CAS TEST INFORMATIQUE DE VALIDATION DES SOLVEURS MODAUX SORENSEN ET QZ
# EN GENERALISE ET QUADRATIQUE NON SYMETRIQUES (EN STRUCTURE ET EN
# VALEURS NUMERIQUES)
# ON TESTE LES 3 APPROCHES DE SORENSEN EN QUADRATIQUE
# PERIMETRE: MATRICES K, M (ET C EN QUAD) REELLES ET NON SYMETRIQUES
#
# CAS TEST DOUBLONS DU SDLL123A EXPLOITANT LE CARACTERE NON SYMETRIQUE
# DES MATRICES ISSUES DU CALCUL ELEMENTAIRE 'MECA_GYRO'
# SUR LES VALEURS PROPRES: ON COMPARE QZ ET SORENSEN A PYTHON/LAPACK
#
# DETAILS:
# CE CAS-TEST EST INSTRUMENTE POUR JOUER SUR:
#   - CONSTRUCTION DE PBS MODAUX SYM, NON SYM STRUCTUREL AVEC VALEURS
#     SYM ET AVEC VALEURS NON SYM.
#   - TECHNIQUE DE REDUCTION LINEAIRE POUR PASSAGE ASTER/PYTHON
#   - EN QUADRATIQUE, VARIANTES DE SORENSEN
# ======================================================================

import aster_core
import numpy as NP
import numpy.linalg as LA

DEBUT( CODE=_F(NIV_PUB_WEB='INTERNET'),
       PAR_LOT='NON', DEBUG=_F(SDVERI='OUI'))
aster_core.matfpe(-1)

nddl=19*6-4-4

MAIL=LIRE_MAILLAGE()

MODELE=AFFE_MODELE(MAILLAGE=MAIL,
                   AFFE=(_F(GROUP_MA='ROTOR',
                           PHENOMENE='MECANIQUE',
                           MODELISATION='POU_D_E',),
                         _F(GROUP_MA=('DISQUES'),
                           PHENOMENE='MECANIQUE',
                           MODELISATION='DIS_TR',),
                         )
                       )

ACIER=DEFI_MATERIAU(ELAS=_F(E=2.06E11,
                            NU=0.0,
                            RHO=7800.0,),);



CHMAT=AFFE_MATERIAU(MAILLAGE=MAIL,
                    AFFE=(_F(GROUP_MA='ROTOR',
                            MATER=ACIER,),))

CARELEM=AFFE_CARA_ELEM(MODELE=MODELE,
                       POUTRE=(_F(GROUP_MA='ROTOR',
                                 SECTION='CERCLE',
                                 CARA='R',
                                 VALE=(.025),),),
                        DISCRET=(
                                   _F(GROUP_MA='DISQUES',
                                     CARA='M_TR_D_N',
                                     VALE=(0.03829,3.000E-6,1.8000E-6,1.8000E-6,0.,0.,0.,0.,0.,0.),),
                                   _F(GROUP_MA='DISQUES',
                                     CARA='K_TR_D_N',
                                     VALE=(0.,0.,0.,0.,0.,0.,), ),
                                   _F(GROUP_MA='DISQUES',
                                     CARA='A_TR_D_N',
                                     VALE=(0.,0.,0.,0.,0.,0.,), )
                        )
                        )



BLOQUAGE=AFFE_CHAR_MECA(MODELE=MODELE,
                               DDL_IMPO=(
                                 _F(GROUP_NO=('PALIER_A','PALIER_B'),
                                     DX=0, DY=0, DZ=0,
                                     DRX=0,
                                     ),
                          ))


ASSEMBLAGE(MODELE=MODELE,
                CHAM_MATER=CHMAT,
                CARA_ELEM=CARELEM,
                CHARGE=BLOQUAGE,
                NUME_DDL=CO('NUMEDDL'),
                MATR_ASSE=(_F(MATRICE=CO('RIGIDITE'),
                              OPTION='RIGI_MECA',),
                           _F(MATRICE=CO('MASSE'),
                              OPTION='MASS_MECA',),
                           _F(MATRICE=CO('GYASS'),
                              OPTION='MECA_GYRO',),
                           _F(MATRICE=CO('AMOR'),
                              OPTION='AMOR_MECA',),),);



######################################
# TEST GENERALISE REEL SYM ET NON SYM
######################################
sym='oui'
sym='non'
if (sym=='oui') :
# TEST SORENSEN + QZ + PYTHON EN GENERALISE REEL SYM
  option=1
  MATK=RIGIDITE
  MATM=MASSE
else:
# TEST SORENSEN + QZ + PYTHON EN GENERALISE REEL NON SYM
  option=2
  MATK=COMB_MATR_ASSE(COMB_R=(_F(MATR_ASSE=GYASS,    COEF_R=100.,),
                              _F(MATR_ASSE=RIGIDITE, COEF_R=1.,),))

  MATM=COMB_MATR_ASSE(COMB_R=(_F(MATR_ASSE=GYASS,    COEF_R=10.,),
                              _F(MATR_ASSE=MASSE,    COEF_R=1.,),))


# CALCUL VIA SORENSEN
MG_SO=CALC_MODES(INFO=1,
                 MATR_RIGI=MATK,
                 OPTION='CENTRE',
                 CALC_FREQ=_F(NMAX_FREQ=10,
                              FREQ=1000.,
                              ),
                 MATR_MASS=MATM,
                 SOLVEUR_MODAL=_F(METHODE='SORENSEN',
                                  ),
                 )
# CALCUL VIA QZ
MG_QZ=CALC_MODES(INFO=1,
                 MATR_RIGI=MATK,
                 OPTION='CENTRE',
                 CALC_FREQ=_F(NMAX_FREQ=10,
                              FREQ=1000.,
                              ),
                 MATR_MASS=MATM,
                 SOLVEUR_MODAL=_F(METHODE='QZ',
                                  ),
                 )

# CALCUL VIA PYTHON
rigF=MATK.EXTR_MATR()
masF=MATM.EXTR_MATR()

#-----------------------------------------------------#
#--                                                 --#
#-- Elimination des degres de libertes de Lagranges --#
#--                                                 --#
#--        c.f. doc R4.06.02   - section 2.5        --#
#--        + commentaires dans sdll123a.comm        --#
#--                                                 --#
#-----------------------------------------------------#

nom_nume='NUMEDDL'
Nume=aster.getvectjev(nom_nume.ljust(8)+'      .NUME.DELG        ' )
ind_lag1=[]
ind_nolag=[]

for i1 in range(len(Nume)) :
  if Nume[i1] > -0.5 :
    ind_nolag.append(i1)
  if (Nume[i1] < -0.5) & (Nume[i1] > -1.5):
    ind_lag1.append(i1)

nlag1=len(ind_lag1)
nnolag=len(ind_nolag)

Z=NP.zeros((nnolag-nlag1,nnolag))
C=NP.vstack((rigF[ind_lag1][:,ind_nolag],Z))
Q,R = NP.linalg.qr(NP.transpose(C))

dR=[]
for i1 in range(len(R)) :
  dR.append(NP.abs(R[i1,i1]))

mdR=NP.max(dR)
indz=[]
for i1 in range(len(R)) :
  if NP.abs(R[i1,i1]) <= mdR*1.e-16 :
    indz.append(i1)

mas=NP.dot(NP.transpose(Q[:][:,indz]),NP.dot(masF[ind_nolag][:,ind_nolag],Q[:][:,indz]))
rig=NP.dot(NP.transpose(Q[:][:,indz]),NP.dot(rigF[ind_nolag][:,ind_nolag],Q[:][:,indz]))

#-- Fin elimination

variante=2
# variante 1: K-1*M U = 1/lambda  * U
if (variante==1) :
  masI=LA.inv(rig)
  HPRIME=NP.dot(masI,mas)
  frequence=LA.eigvals(HPRIME)
  fr=list(frequence)
  i=0
  for vp in fr:
     i=i+1
     if (abs(vp)==0) :
       print i,'infinity'
     else       :
       vp1=(1/vp)
       if (sym=='oui') :
         vp1r=NP.sqrt(abs(vp1))/2/NP.pi
         print i,vp1r
       else :
         vp1r=NP.sqrt(abs(vp1.real))/2/NP.pi
         vp1i=0.5*vp1.imag/vp1.real
         print i,vp1r,vp1i

else :
# variante 2 : M-1*K U = lambda * U
  masI=LA.inv(mas)
  HPRIME=NP.dot(masI,rig)
  frequence=LA.eigvals(HPRIME)
  fr=list(frequence)
  i=0
  for vp in fr:
     i=i+1
     if (abs(vp)==0) :
       print i,'zero'
     else       :
       vp1=vp
       if (sym=='oui') :
         vp1r=sqrt(abs(vp1))/2/pi
         print i,vp1r
       else :
         vp1r=sqrt(abs(vp1.real))/2/pi
         vp1i=0.5*vp1.imag/vp1.real
         print i,vp1r,vp1i

TEST_RESU(RESU=(_F(NUME_ORDRE=1,
                   PARA='FREQ',
                   RESULTAT=MG_SO,
                   VALE_CALC=124.14153990951,
                   CRITERE='RELATIF',
                   ),
                _F(NUME_ORDRE=1,
                   PARA='AMOR_REDUIT',
                   VALE_ABS='OUI',
                   RESULTAT=MG_SO,
                   VALE_CALC=0.018933070326088999,
                   CRITERE='RELATIF',
                   ),
                _F(NUME_ORDRE=3,
                   PARA='FREQ',
                   RESULTAT=MG_SO,
                   VALE_CALC=492.60572017934999,
                   CRITERE='RELATIF',
                   ),
                _F(NUME_ORDRE=3,
                   PARA='AMOR_REDUIT',
                   VALE_ABS='OUI',
                   RESULTAT=MG_SO,
                   VALE_CALC=0.076259398235486997,
                   CRITERE='RELATIF',
                   ),
                _F(NUME_ORDRE=9,
                   PARA='FREQ',
                   RESULTAT=MG_SO,
                   VALE_CALC=2019.9749398199999,
                   CRITERE='RELATIF',
                   ),
                _F(NUME_ORDRE=9,
                   PARA='AMOR_REDUIT',
                   VALE_ABS='OUI',
                   RESULTAT=MG_SO,
                   VALE_CALC=0.0,
                   CRITERE='ABSOLU',
                   ),
                _F(NUME_ORDRE=1,
                   PARA='FREQ',
                   RESULTAT=MG_QZ,
                   VALE_CALC=124.14153991024,
                   CRITERE='RELATIF',
                   ),
                _F(NUME_ORDRE=1,
                   PARA='AMOR_REDUIT',
                   VALE_ABS='OUI',
                   RESULTAT=MG_QZ,
                   VALE_CALC=0.018933070322204999,
                   CRITERE='RELATIF',
                   ),
                _F(NUME_ORDRE=3,
                   PARA='FREQ',
                   RESULTAT=MG_QZ,
                   VALE_CALC=492.60572017924,
                   CRITERE='RELATIF',
                   ),
                _F(NUME_ORDRE=3,
                   PARA='AMOR_REDUIT',
                   VALE_ABS='OUI',
                   RESULTAT=MG_QZ,
                   VALE_CALC=0.076259398235344,
                   CRITERE='RELATIF',
                   ),
                _F(NUME_ORDRE=9,
                   PARA='FREQ',
                   RESULTAT=MG_QZ,
                   VALE_CALC=2019.9749398199999,
                   CRITERE='RELATIF',
                   ),
                _F(NUME_ORDRE=9,
                   PARA='AMOR_REDUIT',
                   VALE_ABS='OUI',
                   RESULTAT=MG_QZ,
                   VALE_CALC=0.0,
                   CRITERE='ABSOLU',
                   ),
                ),
          )

######################################
# TEST QUADRATIQUE REEL SYM ET NON SYM
######################################
sym='oui'
sym='non'
if (sym=='oui') :
# TEST SORENSEN + QZ + PYTHON EN QUADRATIQUE REEL SYM
  option=1
  MATK1=RIGIDITE
  MATM1=MASSE
  MATC1=GYASS
else:
# TEST SORENSEN + QZ + PYTHON EN QUADRATIQUE REEL NON SYM
  option=2
  MATK1=COMB_MATR_ASSE(COMB_R=(_F(MATR_ASSE=GYASS,    COEF_R=100.,),
                              _F(MATR_ASSE=RIGIDITE, COEF_R=1.,),))

  MATM1=COMB_MATR_ASSE(COMB_R=(_F(MATR_ASSE=GYASS,    COEF_R=10.,),
                              _F(MATR_ASSE=MASSE,    COEF_R=1.,),))
  MATC1=GYASS

# CALCUL VIA SORENSEN (APPROCHE COMPLEXE, REELLE ET IMAGINAIRE)
MQ_SO=CALC_MODES(INFO=1,
                 MATR_RIGI=MATK1,
                 OPTION='CENTRE',
                 CALC_FREQ=_F(NMAX_FREQ=10,
                              FREQ=1000.,
                              ),
                 MATR_AMOR=MATC1,
                 MATR_MASS=MATM1,
                 SOLVEUR_MODAL=_F(APPROCHE='COMPLEXE',
                                  METHODE='SORENSEN',
                                  ),
                 )
MQ_SOR=CALC_MODES(INFO=1,
                  MATR_RIGI=MATK1,
                  VERI_MODE=_F(SEUIL=1.E-04,
                               ),
                  OPTION='CENTRE',
                  CALC_FREQ=_F(NMAX_FREQ=10,
                               FREQ=1000.,
                               ),
                  MATR_AMOR=MATC1,
                  MATR_MASS=MATM1,
                  SOLVEUR_MODAL=_F(APPROCHE='REEL',
                                   METHODE='SORENSEN',
                                   ),
                  )
MQ_SOI=CALC_MODES(INFO=1,
                  MATR_RIGI=MATK1,
                  OPTION='CENTRE',
                  CALC_FREQ=_F(NMAX_FREQ=10,
                               FREQ=1000.,
                               ),
                  MATR_AMOR=MATC1,
                  MATR_MASS=MATM1,
                  SOLVEUR_MODAL=_F(APPROCHE='IMAG',
                                   METHODE='SORENSEN',
                                   ),
                  )

# CALCUL VIA QZ
MQ_QZ=CALC_MODES(INFO=1,
                 MATR_RIGI=MATK1,
                 VERI_MODE=_F(SEUIL=1.E-04,
                              ),
                 OPTION='CENTRE',
                 CALC_FREQ=_F(NMAX_FREQ=10,
                              FREQ=1000.,
                              ),
                 MATR_AMOR=MATC1,
                 MATR_MASS=MATM1,
                 SOLVEUR_MODAL=_F(METHODE='QZ',
                                  ),
                 )

# CALCUL VIA PYTHON
rigF=MATK1.EXTR_MATR()
masF=MATM1.EXTR_MATR()
amorF=MATC1.EXTR_MATR()

#-----------------------------------------------------#
#--                                                 --#
#-- Elimination des degres de libertes de Lagranges --#
#--                                                 --#
#-----------------------------------------------------#

nom_nume='NUMEDDL'
Nume=aster.getvectjev(nom_nume.ljust(8)+'      .NUME.DELG        ' )
ind_lag1=[]
ind_nolag=[]

for i1 in range(len(Nume)) :
  if Nume[i1] > -0.5 :
    ind_nolag.append(i1)
  if (Nume[i1] < -0.5) & (Nume[i1] > -1.5):
    ind_lag1.append(i1)

nlag1=len(ind_lag1)
nnolag=len(ind_nolag)

Z=NP.zeros((nnolag-nlag1,nnolag))
C=NP.vstack((rigF[ind_lag1][:,ind_nolag],Z))
Q,R = NP.linalg.qr(NP.transpose(C))

dR=[]
for i1 in range(len(R)) :
  dR.append(NP.abs(R[i1,i1]))

mdR=NP.max(dR)
indz=[]
for i1 in range(len(R)) :
  if NP.abs(R[i1,i1]) <= mdR*1.e-16 :
    indz.append(i1)

mas=NP.dot(NP.transpose(Q[:][:,indz]),NP.dot(masF[ind_nolag][:,ind_nolag],Q[:][:,indz]))
rig=NP.dot(NP.transpose(Q[:][:,indz]),NP.dot(rigF[ind_nolag][:,ind_nolag],Q[:][:,indz]))
amor=NP.dot(NP.transpose(Q[:][:,indz]),NP.dot(amorF[ind_nolag][:,ind_nolag],Q[:][:,indz]))

#-- Fin elimination

variante=1
if (variante==1) :
  masI=LA.inv(mas)
  HPRIME=NP.zeros((nddl*2,nddl*2))
  HPRIME[0:nddl,0:nddl]=NP.dot(amor,masI)
  HPRIME[0:nddl,nddl:2*nddl]=NP.dot(rig,masI)
  HPRIME[nddl:2*nddl,0:nddl]=-NP.identity(nddl)
  frequence=LA.eigvals(HPRIME)
  fr=list(frequence)
  i=0
  for vp in fr:
     i=i+1
     if (abs(vp)==0) :
       print i,'zero'
     else       :
       vp1r=vp.real
       vp1i=vp.imag/2/pi
       print i,vp1i,-vp1r/abs(vp)

aster_core.matfpe(+1)

TEST_RESU(RESU=(_F(NUME_ORDRE=1,
                   PARA='FREQ',
                   RESULTAT=MQ_SO,
                   VALE_CALC=124.16347900468,
                   CRITERE='RELATIF',
                   ),
                _F(NUME_ORDRE=1,
                   PARA='AMOR_REDUIT',
                   VALE_ABS='OUI',
                   RESULTAT=MQ_SO,
                   VALE_CALC=0.018922853711593999,
                   CRITERE='RELATIF',
                   ),
                _F(NUME_ORDRE=3,
                   PARA='FREQ',
                   RESULTAT=MQ_SO,
                   VALE_CALC=494.02662017179,
                   CRITERE='RELATIF',
                   ),
                _F(NUME_ORDRE=3,
                   PARA='AMOR_REDUIT',
                   VALE_ABS='OUI',
                   RESULTAT=MQ_SO,
                   VALE_CALC=0.075603808282835,
                   CRITERE='RELATIF',
                   ),
                _F(NUME_ORDRE=1,
                   PARA='FREQ',
                   RESULTAT=MQ_SOR,
                   VALE_CALC=494.02662040152001,
                   CRITERE='RELATIF',
                   ),
                _F(NUME_ORDRE=1,
                   PARA='AMOR_REDUIT',
                   VALE_ABS='OUI',
                   RESULTAT=MQ_SOR,
                   VALE_CALC=0.075603807827126002,
                   CRITERE='RELATIF',
                   ),
                _F(NUME_ORDRE=3,
                   PARA='FREQ',
                   RESULTAT=MQ_SOR,
                   VALE_CALC=1073.20610562,
                   CRITERE='RELATIF',
                   ),
                _F(NUME_ORDRE=3,
                   PARA='AMOR_REDUIT',
                   VALE_ABS='OUI',
                   RESULTAT=MQ_SOR,
                   VALE_CALC=0.16349405212033,
                   CRITERE='RELATIF',
                   ),
                _F(NUME_ORDRE=1,
                   PARA='FREQ',
                   RESULTAT=MQ_SOI,
                   VALE_CALC=494.02662017181001,
                   CRITERE='RELATIF',
                   ),
                _F(NUME_ORDRE=1,
                   PARA='AMOR_REDUIT',
                   VALE_ABS='OUI',
                   RESULTAT=MQ_SOI,
                   VALE_CALC=0.075603808282852999,
                   CRITERE='RELATIF',
                   ),
                _F(NUME_ORDRE=3,
                   PARA='FREQ',
                   RESULTAT=MQ_SOI,
                   VALE_CALC=1073.20610571,
                   CRITERE='RELATIF',
                   ),
                _F(NUME_ORDRE=3,
                   PARA='AMOR_REDUIT',
                   VALE_ABS='OUI',
                   RESULTAT=MQ_SOI,
                   VALE_CALC=0.16349405220252999,
                   CRITERE='RELATIF',
                   ),
                _F(NUME_ORDRE=1,
                   PARA='FREQ',
                   RESULTAT=MQ_QZ,
                   VALE_CALC=124.16347940866,
                   CRITERE='RELATIF',
                   ),
                _F(NUME_ORDRE=1,
                   PARA='AMOR_REDUIT',
                   VALE_ABS='OUI',
                   RESULTAT=MQ_QZ,
                   VALE_CALC=0.018922850338748999,
                   CRITERE='RELATIF',
                   ),
                _F(NUME_ORDRE=3,
                   PARA='FREQ',
                   RESULTAT=MQ_QZ,
                   VALE_CALC=494.02661647037002,
                   CRITERE='RELATIF',
                   ),
                _F(NUME_ORDRE=3,
                   PARA='AMOR_REDUIT',
                   VALE_ABS='OUI',
                   RESULTAT=MQ_QZ,
                   VALE_CALC=0.075603827111568003,
                   CRITERE='RELATIF',
                   ),
                _F(NUME_ORDRE=10,
                   PARA='FREQ',
                   RESULTAT=MQ_QZ,
                   VALE_CALC=2459.8045634288001,
                   CRITERE='RELATIF',
                   ),
                _F(NUME_ORDRE=10,
                   PARA='AMOR_REDUIT',
                   VALE_ABS='OUI',
                   RESULTAT=MQ_QZ,
                   VALE_CALC=0.37000877864493997,
                   CRITERE='RELATIF',
                   ),
                ),
          )

FIN()
