# TITRE CALCUL SISMIQUE DE LA TUYAUTERIE BM3 (TEST NRC)
# ======================================================================
# COPYRIGHT (C) 1991 - 2012  EDF R&D                  WWW.CODE-ASTER.ORG
# THIS PROGRAM IS FREE SOFTWARE; YOU CAN REDISTRIBUTE IT AND/OR MODIFY  
# IT UNDER THE TERMS OF THE GNU GENERAL PUBLIC LICENSE AS PUBLISHED BY  
# THE FREE SOFTWARE FOUNDATION; EITHER VERSION 2 OF THE LICENSE, OR     
# (AT YOUR OPTION) ANY LATER VERSION.                                                    
#                                                                       
# THIS PROGRAM IS DISTRIBUTED IN THE HOPE THAT IT WILL BE USEFUL, BUT   
# WITHOUT ANY WARRANTY; WITHOUT EVEN THE IMPLIED WARRANTY OF            
# MERCHANTABILITY OR FITNESS FOR A PARTICULAR PURPOSE. SEE THE GNU      
# GENERAL PUBLIC LICENSE FOR MORE DETAILS.                              
#                                                                       
# YOU SHOULD HAVE RECEIVED A COPY OF THE GNU GENERAL PUBLIC LICENSE     
# ALONG WITH THIS PROGRAM; IF NOT, WRITE TO EDF R&D CODE_ASTER,         
#    1 AVENUE DU GENERAL DE GAULLE, 92141 CLAMART CEDEX, FRANCE.        
# ======================================================================

DEBUT(CODE=_F(NOM='SDLL149B',
              NIV_PUB_WEB='INTERNET'),)

MA=LIRE_MAILLAGE(FORMAT='MED',)

# -------------------------------------------------------------
# DEFINTION DES GROUPES DE SECTIONS : SEC1, SEC2 ET SEC3
# -------------------------------------------------------------

MA=DEFI_GROUP(reuse=MA,
              MAILLAGE=MA,
              CREA_GROUP_MA=(_F(NOM='SEC1',
                                UNION=('E1','E2','E3','E4','E5','E6','E7','E8','E9','E10',
                                       'E11','E12','E13','E14','E15','E16','E17','E18','E19','E20',),),
                             _F(NOM='SEC2',
                                UNION=('E21','E22','E23','E24','E25','E26','E27','E28','E29','E30',),),
                             _F(NOM='SEC3',
                                UNION=('E31','E32','E33','E34','E35','E36','E37',),),),);

# -------------------------------------------------------------
# MODELISATION POUTRES DROITES ET COURBES DE TIMOCHENKO
# ------------------------------------------------------------- 

MODELE=AFFE_MODELE(MAILLAGE=MA,
                   AFFE=(_F(TOUT='OUI',
                            PHENOMENE='MECANIQUE',
                            MODELISATION='POU_D_T'),
                         _F(GROUP_MA=('E2','E5','E7','E13','E16','E19','E23','E26','E29','E35',),
                            PHENOMENE='MECANIQUE',
                            MODELISATION='POU_C_T'),
                         _F(GROUP_MA=('R1','R4','R7','R11','R15','R17','R23','R36','R38','R31',),
                            PHENOMENE='MECANIQUE', 
                            MODELISATION='DIS_TR',),),);

# -------------------------------------------------------------
# CARACTERISTIQUES DES SECTIONS ET DES RAIDEURS
# ------------------------------------------------------------- 

#SEC1:

R1 = 1.75
e1 = 0.2160
rc1 = 4.5
lambda1 = ((e1 * rc1) / ((R1 - (e1 / 2.0)) ** 2));
cflex1 = (1.65 / lambda1)

#SEC2:

R2 = 2.25
e2 = 0.2370
rc2 = 6.0
lambda2 = ((e2 * rc2) / ((R2 - (e2 / 2.0)) ** 2))
cflex2 = (1.65 / lambda2)

#SEC3:

R3 = 4.3125
e3 = 0.3220
rc3 = 12.0
lambda3 = ((e3 * rc3) / ((R3 - (e3 / 2.0)) ** 2))
cflex3 = (1.65 / lambda3)

#RAIDEUR :

raideur1 = 1.E20;
raideur2 = 1.E11;
raideur3 = 1.E8;
raideur4 = 1.E5;

#AFFECTATION :

CARA_ELE=AFFE_CARA_ELEM(MODELE=MODELE,
                        POUTRE=(_F(GROUP_MA='SEC1',
                                   SECTION='CERCLE',
                                   CARA=('R','EP',), 
                                   VALE=(R1,e1,),),
                                _F(GROUP_MA='SEC2',
                                   SECTION='CERCLE',
                                   CARA=('R','EP',), 
                                   VALE=(R2,e2,),),
                                _F(GROUP_MA='SEC3',
                                   SECTION='CERCLE',
                                   CARA=('R','EP',), 
                                   VALE=(R3,e3,),),),
                        DISCRET=(_F(CARA='K_TR_D_L', 
                                    GROUP_MA=('R1',),
                                    VALE=(raideur2,raideur2,raideur2,raideur1,raideur1,raideur1,),),
                                 _F(CARA='K_TR_D_L', 
                                    GROUP_MA=('R4',),
                                    VALE=(raideur3,0.,raideur3,0.,0.,0.,),),
                                 _F(CARA='K_TR_D_L', 
                                    GROUP_MA=('R7',),
                                    VALE=(0.,raideur3,0.,0.,0.,0.,),),
                                 _F(CARA='K_TR_D_L', 
                                    GROUP_MA=('R11',),
                                    VALE=(0.,raideur3,raideur4,0.,0.,0.,),),
                                 _F(CARA='K_TR_D_L', 
                                    GROUP_MA=('R15',),
                                    VALE=(raideur4,0.,0.,0.,0.,0.,),),
                                 _F(CARA='K_TR_D_L', 
                                    GROUP_MA=('R17',),
                                    VALE=(0.,raideur3,raideur4,0.,0.,0.,),),
                                 _F(CARA='K_TR_D_L', 
                                    GROUP_MA=('R36',),
                                    VALE=(0.,raideur3,raideur4,0.,0.,0.,),),
                                 _F(CARA='K_TR_D_L', 
                                    GROUP_MA=('R38',),
                                    VALE=(raideur2,raideur2,raideur2,raideur1,raideur1,raideur1,),),
                                 _F(CARA='K_TR_D_L', 
                                    GROUP_MA=('R23',),
                                    VALE=(raideur4,raideur3,0.,0.,0.,0.,),),
                                 _F(CARA='K_TR_D_L', 
                                    GROUP_MA=('R31',),
                                    VALE=(raideur2,raideur2,raideur2,raideur1,raideur1,raideur1,),),
                                 _F(CARA='M_TR_D_L', 
                                    GROUP_MA=('R1',),
                                    VALE=(0.0,0.0,0.0,0.0,),),
                                 _F(CARA='M_TR_D_L', 
                                    GROUP_MA=('R4',),
                                    VALE=(0.0,0.0,0.0,0.0,),),
                                 _F(CARA='M_TR_D_L', 
                                    GROUP_MA=('R7',),
                                    VALE=(0.0,0.0,0.0,0.0,),),
                                 _F(CARA='M_TR_D_L', 
                                    GROUP_MA=('R11',),
                                    VALE=(0.0,0.0,0.0,0.0,),),
                                 _F(CARA='M_TR_D_L', 
                                    GROUP_MA=('R15',),
                                    VALE=(0.0,0.0,0.0,0.0,),),
                                 _F(CARA='M_TR_D_L', 
                                    GROUP_MA=('R17',),
                                    VALE=(0.0,0.0,0.0,0.0,),),
                                 _F(CARA='M_TR_D_L', 
                                    GROUP_MA=('R36',),
                                    VALE=(0.0,0.0,0.0,0.0,),),
                                 _F(CARA='M_TR_D_L', 
                                    GROUP_MA=('R38',),
                                    VALE=(0.0,0.0,0.0,0.0,),),
                                 _F(CARA='M_TR_D_L', 
                                    GROUP_MA=('R23',),
                                    VALE=(0.0,0.0,0.0,0.0,),),
                                 _F(CARA='M_TR_D_L', 
                                    GROUP_MA=('R31',),
                                    VALE=(0.0,0.0,0.0,0.0,),),),
                        DEFI_ARC=(_F(GROUP_MA='E2',
                                     CENTRE=(15.,-4.5,0.,),
                                     COEF_FLEX=cflex1,
                                     RAYON=rc1,),
                                  _F(GROUP_MA='E5',
                                     CENTRE=(19.5,-199.5,4.5,),
                                     COEF_FLEX=cflex1,
                                     RAYON=rc1,),
                                  _F(GROUP_MA='E7',
                                     CENTRE=(24.,-204.,139.5,),
                                     COEF_FLEX=cflex1,
                                     RAYON=rc1,),
                                  _F(GROUP_MA='E13',
                                     CENTRE=(483.,-204.,148.5,),
                                     COEF_FLEX=cflex1,
                                     RAYON=rc1,),
                                  _F(GROUP_MA='E16',
                                     CENTRE=(492.,-204,235.5,),
                                     COEF_FLEX=cflex1,
                                     RAYON=rc1,),
                                  _F(GROUP_MA='E19',
                                     CENTRE=(723.,-208.5,240.,),
                                     COEF_FLEX=cflex1,
                                     RAYON=rc1,),
                                  _F(GROUP_MA='E23',
                                     CENTRE=(733.5,-264.,190.,),
                                     COEF_FLEX=cflex2,
                                     RAYON=rc2,),
                                  _F(GROUP_MA='E26',
                                     CENTRE=(845.5,-264.,178.,),
                                     COEF_FLEX=cflex2,
                                     RAYON=rc2,),
                                  _F(GROUP_MA='E29',
                                     CENTRE=(851.5,-270.,142.,),
                                     COEF_FLEX=cflex2,
                                     RAYON=rc2,),
                                  _F(GROUP_MA='E35',
                                     CENTRE=(739.5,-264.,414.,),
                                     COEF_FLEX=cflex3,
                                     RAYON=rc3,),),);

# -------------------------------------------------------------
# CARACTERISTIQUES MATERIAUX
# ------------------------------------------------------------- 

YOUNG = 2.9E7;
POISSON = 0.3;

MAT1=DEFI_MATERIAU(ELAS=_F(E=YOUNG,  
                           NU=POISSON,  
                           RHO=1.0429E-3,),);
                           
MAT2=DEFI_MATERIAU(ELAS=_F(E=YOUNG,  
                           NU=POISSON,  
                           RHO=1.1073E-3,),);
                           
MAT3=DEFI_MATERIAU(ELAS=_F(E=YOUNG,  
                           NU=POISSON,  
                           RHO=1.2901E-3,),);                                                      
                   
CHMAT=AFFE_MATERIAU(MAILLAGE=MA,
                    MODELE=MODELE,
                    AFFE=(_F(GROUP_MA='SEC1',
                             MATER=MAT1,),
                          _F(GROUP_MA='SEC2',
                             MATER=MAT2,),
                          _F(GROUP_MA='SEC3',
                             MATER=MAT3,),),);

# -------------------------------------------------------------
# ANALYSE MODALE
# -------------------------------------------------------------

SUPPORT=AFFE_CHAR_MECA(MODELE=MODELE,
                      DDL_IMPO=_F(GROUP_NO=('N1B','N4B','N7B','N11B','N15B','N17B','N36B','N38B','N23B','N31B',),
                                  DX=0,
                                  DY=0,
                                  DZ=0,
                                  DRX=0,
                                  DRY=0,
                                  DRZ=0,),);
                                    
ASSEMBLAGE(MODELE=MODELE,
                CHAM_MATER=CHMAT,
                CARA_ELEM=CARA_ELE,
                CHARGE=SUPPORT,
                NUME_DDL=CO('NUMEDDL'),
                MATR_ASSE=(_F(MATRICE=CO('RIGIDITE'),
                              OPTION='RIGI_MECA',),
                           _F(MATRICE=CO('MASSE'),
                              OPTION='MASS_MECA_DIAG',),),);

MODECA=MODE_ITER_SIMULT(MATR_RIGI=RIGIDITE,
                        MATR_MASS=MASSE,
                        CALC_FREQ=_F(OPTION='BANDE',
                                     FREQ=(0.,16.5,),),);

# -------------------------------------------------------------
# VALIDATION DES FREQUENCES PROPRES
# -------------------------------------------------------------

TEST_RESU(RESU=(_F(PARA='FREQ',
                   NUME_MODE=1,
                   REFERENCE='SOURCE_EXTERNE',
                   RESULTAT=MODECA,
                   VALE_CALC=2.905129735,
                   VALE_REFE=2.907,
                   ),
                _F(PARA='FREQ',
                   NUME_MODE=1,
                   RESULTAT=MODECA,
                   VALE_CALC=2.9051297349393002,
                   
                   ),
                _F(PARA='FREQ',
                   NUME_MODE=2,
                   REFERENCE='SOURCE_EXTERNE',
                   RESULTAT=MODECA,
                   VALE_CALC=4.382715027,
                   VALE_REFE=4.3869999999999996,
                   ),
                _F(PARA='FREQ',
                   NUME_MODE=2,
                   RESULTAT=MODECA,
                   VALE_CALC=4.3827150265489996,
                   
                   ),
                _F(PARA='FREQ',
                   NUME_MODE=3,
                   REFERENCE='SOURCE_EXTERNE',
                   RESULTAT=MODECA,
                   VALE_CALC=5.511865552,
                   VALE_REFE=5.516,
                   ),
                _F(PARA='FREQ',
                   NUME_MODE=3,
                   RESULTAT=MODECA,
                   VALE_CALC=5.5118655520397004,
                   
                   ),
                _F(PARA='FREQ',
                   NUME_MODE=4,
                   REFERENCE='SOURCE_EXTERNE',
                   RESULTAT=MODECA,
                   VALE_CALC=5.699263095,
                   VALE_REFE=5.7039999999999997,
                   ),
                _F(PARA='FREQ',
                   NUME_MODE=4,
                   RESULTAT=MODECA,
                   VALE_CALC=5.6992630949430003,
                   
                   ),
                _F(PARA='FREQ',
                   NUME_MODE=5,
                   REFERENCE='SOURCE_EXTERNE',
                   RESULTAT=MODECA,
                   VALE_CALC=6.971138421,
                   VALE_REFE=6.9770000000000003,
                   ),
                _F(PARA='FREQ',
                   NUME_MODE=5,
                   RESULTAT=MODECA,
                   VALE_CALC=6.9711384207059996,
                   
                   ),
                _F(PARA='FREQ',
                   NUME_MODE=6,
                   REFERENCE='SOURCE_EXTERNE',
                   RESULTAT=MODECA,
                   VALE_CALC=7.338688501,
                   VALE_REFE=7.3440000000000003,
                   ),
                _F(PARA='FREQ',
                   NUME_MODE=6,
                   RESULTAT=MODECA,
                   VALE_CALC=7.3386885010974998,
                   
                   ),
                _F(PARA='FREQ',
                   NUME_MODE=7,
                   REFERENCE='SOURCE_EXTERNE',
                   RESULTAT=MODECA,
                   VALE_CALC=7.873165480,
                   VALE_REFE=7.8799999999999999,
                   ),
                _F(PARA='FREQ',
                   NUME_MODE=7,
                   RESULTAT=MODECA,
                   VALE_CALC=7.8731654804116999,
                   
                   ),
                _F(PARA='FREQ',
                   NUME_MODE=8,
                   REFERENCE='SOURCE_EXTERNE',
                   RESULTAT=MODECA,
                   VALE_CALC=10.292419479,
                   VALE_REFE=10.302,
                   ),
                _F(PARA='FREQ',
                   NUME_MODE=8,
                   RESULTAT=MODECA,
                   VALE_CALC=10.292419479177999,
                   
                   ),
                _F(PARA='FREQ',
                   NUME_MODE=9,
                   REFERENCE='SOURCE_EXTERNE',
                   RESULTAT=MODECA,
                   VALE_CALC=11.047577978,
                   VALE_REFE=11.055999999999999,
                   ),
                _F(PARA='FREQ',
                   NUME_MODE=9,
                   RESULTAT=MODECA,
                   VALE_CALC=11.047577978129,
                   
                   ),
                _F(PARA='FREQ',
                   NUME_MODE=10,
                   REFERENCE='SOURCE_EXTERNE',
                   RESULTAT=MODECA,
                   VALE_CALC=11.227674782,
                   VALE_REFE=11.233000000000001,
                   ),
                _F(PARA='FREQ',
                   NUME_MODE=10,
                   RESULTAT=MODECA,
                   VALE_CALC=11.227674782140999,
                   
                   ),
                _F(PARA='FREQ',
                   NUME_MODE=11,
                   REFERENCE='SOURCE_EXTERNE',
                   RESULTAT=MODECA,
                   VALE_CALC=11.485493887,
                   VALE_REFE=11.497999999999999,
                   PRECISION=2.E-3,
                   ),
                _F(PARA='FREQ',
                   NUME_MODE=11,
                   RESULTAT=MODECA,
                   VALE_CALC=11.485493886613,
                   
                   ),
                _F(PARA='FREQ',
                   NUME_MODE=12,
                   REFERENCE='SOURCE_EXTERNE',
                   RESULTAT=MODECA,
                   VALE_CALC=12.416803559,
                   VALE_REFE=12.430999999999999,
                   PRECISION=2.E-3,
                   ),
                _F(PARA='FREQ',
                   NUME_MODE=12,
                   RESULTAT=MODECA,
                   VALE_CALC=12.416803559,
                   
                   ),
                _F(PARA='FREQ',
                   NUME_MODE=13,
                   REFERENCE='SOURCE_EXTERNE',
                   RESULTAT=MODECA,
                   VALE_CALC=13.850228839,
                   VALE_REFE=13.879,
                   PRECISION=3.0000000000000001E-3,
                   ),
                _F(PARA='FREQ',
                   NUME_MODE=13,
                   RESULTAT=MODECA,
                   VALE_CALC=13.850228838911001,
                   
                   ),
                _F(PARA='FREQ',
                   NUME_MODE=14,
                   REFERENCE='SOURCE_EXTERNE',
                   RESULTAT=MODECA,
                   VALE_CALC=16.069254541,
                   VALE_REFE=16.122,
                   PRECISION=4.0000000000000001E-3,
                   ),
                _F(PARA='FREQ',
                   NUME_MODE=14,
                   RESULTAT=MODECA,
                   VALE_CALC=16.069254540719999,
                   
                   ),
                ),
          )

MODECA=NORM_MODE(reuse=MODECA,
                 MODE=MODECA,
                 NORME='MASS_GENE',);

MODECA=CALC_CHAMP(reuse=MODECA,
                  RESULTAT=MODECA,   
                  FORCE='REAC_NODA')

# -------------------------------------------------------------
# LECTURE DU SRO
# -------------------------------------------------------------              

SPECTRE=LIRE_FONCTION(UNITE=21,
                      NOM_PARA='FREQ',
                      PROL_GAUCHE='CONSTANT',
                      PROL_DROITE='CONSTANT',);

SRO=DEFI_NAPPE(NOM_PARA='AMOR',
               PARA=0.01,
               FONCTION=SPECTRE,);

###############################################################
# -------------------------------------------------------------
# ANALYSE SPECTRALE AVEC COMBINAISON SRSS
# -------------------------------------------------------------                      

ANA_A1=COMB_SISM_MODAL(MODE_MECA=MODECA,
                       AMOR_REDUIT=0.01,
                       MONO_APPUI='OUI',
                       EXCIT=_F(AXE=(1.,0.,0.),
                                SPEC_OSCI=SRO,
                                ECHELLE=386.4,),
                       COMB_MODE=_F(TYPE='SRSS',),
                       OPTION=('REAC_NODA',),);

# -------------------------------------------------------------
# VALIDATION DES REACTIONS NODALES
# -------------------------------------------------------------

TEST_RESU(RESU=(_F(NUME_ORDRE=1,
                   GROUP_NO='N1B',
                   REFERENCE='SOURCE_EXTERNE',
                   RESULTAT=ANA_A1,
                   NOM_CHAM='REAC_NODA',
                   NOM_CMP='DX',
                   VALE_CALC=3.183527895,
                   VALE_REFE=3.1284000000000001,
                   PRECISION=0.02,),
                _F(NUME_ORDRE=1,
                   GROUP_NO='N1B',
                   RESULTAT=ANA_A1,
                   NOM_CHAM='REAC_NODA',
                   NOM_CMP='DX',
                   VALE_CALC=3.1835278945079,
                   
                   ),
                _F(NUME_ORDRE=1,
                   GROUP_NO='N1B',
                   REFERENCE='SOURCE_EXTERNE',
                   RESULTAT=ANA_A1,
                   NOM_CHAM='REAC_NODA',
                   NOM_CMP='DY',
                   VALE_CALC=5.511257399,
                   VALE_REFE=5.4405000000000001,
                   PRECISION=0.02,),
                _F(NUME_ORDRE=1,
                   GROUP_NO='N1B',
                   RESULTAT=ANA_A1,
                   NOM_CHAM='REAC_NODA',
                   NOM_CMP='DY',
                   VALE_CALC=5.5112573985216002,
                   
                   ),
                _F(NUME_ORDRE=1,
                   GROUP_NO='N1B',
                   REFERENCE='SOURCE_EXTERNE',
                   RESULTAT=ANA_A1,
                   NOM_CHAM='REAC_NODA',
                   NOM_CMP='DZ',
                   VALE_CALC=7.453244548,
                   VALE_REFE=7.4786999999999999,
                   PRECISION=1.E-2,),
                _F(NUME_ORDRE=1,
                   GROUP_NO='N1B',
                   RESULTAT=ANA_A1,
                   NOM_CHAM='REAC_NODA',
                   NOM_CMP='DZ',
                   VALE_CALC=7.4532445475516003,
                   
                   ),
                _F(NUME_ORDRE=1,
                   GROUP_NO='N1B',
                   REFERENCE='SOURCE_EXTERNE',
                   RESULTAT=ANA_A1,
                   NOM_CHAM='REAC_NODA',
                   NOM_CMP='DRX',
                   VALE_CALC=274.080684609,
                   VALE_REFE=275.37509999999997,
                   PRECISION=1.E-2,),
                _F(NUME_ORDRE=1,
                   GROUP_NO='N1B',
                   RESULTAT=ANA_A1,
                   NOM_CHAM='REAC_NODA',
                   NOM_CMP='DRX',
                   VALE_CALC=274.08068460906998,
                   
                   ),
                _F(NUME_ORDRE=1,
                   GROUP_NO='N1B',
                   REFERENCE='SOURCE_EXTERNE',
                   RESULTAT=ANA_A1,
                   NOM_CHAM='REAC_NODA',
                   NOM_CMP='DRY',
                   VALE_CALC=689.284931180,
                   VALE_REFE=690.80610000000001,
                   PRECISION=1.E-2,),
                _F(NUME_ORDRE=1,
                   GROUP_NO='N1B',
                   RESULTAT=ANA_A1,
                   NOM_CHAM='REAC_NODA',
                   NOM_CMP='DRY',
                   VALE_CALC=689.28493118033998,
                   
                   ),
                _F(NUME_ORDRE=1,
                   GROUP_NO='N1B',
                   REFERENCE='SOURCE_EXTERNE',
                   RESULTAT=ANA_A1,
                   NOM_CHAM='REAC_NODA',
                   NOM_CMP='DRZ',
                   VALE_CALC=211.534302178,
                   VALE_REFE=209.32599999999999,
                   PRECISION=0.02,),
                _F(NUME_ORDRE=1,
                   GROUP_NO='N1B',
                   RESULTAT=ANA_A1,
                   NOM_CHAM='REAC_NODA',
                   NOM_CMP='DRZ',
                   VALE_CALC=211.53430217767001,
                   
                   ),
                _F(NUME_ORDRE=1,
                   GROUP_NO='N4B',
                   REFERENCE='SOURCE_EXTERNE',
                   RESULTAT=ANA_A1,
                   NOM_CHAM='REAC_NODA',
                   NOM_CMP='DX',
                   VALE_CALC=24.034274477,
                   VALE_REFE=24.269199999999998,
                   PRECISION=1.E-2,),
                _F(NUME_ORDRE=1,
                   GROUP_NO='N4B',
                   RESULTAT=ANA_A1,
                   NOM_CHAM='REAC_NODA',
                   NOM_CMP='DX',
                   VALE_CALC=24.034274477429999,
                   
                   ),
                _F(NUME_ORDRE=1,
                   GROUP_NO='N4B',
                   REFERENCE='SOURCE_EXTERNE',
                   RESULTAT=ANA_A1,
                   NOM_CHAM='REAC_NODA',
                   NOM_CMP='DZ',
                   VALE_CALC=74.405779496,
                   VALE_REFE=75.180800000000005,
                   PRECISION=0.02,),
                _F(NUME_ORDRE=1,
                   GROUP_NO='N4B',
                   RESULTAT=ANA_A1,
                   NOM_CHAM='REAC_NODA',
                   NOM_CMP='DZ',
                   VALE_CALC=74.405779495705005,
                   
                   ),
                _F(NUME_ORDRE=1,
                   GROUP_NO='N7B',
                   REFERENCE='SOURCE_EXTERNE',
                   RESULTAT=ANA_A1,
                   NOM_CHAM='REAC_NODA',
                   NOM_CMP='DY',
                   VALE_CALC=16.127886484,
                   VALE_REFE=15.5344,
                   PRECISION=0.040000000000000001,),
                _F(NUME_ORDRE=1,
                   GROUP_NO='N7B',
                   RESULTAT=ANA_A1,
                   NOM_CHAM='REAC_NODA',
                   NOM_CMP='DY',
                   VALE_CALC=16.12788648355,
                   
                   ),
                _F(NUME_ORDRE=1,
                   GROUP_NO='N11B',
                   REFERENCE='SOURCE_EXTERNE',
                   RESULTAT=ANA_A1,
                   NOM_CHAM='REAC_NODA',
                   NOM_CMP='DY',
                   VALE_CALC=19.695311072,
                   VALE_REFE=19.609999999999999,
                   PRECISION=1.E-2,),
                _F(NUME_ORDRE=1,
                   GROUP_NO='N11B',
                   RESULTAT=ANA_A1,
                   NOM_CHAM='REAC_NODA',
                   NOM_CMP='DY',
                   VALE_CALC=19.695311071671,
                   
                   ),
                _F(NUME_ORDRE=1,
                   GROUP_NO='N11B',
                   REFERENCE='SOURCE_EXTERNE',
                   RESULTAT=ANA_A1,
                   NOM_CHAM='REAC_NODA',
                   NOM_CMP='DZ',
                   VALE_CALC=79.225580770,
                   VALE_REFE=79.988600000000005,
                   PRECISION=1.E-2,),
                _F(NUME_ORDRE=1,
                   GROUP_NO='N11B',
                   RESULTAT=ANA_A1,
                   NOM_CHAM='REAC_NODA',
                   NOM_CMP='DZ',
                   VALE_CALC=79.225580769730001,
                   
                   ),
                _F(NUME_ORDRE=1,
                   GROUP_NO='N15B',
                   REFERENCE='SOURCE_EXTERNE',
                   RESULTAT=ANA_A1,
                   NOM_CHAM='REAC_NODA',
                   NOM_CMP='DX',
                   VALE_CALC=429.624705900,
                   VALE_REFE=437.85020000000003,
                   PRECISION=0.02,),
                _F(NUME_ORDRE=1,
                   GROUP_NO='N15B',
                   RESULTAT=ANA_A1,
                   NOM_CHAM='REAC_NODA',
                   NOM_CMP='DX',
                   VALE_CALC=429.62470589981001,
                   
                   ),
                _F(NUME_ORDRE=1,
                   GROUP_NO='N17B',
                   REFERENCE='SOURCE_EXTERNE',
                   RESULTAT=ANA_A1,
                   NOM_CHAM='REAC_NODA',
                   NOM_CMP='DY',
                   VALE_CALC=48.506414827,
                   VALE_REFE=48.819599999999994,
                   PRECISION=1.E-2,),
                _F(NUME_ORDRE=1,
                   GROUP_NO='N17B',
                   RESULTAT=ANA_A1,
                   NOM_CHAM='REAC_NODA',
                   NOM_CMP='DY',
                   VALE_CALC=48.506414827415,
                   
                   ),
                _F(NUME_ORDRE=1,
                   GROUP_NO='N17B',
                   REFERENCE='SOURCE_EXTERNE',
                   RESULTAT=ANA_A1,
                   NOM_CHAM='REAC_NODA',
                   NOM_CMP='DZ',
                   VALE_CALC=78.213710594,
                   VALE_REFE=79.1083,
                   PRECISION=0.02,),
                _F(NUME_ORDRE=1,
                   GROUP_NO='N17B',
                   RESULTAT=ANA_A1,
                   NOM_CHAM='REAC_NODA',
                   NOM_CMP='DZ',
                   VALE_CALC=78.213710593502,
                   
                   ),
                _F(NUME_ORDRE=1,
                   GROUP_NO='N36B',
                   REFERENCE='SOURCE_EXTERNE',
                   RESULTAT=ANA_A1,
                   NOM_CHAM='REAC_NODA',
                   NOM_CMP='DY',
                   VALE_CALC=89.275161380,
                   VALE_REFE=90.497699999999995,
                   PRECISION=0.02,),
                _F(NUME_ORDRE=1,
                   GROUP_NO='N36B',
                   RESULTAT=ANA_A1,
                   NOM_CHAM='REAC_NODA',
                   NOM_CMP='DY',
                   VALE_CALC=89.275161380138002,
                   
                   ),
                _F(NUME_ORDRE=1,
                   GROUP_NO='N36B',
                   REFERENCE='SOURCE_EXTERNE',
                   RESULTAT=ANA_A1,
                   NOM_CHAM='REAC_NODA',
                   NOM_CMP='DZ',
                   VALE_CALC=76.301763011,
                   VALE_REFE=78.395499999999998,
                   PRECISION=0.029999999999999999,),
                _F(NUME_ORDRE=1,
                   GROUP_NO='N36B',
                   RESULTAT=ANA_A1,
                   NOM_CHAM='REAC_NODA',
                   NOM_CMP='DZ',
                   VALE_CALC=76.301763010689996,
                   
                   ),
                _F(NUME_ORDRE=1,
                   GROUP_NO='N38B',
                   REFERENCE='SOURCE_EXTERNE',
                   RESULTAT=ANA_A1,
                   NOM_CHAM='REAC_NODA',
                   NOM_CMP='DX',
                   VALE_CALC=115.341487174,
                   VALE_REFE=119.47179999999999,
                   PRECISION=0.040000000000000001,),
                _F(NUME_ORDRE=1,
                   GROUP_NO='N38B',
                   RESULTAT=ANA_A1,
                   NOM_CHAM='REAC_NODA',
                   NOM_CMP='DX',
                   VALE_CALC=115.34148717356,
                   
                   ),
                _F(NUME_ORDRE=1,
                   GROUP_NO='N38B',
                   REFERENCE='SOURCE_EXTERNE',
                   RESULTAT=ANA_A1,
                   NOM_CHAM='REAC_NODA',
                   NOM_CMP='DY',
                   VALE_CALC=53.109247200,
                   VALE_REFE=52.775999999999996,
                   PRECISION=1.E-2,),
                _F(NUME_ORDRE=1,
                   GROUP_NO='N38B',
                   RESULTAT=ANA_A1,
                   NOM_CHAM='REAC_NODA',
                   NOM_CMP='DY',
                   VALE_CALC=53.109247200336,
                   
                   ),
                _F(NUME_ORDRE=1,
                   GROUP_NO='N38B',
                   REFERENCE='SOURCE_EXTERNE',
                   RESULTAT=ANA_A1,
                   NOM_CHAM='REAC_NODA',
                   NOM_CMP='DZ',
                   VALE_CALC=37.038376428,
                   VALE_REFE=38.384999999999998,
                   PRECISION=0.040000000000000001,),
                _F(NUME_ORDRE=1,
                   GROUP_NO='N38B',
                   RESULTAT=ANA_A1,
                   NOM_CHAM='REAC_NODA',
                   NOM_CMP='DZ',
                   VALE_CALC=37.038376428319999,
                   
                   ),
                _F(NUME_ORDRE=1,
                   GROUP_NO='N38B',
                   REFERENCE='SOURCE_EXTERNE',
                   RESULTAT=ANA_A1,
                   NOM_CHAM='REAC_NODA',
                   NOM_CMP='DRX',
                   VALE_CALC= 1.39043442E+03,
                   VALE_REFE=1404.6690999999998,
                   PRECISION=0.02,),
                _F(NUME_ORDRE=1,
                   GROUP_NO='N38B',
                   RESULTAT=ANA_A1,
                   NOM_CHAM='REAC_NODA',
                   NOM_CMP='DRX',
                   VALE_CALC=1390.4344202258001,
                   
                   ),
                _F(NUME_ORDRE=1,
                   GROUP_NO='N38B',
                   REFERENCE='SOURCE_EXTERNE',
                   RESULTAT=ANA_A1,
                   NOM_CHAM='REAC_NODA',
                   NOM_CMP='DRY',
                   VALE_CALC= 2.49000781E+03,
                   VALE_REFE=2588.1900000000001,
                   PRECISION=0.040000000000000001,),
                _F(NUME_ORDRE=1,
                   GROUP_NO='N38B',
                   RESULTAT=ANA_A1,
                   NOM_CHAM='REAC_NODA',
                   NOM_CMP='DRY',
                   VALE_CALC=2490.0078140727001,
                   
                   ),
                _F(NUME_ORDRE=1,
                   GROUP_NO='N38B',
                   REFERENCE='SOURCE_EXTERNE',
                   RESULTAT=ANA_A1,
                   NOM_CHAM='REAC_NODA',
                   NOM_CMP='DRZ',
                   VALE_CALC= 3.74080117E+03,
                   VALE_REFE=3710.1820000000002,
                   PRECISION=1.E-2,),
                _F(NUME_ORDRE=1,
                   GROUP_NO='N38B',
                   RESULTAT=ANA_A1,
                   NOM_CHAM='REAC_NODA',
                   NOM_CMP='DRZ',
                   VALE_CALC=3740.8011653117001,
                   
                   ),
                _F(NUME_ORDRE=1,
                   GROUP_NO='N23B',
                   REFERENCE='SOURCE_EXTERNE',
                   RESULTAT=ANA_A1,
                   NOM_CHAM='REAC_NODA',
                   NOM_CMP='DX',
                   VALE_CALC=212.143015781,
                   VALE_REFE=214.93350000000004,
                   PRECISION=0.02,),
                _F(NUME_ORDRE=1,
                   GROUP_NO='N23B',
                   RESULTAT=ANA_A1,
                   NOM_CHAM='REAC_NODA',
                   NOM_CMP='DX',
                   VALE_CALC=212.14301578134001,
                   
                   ),
                _F(NUME_ORDRE=1,
                   GROUP_NO='N23B',
                   REFERENCE='SOURCE_EXTERNE',
                   RESULTAT=ANA_A1,
                   NOM_CHAM='REAC_NODA',
                   NOM_CMP='DY',
                   VALE_CALC=102.587295889,
                   VALE_REFE=105.28,
                   PRECISION=0.029999999999999999,),
                _F(NUME_ORDRE=1,
                   GROUP_NO='N23B',
                   RESULTAT=ANA_A1,
                   NOM_CHAM='REAC_NODA',
                   NOM_CMP='DY',
                   VALE_CALC=102.58729588855,
                   
                   ),
                _F(NUME_ORDRE=1,
                   GROUP_NO='N31B',
                   REFERENCE='SOURCE_EXTERNE',
                   RESULTAT=ANA_A1,
                   NOM_CHAM='REAC_NODA',
                   NOM_CMP='DX',
                   VALE_CALC=9.808450818,
                   VALE_REFE=10.1355,
                   PRECISION=0.040000000000000001,),
                _F(NUME_ORDRE=1,
                   GROUP_NO='N31B',
                   RESULTAT=ANA_A1,
                   NOM_CHAM='REAC_NODA',
                   NOM_CMP='DX',
                   VALE_CALC=9.8084508183897992,
                   
                   ),
                _F(NUME_ORDRE=1,
                   GROUP_NO='N31B',
                   REFERENCE='SOURCE_EXTERNE',
                   RESULTAT=ANA_A1,
                   NOM_CHAM='REAC_NODA',
                   NOM_CMP='DY',
                   VALE_CALC=24.548802387,
                   VALE_REFE=24.831,
                   PRECISION=0.02,),
                _F(NUME_ORDRE=1,
                   GROUP_NO='N31B',
                   RESULTAT=ANA_A1,
                   NOM_CHAM='REAC_NODA',
                   NOM_CMP='DY',
                   VALE_CALC=24.548802387022,
                   
                   ),
                _F(NUME_ORDRE=1,
                   GROUP_NO='N31B',
                   REFERENCE='SOURCE_EXTERNE',
                   RESULTAT=ANA_A1,
                   NOM_CHAM='REAC_NODA',
                   NOM_CMP='DZ',
                   VALE_CALC=30.727122531,
                   VALE_REFE=31.620000000000001,
                   PRECISION=0.029999999999999999,),
                _F(NUME_ORDRE=1,
                   GROUP_NO='N31B',
                   RESULTAT=ANA_A1,
                   NOM_CHAM='REAC_NODA',
                   NOM_CMP='DZ',
                   VALE_CALC=30.727122530864001,
                   
                   ),
                _F(NUME_ORDRE=1,
                   GROUP_NO='N31B',
                   REFERENCE='SOURCE_EXTERNE',
                   RESULTAT=ANA_A1,
                   NOM_CHAM='REAC_NODA',
                   NOM_CMP='DRX',
                   VALE_CALC= 2.35447422E+03,
                   VALE_REFE=2436.0830000000001,
                   PRECISION=0.040000000000000001,),
                _F(NUME_ORDRE=1,
                   GROUP_NO='N31B',
                   RESULTAT=ANA_A1,
                   NOM_CHAM='REAC_NODA',
                   NOM_CMP='DRX',
                   VALE_CALC=2354.474221256,
                   
                   ),
                _F(NUME_ORDRE=1,
                   GROUP_NO='N31B',
                   REFERENCE='SOURCE_EXTERNE',
                   RESULTAT=ANA_A1,
                   NOM_CHAM='REAC_NODA',
                   NOM_CMP='DRY',
                   VALE_CALC=273.541715229,
                   VALE_REFE=282.8005,
                   PRECISION=0.040000000000000001,),
                _F(NUME_ORDRE=1,
                   GROUP_NO='N31B',
                   RESULTAT=ANA_A1,
                   NOM_CHAM='REAC_NODA',
                   NOM_CMP='DRY',
                   VALE_CALC=273.54171522858002,
                   
                   ),
                _F(NUME_ORDRE=1,
                   GROUP_NO='N31B',
                   REFERENCE='SOURCE_EXTERNE',
                   RESULTAT=ANA_A1,
                   NOM_CHAM='REAC_NODA',
                   NOM_CMP='DRZ',
                   VALE_CALC=769.694995339,
                   VALE_REFE=796.48000000000002,
                   PRECISION=0.040000000000000001,),
                _F(NUME_ORDRE=1,
                   GROUP_NO='N31B',
                   RESULTAT=ANA_A1,
                   NOM_CHAM='REAC_NODA',
                   NOM_CMP='DRZ',
                   VALE_CALC=769.69499533777002,
                   
                   ),
                ),
          )

###############################################################
# -------------------------------------------------------------
# ANALYSE SPECTRALE AVEC COMBINAISON CQC
# -------------------------------------------------------------        

ANA_A2=COMB_SISM_MODAL(MODE_MECA=MODECA,
                       AMOR_REDUIT=0.01,
                       MONO_APPUI='OUI',
                       EXCIT=_F(AXE=(1.,0.,0.),
                                SPEC_OSCI=SRO,
                                ECHELLE=386.4,),
                       COMB_MODE=_F(TYPE='CQC',),
                       OPTION=('REAC_NODA',),);


# -------------------------------------------------------------
# VALIDATION DES REACTIONS NODALES
# -------------------------------------------------------------

TEST_RESU(RESU=(_F(NUME_ORDRE=1,
                   GROUP_NO='N1B',
                   REFERENCE='SOURCE_EXTERNE',
                   RESULTAT=ANA_A2,
                   NOM_CHAM='REAC_NODA',
                   NOM_CMP='DX',
                   VALE_CALC=3.153400834,
                   VALE_REFE=3.1284000000000001,
                   PRECISION=1.E-2,),
                _F(NUME_ORDRE=1,
                   GROUP_NO='N1B',
                   RESULTAT=ANA_A2,
                   NOM_CHAM='REAC_NODA',
                   NOM_CMP='DX',
                   VALE_CALC=3.1534008338449002,
                   
                   ),
                _F(NUME_ORDRE=1,
                   GROUP_NO='N1B',
                   REFERENCE='SOURCE_EXTERNE',
                   RESULTAT=ANA_A2,
                   NOM_CHAM='REAC_NODA',
                   NOM_CMP='DY',
                   VALE_CALC=5.147309475,
                   VALE_REFE=5.0543999999999993,
                   PRECISION=0.02,),
                _F(NUME_ORDRE=1,
                   GROUP_NO='N1B',
                   RESULTAT=ANA_A2,
                   NOM_CHAM='REAC_NODA',
                   NOM_CMP='DY',
                   VALE_CALC=5.1473094752666997,
                   
                   ),
                _F(NUME_ORDRE=1,
                   GROUP_NO='N1B',
                   REFERENCE='SOURCE_EXTERNE',
                   RESULTAT=ANA_A2,
                   NOM_CHAM='REAC_NODA',
                   NOM_CMP='DZ',
                   VALE_CALC=6.702443917,
                   VALE_REFE=6.7590999999999992,
                   PRECISION=1.E-2,),
                _F(NUME_ORDRE=1,
                   GROUP_NO='N1B',
                   RESULTAT=ANA_A2,
                   NOM_CHAM='REAC_NODA',
                   NOM_CMP='DZ',
                   VALE_CALC=6.7024439166106999,
                   
                   ),
                _F(NUME_ORDRE=1,
                   GROUP_NO='N1B',
                   REFERENCE='SOURCE_EXTERNE',
                   RESULTAT=ANA_A2,
                   NOM_CHAM='REAC_NODA',
                   NOM_CMP='DRX',
                   VALE_CALC=245.402825577,
                   VALE_REFE=246.84329999999997,
                   PRECISION=1.E-2,),
                _F(NUME_ORDRE=1,
                   GROUP_NO='N1B',
                   RESULTAT=ANA_A2,
                   NOM_CHAM='REAC_NODA',
                   NOM_CMP='DRX',
                   VALE_CALC=245.40282557723,
                   
                   ),
                _F(NUME_ORDRE=1,
                   GROUP_NO='N1B',
                   REFERENCE='SOURCE_EXTERNE',
                   RESULTAT=ANA_A2,
                   NOM_CHAM='REAC_NODA',
                   NOM_CMP='DRY',
                   VALE_CALC=683.573931022,
                   VALE_REFE=682.86579999999992,
                   PRECISION=1.E-2,),
                _F(NUME_ORDRE=1,
                   GROUP_NO='N1B',
                   RESULTAT=ANA_A2,
                   NOM_CHAM='REAC_NODA',
                   NOM_CMP='DRY',
                   VALE_CALC=683.57393102173,
                   
                   ),
                _F(NUME_ORDRE=1,
                   GROUP_NO='N1B',
                   REFERENCE='SOURCE_EXTERNE',
                   RESULTAT=ANA_A2,
                   NOM_CHAM='REAC_NODA',
                   NOM_CMP='DRZ',
                   VALE_CALC=204.846617418,
                   VALE_REFE=202.852,
                   PRECISION=1.E-2,),
                _F(NUME_ORDRE=1,
                   GROUP_NO='N1B',
                   RESULTAT=ANA_A2,
                   NOM_CHAM='REAC_NODA',
                   NOM_CMP='DRZ',
                   VALE_CALC=204.84661741828,
                   
                   ),
                _F(NUME_ORDRE=1,
                   GROUP_NO='N4B',
                   REFERENCE='SOURCE_EXTERNE',
                   RESULTAT=ANA_A2,
                   NOM_CHAM='REAC_NODA',
                   NOM_CMP='DX',
                   VALE_CALC=23.670693905,
                   VALE_REFE=23.976799999999997,
                   PRECISION=0.02,),
                _F(NUME_ORDRE=1,
                   GROUP_NO='N4B',
                   RESULTAT=ANA_A2,
                   NOM_CHAM='REAC_NODA',
                   NOM_CMP='DX',
                   VALE_CALC=23.670693905336002,
                   
                   ),
                _F(NUME_ORDRE=1,
                   GROUP_NO='N4B',
                   REFERENCE='SOURCE_EXTERNE',
                   RESULTAT=ANA_A2,
                   NOM_CHAM='REAC_NODA',
                   NOM_CMP='DZ',
                   VALE_CALC=66.952253502,
                   VALE_REFE=67.718000000000004,
                   PRECISION=0.02,),
                _F(NUME_ORDRE=1,
                   GROUP_NO='N4B',
                   RESULTAT=ANA_A2,
                   NOM_CHAM='REAC_NODA',
                   NOM_CMP='DZ',
                   VALE_CALC=66.952253501759003,
                   
                   ),
                _F(NUME_ORDRE=1,
                   GROUP_NO='N7B',
                   REFERENCE='SOURCE_EXTERNE',
                   RESULTAT=ANA_A2,
                   NOM_CHAM='REAC_NODA',
                   NOM_CMP='DY',
                   VALE_CALC=15.919398887,
                   VALE_REFE=15.257,
                   PRECISION=0.050000000000000003,),
                _F(NUME_ORDRE=1,
                   GROUP_NO='N7B',
                   RESULTAT=ANA_A2,
                   NOM_CHAM='REAC_NODA',
                   NOM_CMP='DY',
                   VALE_CALC=15.919398887175999,
                   
                   ),
                _F(NUME_ORDRE=1,
                   GROUP_NO='N11B',
                   REFERENCE='SOURCE_EXTERNE',
                   RESULTAT=ANA_A2,
                   NOM_CHAM='REAC_NODA',
                   NOM_CMP='DY',
                   VALE_CALC=19.188338740,
                   VALE_REFE=19.079999999999998,
                   PRECISION=1.E-2,),
                _F(NUME_ORDRE=1,
                   GROUP_NO='N11B',
                   RESULTAT=ANA_A2,
                   NOM_CHAM='REAC_NODA',
                   NOM_CMP='DY',
                   VALE_CALC=19.188338739736999,
                   
                   ),
                _F(NUME_ORDRE=1,
                   GROUP_NO='N11B',
                   REFERENCE='SOURCE_EXTERNE',
                   RESULTAT=ANA_A2,
                   NOM_CHAM='REAC_NODA',
                   NOM_CMP='DZ',
                   VALE_CALC=76.391460103,
                   VALE_REFE=77.198300000000003,
                   PRECISION=0.02,),
                _F(NUME_ORDRE=1,
                   GROUP_NO='N11B',
                   RESULTAT=ANA_A2,
                   NOM_CHAM='REAC_NODA',
                   NOM_CMP='DZ',
                   VALE_CALC=76.391460103022993,
                   
                   ),
                _F(NUME_ORDRE=1,
                   GROUP_NO='N15B',
                   REFERENCE='SOURCE_EXTERNE',
                   RESULTAT=ANA_A2,
                   NOM_CHAM='REAC_NODA',
                   NOM_CMP='DX',
                   VALE_CALC=434.452817406,
                   VALE_REFE=437.85020000000003,
                   PRECISION=1.E-2,),
                _F(NUME_ORDRE=1,
                   GROUP_NO='N15B',
                   RESULTAT=ANA_A2,
                   NOM_CHAM='REAC_NODA',
                   NOM_CMP='DX',
                   VALE_CALC=434.45281740616002,
                   
                   ),
                _F(NUME_ORDRE=1,
                   GROUP_NO='N17B',
                   REFERENCE='SOURCE_EXTERNE',
                   RESULTAT=ANA_A2,
                   NOM_CHAM='REAC_NODA',
                   NOM_CMP='DY',
                   VALE_CALC=47.721230366,
                   VALE_REFE=48.052799999999998,
                   PRECISION=1.E-2,),
                _F(NUME_ORDRE=1,
                   GROUP_NO='N17B',
                   RESULTAT=ANA_A2,
                   NOM_CHAM='REAC_NODA',
                   NOM_CMP='DY',
                   VALE_CALC=47.721230365936997,
                   
                   ),
                _F(NUME_ORDRE=1,
                   GROUP_NO='N17B',
                   REFERENCE='SOURCE_EXTERNE',
                   RESULTAT=ANA_A2,
                   NOM_CHAM='REAC_NODA',
                   NOM_CMP='DZ',
                   VALE_CALC=78.609550972,
                   VALE_REFE=79.731200000000001,
                   PRECISION=0.02,),
                _F(NUME_ORDRE=1,
                   GROUP_NO='N17B',
                   RESULTAT=ANA_A2,
                   NOM_CHAM='REAC_NODA',
                   NOM_CMP='DZ',
                   VALE_CALC=78.609550971486996,
                   
                   ),
                _F(NUME_ORDRE=1,
                   GROUP_NO='N36B',
                   REFERENCE='SOURCE_EXTERNE',
                   RESULTAT=ANA_A2,
                   NOM_CHAM='REAC_NODA',
                   NOM_CMP='DY',
                   VALE_CALC=88.883501210,
                   VALE_REFE=90.028800000000004,
                   PRECISION=0.02,),
                _F(NUME_ORDRE=1,
                   GROUP_NO='N36B',
                   RESULTAT=ANA_A2,
                   NOM_CHAM='REAC_NODA',
                   NOM_CMP='DY',
                   VALE_CALC=88.883501209898,
                   
                   ),
                _F(NUME_ORDRE=1,
                   GROUP_NO='N36B',
                   REFERENCE='SOURCE_EXTERNE',
                   RESULTAT=ANA_A2,
                   NOM_CHAM='REAC_NODA',
                   NOM_CMP='DZ',
                   VALE_CALC=76.787188154,
                   VALE_REFE=79.077199999999991,
                   PRECISION=0.029999999999999999,),
                _F(NUME_ORDRE=1,
                   GROUP_NO='N36B',
                   RESULTAT=ANA_A2,
                   NOM_CHAM='REAC_NODA',
                   NOM_CMP='DZ',
                   VALE_CALC=76.787188153618999,
                   
                   ),
                _F(NUME_ORDRE=1,
                   GROUP_NO='N38B',
                   REFERENCE='SOURCE_EXTERNE',
                   RESULTAT=ANA_A2,
                   NOM_CHAM='REAC_NODA',
                   NOM_CMP='DX',
                   VALE_CALC=120.062944221,
                   VALE_REFE=121.91,
                   PRECISION=0.02,),
                _F(NUME_ORDRE=1,
                   GROUP_NO='N38B',
                   RESULTAT=ANA_A2,
                   NOM_CHAM='REAC_NODA',
                   NOM_CMP='DX',
                   VALE_CALC=120.06294422111,
                   
                   ),
                _F(NUME_ORDRE=1,
                   GROUP_NO='N38B',
                   REFERENCE='SOURCE_EXTERNE',
                   RESULTAT=ANA_A2,
                   NOM_CHAM='REAC_NODA',
                   NOM_CMP='DY',
                   VALE_CALC=53.190768418,
                   VALE_REFE=52.775999999999996,
                   PRECISION=1.E-2,),
                _F(NUME_ORDRE=1,
                   GROUP_NO='N38B',
                   RESULTAT=ANA_A2,
                   NOM_CHAM='REAC_NODA',
                   NOM_CMP='DY',
                   VALE_CALC=53.190768417648002,
                   
                   ),
                _F(NUME_ORDRE=1,
                   GROUP_NO='N38B',
                   REFERENCE='SOURCE_EXTERNE',
                   RESULTAT=ANA_A2,
                   NOM_CHAM='REAC_NODA',
                   NOM_CMP='DZ',
                   VALE_CALC=38.614074504,
                   VALE_REFE=40.090999999999994,
                   PRECISION=0.040000000000000001,),
                _F(NUME_ORDRE=1,
                   GROUP_NO='N38B',
                   RESULTAT=ANA_A2,
                   NOM_CHAM='REAC_NODA',
                   NOM_CMP='DZ',
                   VALE_CALC=38.614074504001003,
                   
                   ),
                _F(NUME_ORDRE=1,
                   GROUP_NO='N38B',
                   REFERENCE='SOURCE_EXTERNE',
                   RESULTAT=ANA_A2,
                   NOM_CHAM='REAC_NODA',
                   NOM_CMP='DRX',
                   VALE_CALC= 1.37937777E+03,
                   VALE_REFE=1397.5387999999998,
                   PRECISION=0.02,),
                _F(NUME_ORDRE=1,
                   GROUP_NO='N38B',
                   RESULTAT=ANA_A2,
                   NOM_CHAM='REAC_NODA',
                   NOM_CMP='DRX',
                   VALE_CALC=1379.3777739356001,
                   
                   ),
                _F(NUME_ORDRE=1,
                   GROUP_NO='N38B',
                   REFERENCE='SOURCE_EXTERNE',
                   RESULTAT=ANA_A2,
                   NOM_CHAM='REAC_NODA',
                   NOM_CMP='DRY',
                   VALE_CALC= 2.59284296E+03,
                   VALE_REFE=2699.5099999999998,
                   PRECISION=0.040000000000000001,),
                _F(NUME_ORDRE=1,
                   GROUP_NO='N38B',
                   RESULTAT=ANA_A2,
                   NOM_CHAM='REAC_NODA',
                   NOM_CMP='DRY',
                   VALE_CALC=2592.8429596220999,
                   
                   ),
                _F(NUME_ORDRE=1,
                   GROUP_NO='N38B',
                   REFERENCE='SOURCE_EXTERNE',
                   RESULTAT=ANA_A2,
                   NOM_CHAM='REAC_NODA',
                   NOM_CMP='DRZ',
                   VALE_CALC= 3.74593241E+03,
                   VALE_REFE=3710.1820000000002,
                   PRECISION=1.E-2,),
                _F(NUME_ORDRE=1,
                   GROUP_NO='N38B',
                   RESULTAT=ANA_A2,
                   NOM_CHAM='REAC_NODA',
                   NOM_CMP='DRZ',
                   VALE_CALC=3745.9324134455001,
                   
                   ),
                _F(NUME_ORDRE=1,
                   GROUP_NO='N23B',
                   REFERENCE='SOURCE_EXTERNE',
                   RESULTAT=ANA_A2,
                   NOM_CHAM='REAC_NODA',
                   NOM_CMP='DX',
                   VALE_CALC=216.836087061,
                   VALE_REFE=219.7098,
                   PRECISION=0.02,),
                _F(NUME_ORDRE=1,
                   GROUP_NO='N23B',
                   RESULTAT=ANA_A2,
                   NOM_CHAM='REAC_NODA',
                   NOM_CMP='DX',
                   VALE_CALC=216.83608706103999,
                   
                   ),
                _F(NUME_ORDRE=1,
                   GROUP_NO='N23B',
                   REFERENCE='SOURCE_EXTERNE',
                   RESULTAT=ANA_A2,
                   NOM_CHAM='REAC_NODA',
                   NOM_CMP='DY',
                   VALE_CALC=101.368778296,
                   VALE_REFE=104.16000000000001,
                   PRECISION=0.029999999999999999,),
                _F(NUME_ORDRE=1,
                   GROUP_NO='N23B',
                   RESULTAT=ANA_A2,
                   NOM_CHAM='REAC_NODA',
                   NOM_CMP='DY',
                   VALE_CALC=101.3687782964,
                   
                   ),
                _F(NUME_ORDRE=1,
                   GROUP_NO='N31B',
                   REFERENCE='SOURCE_EXTERNE',
                   RESULTAT=ANA_A2,
                   NOM_CHAM='REAC_NODA',
                   NOM_CMP='DX',
                   VALE_CALC=9.917316377,
                   VALE_REFE=10.205400000000001,
                   PRECISION=0.029999999999999999,),
                _F(NUME_ORDRE=1,
                   GROUP_NO='N31B',
                   RESULTAT=ANA_A2,
                   NOM_CHAM='REAC_NODA',
                   NOM_CMP='DX',
                   VALE_CALC=9.9173163767857009,
                   
                   ),
                _F(NUME_ORDRE=1,
                   GROUP_NO='N31B',
                   REFERENCE='SOURCE_EXTERNE',
                   RESULTAT=ANA_A2,
                   NOM_CHAM='REAC_NODA',
                   NOM_CMP='DY',
                   VALE_CALC=24.767682469,
                   VALE_REFE=24.970499999999998,
                   PRECISION=1.E-2,),
                _F(NUME_ORDRE=1,
                   GROUP_NO='N31B',
                   RESULTAT=ANA_A2,
                   NOM_CHAM='REAC_NODA',
                   NOM_CMP='DY',
                   VALE_CALC=24.767682468705999,
                   
                   ),
                _F(NUME_ORDRE=1,
                   GROUP_NO='N31B',
                   REFERENCE='SOURCE_EXTERNE',
                   RESULTAT=ANA_A2,
                   NOM_CHAM='REAC_NODA',
                   NOM_CMP='DZ',
                   VALE_CALC=29.938068074,
                   VALE_REFE=30.690000000000001,
                   PRECISION=0.029999999999999999,),
                _F(NUME_ORDRE=1,
                   GROUP_NO='N31B',
                   RESULTAT=ANA_A2,
                   NOM_CHAM='REAC_NODA',
                   NOM_CMP='DZ',
                   VALE_CALC=29.938068073572001,
                   
                   ),
                _F(NUME_ORDRE=1,
                   GROUP_NO='N31B',
                   REFERENCE='SOURCE_EXTERNE',
                   RESULTAT=ANA_A2,
                   NOM_CHAM='REAC_NODA',
                   NOM_CMP='DRX',
                   VALE_CALC= 2.27907018E+03,
                   VALE_REFE=2358.922,
                   PRECISION=0.040000000000000001,),
                _F(NUME_ORDRE=1,
                   GROUP_NO='N31B',
                   RESULTAT=ANA_A2,
                   NOM_CHAM='REAC_NODA',
                   NOM_CMP='DRX',
                   VALE_CALC=2279.0701823062,
                   
                   ),
                _F(NUME_ORDRE=1,
                   GROUP_NO='N31B',
                   REFERENCE='SOURCE_EXTERNE',
                   RESULTAT=ANA_A2,
                   NOM_CHAM='REAC_NODA',
                   NOM_CMP='DRY',
                   VALE_CALC=277.803090121,
                   VALE_REFE=287.98950000000002,
                   PRECISION=0.040000000000000001,),
                _F(NUME_ORDRE=1,
                   GROUP_NO='N31B',
                   RESULTAT=ANA_A2,
                   NOM_CHAM='REAC_NODA',
                   NOM_CMP='DRY',
                   VALE_CALC=277.80309012102998,
                   
                   ),
                _F(NUME_ORDRE=1,
                   GROUP_NO='N31B',
                   REFERENCE='SOURCE_EXTERNE',
                   RESULTAT=ANA_A2,
                   NOM_CHAM='REAC_NODA',
                   NOM_CMP='DRZ',
                   VALE_CALC=774.565237628,
                   VALE_REFE=802.56000000000006,
                   PRECISION=0.040000000000000001,),
                _F(NUME_ORDRE=1,
                   GROUP_NO='N31B',
                   RESULTAT=ANA_A2,
                   NOM_CHAM='REAC_NODA',
                   NOM_CMP='DRZ',
                   VALE_CALC=774.56523762767995,
                   
                   ),
                ),
          )

###############################################################
# -------------------------------------------------------------
# ANALYSE SPECTRALE AVEC LA METHODE DE GUPTA
# -------------------------------------------------------------        

ANA_A3=COMB_SISM_MODAL(MODE_MECA=MODECA,
                       AMOR_REDUIT=0.01,
                       MONO_APPUI='OUI',
                       EXCIT=_F(AXE=(1.,0.,0.),
                                SPEC_OSCI=SRO,
                                ECHELLE=386.4,),
                       COMB_MODE=_F(TYPE='GUPTA',
                                    FREQ_1=2.80,
                                    FREQ_2=11.90,),
                       OPTION=('REAC_NODA',),);


# -------------------------------------------------------------
# VALIDATION DES REACTIONS NODALES
# -------------------------------------------------------------

TEST_RESU(RESU=(_F(NUME_ORDRE=1,
                   GROUP_NO='N1B',
                   REFERENCE='SOURCE_EXTERNE',
                   RESULTAT=ANA_A3,
                   NOM_CHAM='REAC_NODA',
                   NOM_CMP='DX',
                   VALE_CALC=3.293736025,
                   VALE_REFE=3.2471999999999999,
                   PRECISION=0.02,),
                _F(NUME_ORDRE=1,
                   GROUP_NO='N1B',
                   RESULTAT=ANA_A3,
                   NOM_CHAM='REAC_NODA',
                   NOM_CMP='DX',
                   VALE_CALC=3.2937360249681,
                   
                   ),
                _F(NUME_ORDRE=1,
                   GROUP_NO='N1B',
                   REFERENCE='SOURCE_EXTERNE',
                   RESULTAT=ANA_A3,
                   NOM_CHAM='REAC_NODA',
                   NOM_CMP='DY',
                   VALE_CALC=3.608846039,
                   VALE_REFE=3.4046999999999996,
                   PRECISION=0.070000000000000007,),
                _F(NUME_ORDRE=1,
                   GROUP_NO='N1B',
                   RESULTAT=ANA_A3,
                   NOM_CHAM='REAC_NODA',
                   NOM_CMP='DY',
                   VALE_CALC=3.6088460390554999,
                   
                   ),
                _F(NUME_ORDRE=1,
                   GROUP_NO='N1B',
                   REFERENCE='SOURCE_EXTERNE',
                   RESULTAT=ANA_A3,
                   NOM_CHAM='REAC_NODA',
                   NOM_CMP='DZ',
                   VALE_CALC=2.619337700,
                   VALE_REFE=2.4671999999999996,
                   PRECISION=0.070000000000000007,),
                _F(NUME_ORDRE=1,
                   GROUP_NO='N1B',
                   RESULTAT=ANA_A3,
                   NOM_CHAM='REAC_NODA',
                   NOM_CMP='DZ',
                   VALE_CALC=2.6193377004922,
                   
                   ),
                _F(NUME_ORDRE=1,
                   GROUP_NO='N1B',
                   REFERENCE='SOURCE_EXTERNE',
                   RESULTAT=ANA_A3,
                   NOM_CHAM='REAC_NODA',
                   NOM_CMP='DRX',
                   VALE_CALC=73.743414468,
                   VALE_REFE=64.412700000000001,
                   PRECISION=0.14999999999999999,),
                _F(NUME_ORDRE=1,
                   GROUP_NO='N1B',
                   RESULTAT=ANA_A3,
                   NOM_CHAM='REAC_NODA',
                   NOM_CMP='DRX',
                   VALE_CALC=73.743414467622998,
                   
                   ),
                _F(NUME_ORDRE=1,
                   GROUP_NO='N1B',
                   REFERENCE='SOURCE_EXTERNE',
                   RESULTAT=ANA_A3,
                   NOM_CHAM='REAC_NODA',
                   NOM_CMP='DRY',
                   VALE_CALC=692.273136480,
                   VALE_REFE=690.80610000000001,
                   PRECISION=3.0000000000000001E-3,),
                _F(NUME_ORDRE=1,
                   GROUP_NO='N1B',
                   RESULTAT=ANA_A3,
                   NOM_CHAM='REAC_NODA',
                   NOM_CMP='DRY',
                   VALE_CALC=692.27313648013001,
                   
                   ),
                _F(NUME_ORDRE=1,
                   GROUP_NO='N1B',
                   REFERENCE='SOURCE_EXTERNE',
                   RESULTAT=ANA_A3,
                   NOM_CHAM='REAC_NODA',
                   NOM_CMP='DRZ',
                   VALE_CALC=190.527375737,
                   VALE_REFE=185.58799999999999,
                   PRECISION=0.029999999999999999,),
                _F(NUME_ORDRE=1,
                   GROUP_NO='N1B',
                   RESULTAT=ANA_A3,
                   NOM_CHAM='REAC_NODA',
                   NOM_CMP='DRZ',
                   VALE_CALC=190.52737573713,
                   
                   ),
                _F(NUME_ORDRE=1,
                   GROUP_NO='N4B',
                   REFERENCE='SOURCE_EXTERNE',
                   RESULTAT=ANA_A3,
                   NOM_CHAM='REAC_NODA',
                   NOM_CMP='DX',
                   VALE_CALC=23.930800832,
                   VALE_REFE=23.976799999999997,
                   PRECISION=2.E-3,),
                _F(NUME_ORDRE=1,
                   GROUP_NO='N4B',
                   RESULTAT=ANA_A3,
                   NOM_CHAM='REAC_NODA',
                   NOM_CMP='DX',
                   VALE_CALC=23.930800832254,
                   
                   ),
                _F(NUME_ORDRE=1,
                   GROUP_NO='N4B',
                   REFERENCE='SOURCE_EXTERNE',
                   RESULTAT=ANA_A3,
                   NOM_CHAM='REAC_NODA',
                   NOM_CMP='DZ',
                   VALE_CALC=26.774906504,
                   VALE_REFE=25.428800000000003,
                   PRECISION=0.059999999999999998,),
                _F(NUME_ORDRE=1,
                   GROUP_NO='N4B',
                   RESULTAT=ANA_A3,
                   NOM_CHAM='REAC_NODA',
                   NOM_CMP='DZ',
                   VALE_CALC=26.774906503596998,
                   
                   ),
                _F(NUME_ORDRE=1,
                   GROUP_NO='N7B',
                   REFERENCE='SOURCE_EXTERNE',
                   RESULTAT=ANA_A3,
                   NOM_CHAM='REAC_NODA',
                   NOM_CMP='DY',
                   VALE_CALC=15.004247768,
                   VALE_REFE=14.424799999999999,
                   PRECISION=0.050000000000000003,),
                _F(NUME_ORDRE=1,
                   GROUP_NO='N7B',
                   RESULTAT=ANA_A3,
                   NOM_CHAM='REAC_NODA',
                   NOM_CMP='DY',
                   VALE_CALC=15.004247768168,
                   
                   ),
                _F(NUME_ORDRE=1,
                   GROUP_NO='N11B',
                   REFERENCE='SOURCE_EXTERNE',
                   RESULTAT=ANA_A3,
                   NOM_CHAM='REAC_NODA',
                   NOM_CMP='DY',
                   VALE_CALC=15.807397843,
                   VALE_REFE=15.635,
                   PRECISION=0.02,),
                _F(NUME_ORDRE=1,
                   GROUP_NO='N11B',
                   RESULTAT=ANA_A3,
                   NOM_CHAM='REAC_NODA',
                   NOM_CMP='DY',
                   VALE_CALC=15.807397842776,
                   
                   ),
                _F(NUME_ORDRE=1,
                   GROUP_NO='N11B',
                   REFERENCE='SOURCE_EXTERNE',
                   RESULTAT=ANA_A3,
                   NOM_CHAM='REAC_NODA',
                   NOM_CMP='DZ',
                   VALE_CALC=73.496963084,
                   VALE_REFE=74.408000000000001,
                   PRECISION=0.02,),
                _F(NUME_ORDRE=1,
                   GROUP_NO='N11B',
                   RESULTAT=ANA_A3,
                   NOM_CHAM='REAC_NODA',
                   NOM_CMP='DZ',
                   VALE_CALC=73.496963084444005,
                   
                   ),
                _F(NUME_ORDRE=1,
                   GROUP_NO='N15B',
                   REFERENCE='SOURCE_EXTERNE',
                   RESULTAT=ANA_A3,
                   NOM_CHAM='REAC_NODA',
                   NOM_CMP='DX',
                   VALE_CALC=545.507137159,
                   VALE_REFE=550.8438000000001,
                   PRECISION=1.E-2,),
                _F(NUME_ORDRE=1,
                   GROUP_NO='N15B',
                   RESULTAT=ANA_A3,
                   NOM_CHAM='REAC_NODA',
                   NOM_CMP='DX',
                   VALE_CALC=545.50713715862003,
                   
                   ),
                _F(NUME_ORDRE=1,
                   GROUP_NO='N17B',
                   REFERENCE='SOURCE_EXTERNE',
                   RESULTAT=ANA_A3,
                   NOM_CHAM='REAC_NODA',
                   NOM_CMP='DY',
                   VALE_CALC=39.205139377,
                   VALE_REFE=39.1068,
                   PRECISION=1.E-2,),
                _F(NUME_ORDRE=1,
                   GROUP_NO='N17B',
                   RESULTAT=ANA_A3,
                   NOM_CHAM='REAC_NODA',
                   NOM_CMP='DY',
                   VALE_CALC=39.205139377339997,
                   
                   ),
                _F(NUME_ORDRE=1,
                   GROUP_NO='N17B',
                   REFERENCE='SOURCE_EXTERNE',
                   RESULTAT=ANA_A3,
                   NOM_CHAM='REAC_NODA',
                   NOM_CMP='DZ',
                   VALE_CALC=62.793583398,
                   VALE_REFE=62.9129,
                   PRECISION=1.E-2,),
                _F(NUME_ORDRE=1,
                   GROUP_NO='N17B',
                   RESULTAT=ANA_A3,
                   NOM_CHAM='REAC_NODA',
                   NOM_CMP='DZ',
                   VALE_CALC=62.793583397421003,
                   
                   ),
                _F(NUME_ORDRE=1,
                   GROUP_NO='N36B',
                   REFERENCE='SOURCE_EXTERNE',
                   RESULTAT=ANA_A3,
                   NOM_CHAM='REAC_NODA',
                   NOM_CMP='DY',
                   VALE_CALC=59.766470703,
                   VALE_REFE=59.081400000000002,
                   PRECISION=0.02,),
                _F(NUME_ORDRE=1,
                   GROUP_NO='N36B',
                   RESULTAT=ANA_A3,
                   NOM_CHAM='REAC_NODA',
                   NOM_CMP='DY',
                   VALE_CALC=59.766470702885002,
                   
                   ),
                _F(NUME_ORDRE=1,
                   GROUP_NO='N36B',
                   REFERENCE='SOURCE_EXTERNE',
                   RESULTAT=ANA_A3,
                   NOM_CHAM='REAC_NODA',
                   NOM_CMP='DZ',
                   VALE_CALC=73.119682508,
                   VALE_REFE=75.668700000000015,
                   PRECISION=0.040000000000000001,),
                _F(NUME_ORDRE=1,
                   GROUP_NO='N36B',
                   RESULTAT=ANA_A3,
                   NOM_CHAM='REAC_NODA',
                   NOM_CMP='DZ',
                   VALE_CALC=73.119682508156998,
                   
                   ),
                _F(NUME_ORDRE=1,
                   GROUP_NO='N38B',
                   REFERENCE='SOURCE_EXTERNE',
                   RESULTAT=ANA_A3,
                   NOM_CHAM='REAC_NODA',
                   NOM_CMP='DX',
                   VALE_CALC=157.999223429,
                   VALE_REFE=163.35939999999999,
                   PRECISION=0.040000000000000001,),
                _F(NUME_ORDRE=1,
                   GROUP_NO='N38B',
                   RESULTAT=ANA_A3,
                   NOM_CHAM='REAC_NODA',
                   NOM_CMP='DX',
                   VALE_CALC=157.99922342895999,
                   
                   ),
                _F(NUME_ORDRE=1,
                   GROUP_NO='N38B',
                   REFERENCE='SOURCE_EXTERNE',
                   RESULTAT=ANA_A3,
                   NOM_CHAM='REAC_NODA',
                   NOM_CMP='DY',
                   VALE_CALC=48.900219118,
                   VALE_REFE=48.378,
                   PRECISION=0.02,),
                _F(NUME_ORDRE=1,
                   GROUP_NO='N38B',
                   RESULTAT=ANA_A3,
                   NOM_CHAM='REAC_NODA',
                   NOM_CMP='DY',
                   VALE_CALC=48.900219117733002,
                   
                   ),
                _F(NUME_ORDRE=1,
                   GROUP_NO='N38B',
                   REFERENCE='SOURCE_EXTERNE',
                   RESULTAT=ANA_A3,
                   NOM_CHAM='REAC_NODA',
                   NOM_CMP='DZ',
                   VALE_CALC=54.078090567,
                   VALE_REFE=56.298000000000002,
                   PRECISION=0.040000000000000001,),
                _F(NUME_ORDRE=1,
                   GROUP_NO='N38B',
                   RESULTAT=ANA_A3,
                   NOM_CHAM='REAC_NODA',
                   NOM_CMP='DZ',
                   VALE_CALC=54.078090566912998,
                   
                   ),
                _F(NUME_ORDRE=1,
                   GROUP_NO='N38B',
                   REFERENCE='SOURCE_EXTERNE',
                   RESULTAT=ANA_A3,
                   NOM_CHAM='REAC_NODA',
                   NOM_CMP='DRX',
                   VALE_CALC=787.794778877,
                   VALE_REFE=762.94209999999998,
                   PRECISION=0.040000000000000001,),
                _F(NUME_ORDRE=1,
                   GROUP_NO='N38B',
                   RESULTAT=ANA_A3,
                   NOM_CHAM='REAC_NODA',
                   NOM_CMP='DRX',
                   VALE_CALC=787.79477887617998,
                   
                   ),
                _F(NUME_ORDRE=1,
                   GROUP_NO='N38B',
                   REFERENCE='SOURCE_EXTERNE',
                   RESULTAT=ANA_A3,
                   NOM_CHAM='REAC_NODA',
                   NOM_CMP='DRY',
                   VALE_CALC= 3.55418474E+03,
                   VALE_REFE=3701.3900000000003,
                   PRECISION=0.040000000000000001,),
                _F(NUME_ORDRE=1,
                   GROUP_NO='N38B',
                   RESULTAT=ANA_A3,
                   NOM_CHAM='REAC_NODA',
                   NOM_CMP='DRY',
                   VALE_CALC=3554.1847426488998,
                   
                   ),
                _F(NUME_ORDRE=1,
                   GROUP_NO='N38B',
                   REFERENCE='SOURCE_EXTERNE',
                   RESULTAT=ANA_A3,
                   NOM_CHAM='REAC_NODA',
                   NOM_CMP='DRZ',
                   VALE_CALC= 3.46143261E+03,
                   VALE_REFE=3429.5800000000004,
                   PRECISION=1.E-2,),
                _F(NUME_ORDRE=1,
                   GROUP_NO='N38B',
                   RESULTAT=ANA_A3,
                   NOM_CHAM='REAC_NODA',
                   NOM_CMP='DRZ',
                   VALE_CALC=3461.4326108251998,
                   
                   ),
                _F(NUME_ORDRE=1,
                   GROUP_NO='N23B',
                   REFERENCE='SOURCE_EXTERNE',
                   RESULTAT=ANA_A3,
                   NOM_CHAM='REAC_NODA',
                   NOM_CMP='DX',
                   VALE_CALC=233.036574216,
                   VALE_REFE=238.815,
                   PRECISION=0.029999999999999999,),
                _F(NUME_ORDRE=1,
                   GROUP_NO='N23B',
                   RESULTAT=ANA_A3,
                   NOM_CHAM='REAC_NODA',
                   NOM_CMP='DX',
                   VALE_CALC=233.03657421619999,
                   
                   ),
                _F(NUME_ORDRE=1,
                   GROUP_NO='N23B',
                   REFERENCE='SOURCE_EXTERNE',
                   RESULTAT=ANA_A3,
                   NOM_CHAM='REAC_NODA',
                   NOM_CMP='DY',
                   VALE_CALC=42.044041285,
                   VALE_REFE=40.039999999999999,
                   PRECISION=0.059999999999999998,),
                _F(NUME_ORDRE=1,
                   GROUP_NO='N23B',
                   RESULTAT=ANA_A3,
                   NOM_CHAM='REAC_NODA',
                   NOM_CMP='DY',
                   VALE_CALC=42.04404128521,
                   
                   ),
                _F(NUME_ORDRE=1,
                   GROUP_NO='N31B',
                   REFERENCE='SOURCE_EXTERNE',
                   RESULTAT=ANA_A3,
                   NOM_CHAM='REAC_NODA',
                   NOM_CMP='DX',
                   VALE_CALC=9.624443243,
                   VALE_REFE=9.8559000000000001,
                   PRECISION=0.029999999999999999,),
                _F(NUME_ORDRE=1,
                   GROUP_NO='N31B',
                   RESULTAT=ANA_A3,
                   NOM_CHAM='REAC_NODA',
                   NOM_CMP='DX',
                   VALE_CALC=9.6244432427186002,
                   
                   ),
                _F(NUME_ORDRE=1,
                   GROUP_NO='N31B',
                   REFERENCE='SOURCE_EXTERNE',
                   RESULTAT=ANA_A3,
                   NOM_CHAM='REAC_NODA',
                   NOM_CMP='DY',
                   VALE_CALC=17.887954269,
                   VALE_REFE=17.7165,
                   PRECISION=1.E-2,),
                _F(NUME_ORDRE=1,
                   GROUP_NO='N31B',
                   RESULTAT=ANA_A3,
                   NOM_CHAM='REAC_NODA',
                   NOM_CMP='DY',
                   VALE_CALC=17.887954269295001,
                   
                   ),
                _F(NUME_ORDRE=1,
                   GROUP_NO='N31B',
                   REFERENCE='SOURCE_EXTERNE',
                   RESULTAT=ANA_A3,
                   NOM_CHAM='REAC_NODA',
                   NOM_CMP='DZ',
                   VALE_CALC=23.214114749,
                   VALE_REFE=23.559999999999999,
                   PRECISION=0.02,),
                _F(NUME_ORDRE=1,
                   GROUP_NO='N31B',
                   RESULTAT=ANA_A3,
                   NOM_CHAM='REAC_NODA',
                   NOM_CMP='DZ',
                   VALE_CALC=23.214114748928001,
                   
                   ),
                _F(NUME_ORDRE=1,
                   GROUP_NO='N31B',
                   REFERENCE='SOURCE_EXTERNE',
                   RESULTAT=ANA_A3,
                   NOM_CHAM='REAC_NODA',
                   NOM_CMP='DRX',
                   VALE_CALC= 1.72506339E+03,
                   VALE_REFE=1763.6800000000001,
                   PRECISION=0.029999999999999999,),
                _F(NUME_ORDRE=1,
                   GROUP_NO='N31B',
                   RESULTAT=ANA_A3,
                   NOM_CHAM='REAC_NODA',
                   NOM_CMP='DRX',
                   VALE_CALC=1725.0633887302999,
                   
                   ),
                _F(NUME_ORDRE=1,
                   GROUP_NO='N31B',
                   REFERENCE='SOURCE_EXTERNE',
                   RESULTAT=ANA_A3,
                   NOM_CHAM='REAC_NODA',
                   NOM_CMP='DRY',
                   VALE_CALC=298.747790132,
                   VALE_REFE=306.15099999999995,
                   PRECISION=0.029999999999999999,),
                _F(NUME_ORDRE=1,
                   GROUP_NO='N31B',
                   RESULTAT=ANA_A3,
                   NOM_CHAM='REAC_NODA',
                   NOM_CMP='DRY',
                   VALE_CALC=298.74779013161998,
                   
                   ),
                _F(NUME_ORDRE=1,
                   GROUP_NO='N31B',
                   REFERENCE='SOURCE_EXTERNE',
                   RESULTAT=ANA_A3,
                   NOM_CHAM='REAC_NODA',
                   NOM_CMP='DRZ',
                   VALE_CALC=752.147381365,
                   VALE_REFE=772.15999999999997,
                   PRECISION=0.029999999999999999,),
                _F(NUME_ORDRE=1,
                   GROUP_NO='N31B',
                   RESULTAT=ANA_A3,
                   NOM_CHAM='REAC_NODA',
                   NOM_CMP='DRZ',
                   VALE_CALC=752.14738136437995,
                   
                   ),
                ),
          )

FIN()
