# MODIF  DATE 16/10/2012   AUTEUR ALARCON A.ALARCON 
# TITRE CALCUL MODAL POUTRE MULTIFIBRE AVEC GYROSCOPIE
# sdll123d.para = tps_job 900 mem_job 512Mo ncpus 1 liste_test R
#            CONFIGURATION MANAGEMENT OF EDF VERSION
# ======================================================================
# COPYRIGHT (C) 1991 - 2012  EDF R&D                  WWW.CODE-ASTER.ORG
# THIS PROGRAM IS FREE SOFTWARE; YOU CAN REDISTRIBUTE IT AND/OR MODIFY
# IT UNDER THE TERMS OF THE GNU GENERAL PUBLIC LICENSE AS PUBLISHED BY
# THE FREE SOFTWARE FOUNDATION; EITHER VERSION 2 OF THE LICENSE, OR
# (AT YOUR OPTION) ANY LATER VERSION.
#
# THIS PROGRAM IS DISTRIBUTED IN THE HOPE THAT IT WILL BE USEFUL, BUT
# WITHOUT ANY WARRANTY; WITHOUT EVEN THE IMPLIED WARRANTY OF
# MERCHANTABILITY OR FITNESS FOR A PARTICULAR PURPOSE. SEE THE GNU
# GENERAL PUBLIC LICENSE FOR MORE DETAILS.
#
# YOU SHOULD HAVE RECEIVED A COPY OF THE GNU GENERAL PUBLIC LICENSE
# ALONG WITH THIS PROGRAM; IF NOT, WRITE TO EDF R&D CODE_ASTER,
#    1 AVENUE DU GENERAL DE GAULLE, 92141 CLAMART CEDEX, FRANCE.
# ======================================================================
# RESPONSABLE TORKHANI M.TORKHANI
#

import aster_core
import numpy as NP
import numpy.linalg as LA

DEBUT( CODE=_F(NOM='SDLL123D', NIV_PUB_WEB='INTERNET'),
       PAR_LOT='NON', DEBUG=_F(SDVERI='OUI'))

INCLUDE(UNITE=66)

# Lecture du maillage filiere
MAIL=LIRE_MAILLAGE()

# Lecture du maillage de la section
SECTION=LIRE_MAILLAGE(UNITE=21,FORMAT='MED')

MODELE=AFFE_MODELE(MAILLAGE=MAIL,
                   AFFE=(_F(GROUP_MA='ROTOR',
                           PHENOMENE='MECANIQUE',
                           MODELISATION='POU_D_EM',),
                         _F(GROUP_MA=('DISQUES'),
                           PHENOMENE='MECANIQUE',
                           MODELISATION='DIS_TR',),
                         )
                       )

GF=DEFI_GEOM_FIBRE(
           SECTION = _F ( GROUP_FIBRE='SECTIO',
                            MAILLAGE_SECT = SECTION , GROUP_MA_SECT = 'Face_1',
                            COOR_AXE_POUTRE = (0., 0.,)),
            )

ACIER=DEFI_MATERIAU(ELAS=_F(E=2.06E11,
                            NU=0.0,
                            RHO=7800.0,),);


COMPF=DEFI_COMPOR(GEOM_FIBRE=GF,MATER_SECT=ACIER,
                  MULTIFIBRE=(_F(GROUP_FIBRE='SECTIO',MATER=ACIER,RELATION='ELAS'),))


CHMAT=AFFE_MATERIAU(MAILLAGE=MAIL,
                    AFFE=(_F(GROUP_MA='ROTOR',MATER=ACIER,),),
                    AFFE_COMPOR=_F(TOUT='OUI',COMPOR=COMPF))

CARELEM=AFFE_CARA_ELEM(MODELE=MODELE,
                       POUTRE=(_F(GROUP_MA='ROTOR',
                                 SECTION='CERCLE',
                                 CARA='R',
                                 VALE=(.025),),),
                        DISCRET=(
                                   _F(GROUP_MA='DISQUES',
                                     CARA='M_TR_D_N',
                                     VALE=(0.03829,3.000E-6,1.8000E-6,1.8000E-6,0.,0.,0.,0.,0.,0.),),
                                   _F(GROUP_MA='DISQUES',
                                     CARA='K_TR_D_N',
                                     VALE=(0.,0.,0.,0.,0.,0.,), ),
                                   _F(GROUP_MA='DISQUES',
                                     CARA='A_TR_D_N',
                                     VALE=(0.,0.,0.,0.,0.,0.,), )
                        ),
                        GEOM_FIBRE=GF,
                        MULTIFIBRE=(_F(GROUP_MA=('ROTOR'),
                                       GROUP_FIBRE=('SECTIO')),
                        ))



BLOQUAGE=AFFE_CHAR_MECA(MODELE=MODELE,
                               DDL_IMPO=(
                                 _F(GROUP_NO=('PALIER_A','PALIER_B'),
                                     DX=0, DY=0, DZ=0, DRX=0,
                                     ),
                          ))



ASSEMBLAGE(MODELE=MODELE,
                CHAM_MATER=CHMAT,
                CARA_ELEM=CARELEM,
                CHARGE=BLOQUAGE,
                NUME_DDL=CO('NUMEDDL'),
                MATR_ASSE=(_F(MATRICE=CO('RIGIDITE'),
                              OPTION='RIGI_MECA',),
                           _F(MATRICE=CO('MASSE'),
                              OPTION='MASS_MECA',),
                           _F(MATRICE=CO('GYASS'),
                              OPTION='MECA_GYRO',),
                           _F(MATRICE=CO('AMOR'),
                              OPTION='AMOR_MECA',),),);


[d,rig]=EXTR_MATR(RIGIDITE,1)
[d,mas]=EXTR_MATR(MASSE,1)
[d,amor]=EXTR_MATR(AMOR,1)

nddl=rig.shape[0]
print 'nddl', nddl

print "D"
print len(d)
i=0
for ddd in d:
   print i,ddd
   i=i+1
print "\n"

MODES=MODE_ITER_SIMULT(MATR_RIGI=RIGIDITE,
                       MATR_MASS=MASSE,
                       CALC_FREQ=_F(OPTION='BANDE',
                       FREQ=(3.,3000.)));

OM=10000.*pi/30.

GYOM=COMB_MATR_ASSE(COMB_R=(_F(MATR_ASSE=GYASS, COEF_R=OM,),
                            _F(MATR_ASSE=AMOR, COEF_R=1.,),))


MODEQ=MODE_ITER_SIMULT(MATR_RIGI=RIGIDITE,
                       MATR_MASS=MASSE,
                       MATR_AMOR=GYOM,
                       METHODE='QZ',
                       TYPE_QZ='QZ_SIMPLE',
                       CALC_FREQ=_F(NMAX_FREQ=106),
                       VERI_MODE=_F(SEUIL=0.5),
                        )

[d,gyro]=EXTR_MATR(GYOM,1)

masI=LA.inv(mas)
HPRIME=NP.zeros((nddl*2,nddl*2))
HPRIME[0:nddl,0:nddl]=NP.dot(gyro,masI)
HPRIME[0:nddl,nddl:2*nddl]=NP.dot(rig,masI)
HPRIME[nddl:2*nddl,0:nddl]=-NP.identity(nddl)
aster_core.matfpe(-1)
print 'valeurs propres primes'
vprime=LA.eigvals(HPRIME)/2./NP.pi
vpreal=list(vprime.imag)
vpreal.sort()
i=1
j=0
for vp in vpreal:
 if vp>5.e-3:
  print "vp %4d : %6.6f" %(i,vp)
  i=i+1
 j=j+1
 dij=j-i
aster_core.matfpe(+1)


FREQROT=CREA_TABLE(
        LISTE=(
               _F(LISTE_I=(1,2,3,4),PARA='NUME_ORDRE'),
               _F(LISTE_R=(vpreal[1+dij],vpreal[2+dij],vpreal[3+dij],vpreal[4+dij]),PARA='FREQ'),
              ))

IMPR_TABLE(TABLE=FREQROT)

TEST_TABLE(
           VALE_CALC=123.429,
           TOLE_MACHINE=1.E-3,
           NOM_PARA='FREQ',
           TABLE=FREQROT,
           FILTRE=_F(NOM_PARA='NUME_ORDRE',
                     VALE_I=1,),
           )

TEST_TABLE(
           VALE_CALC=124.05500000000001,
           TOLE_MACHINE=1.E-3,
           NOM_PARA='FREQ',
           TABLE=FREQROT,
           FILTRE=_F(NOM_PARA='NUME_ORDRE',
                     VALE_I=2,),
           )

TEST_TABLE(
           VALE_CALC=493.69099999999997,
           TOLE_MACHINE=1.E-3,
           NOM_PARA='FREQ',
           TABLE=FREQROT,
           FILTRE=_F(NOM_PARA='NUME_ORDRE',
                     VALE_I=3,),
           )

TEST_TABLE(
           VALE_CALC=496.19900000000001,
           TOLE_MACHINE=1.E-3,
           NOM_PARA='FREQ',
           TABLE=FREQROT,
           FILTRE=_F(NOM_PARA='NUME_ORDRE',
                     VALE_I=4,),
           )

# POUR QZ
TEST_RESU(RESU=(_F(NUME_ORDRE=1,
                   PARA='FREQ',
                   RESULTAT=MODEQ,
                   VALE_CALC=123.42934099999999,
                   
                   CRITERE='RELATIF',
                   ),
                _F(NUME_ORDRE=1,
                   PARA='AMOR_REDUIT',
                   RESULTAT=MODEQ,
                   VALE_CALC=0.0,
                   TOLE_MACHINE=1.E-4,
                   CRITERE='ABSOLU',
                   ),
                _F(NUME_ORDRE=20,
                   PARA='FREQ',
                   RESULTAT=MODEQ,
                   VALE_CALC=7507.3125,
                   
                   CRITERE='RELATIF',
                   ),
                _F(NUME_ORDRE=20,
                   PARA='AMOR_REDUIT',
                   RESULTAT=MODEQ,
                   VALE_CALC=0.0,
                   TOLE_MACHINE=1.E-4,
                   CRITERE='ABSOLU',
                   ),
                _F(NUME_ORDRE=40,
                   PARA='FREQ',
                   RESULTAT=MODEQ,
                   VALE_CALC=1.8555348176E4,
                   
                   CRITERE='RELATIF',
                   ),
                _F(NUME_ORDRE=40,
                   PARA='AMOR_REDUIT',
                   RESULTAT=MODEQ,
                   VALE_CALC=0.0,
                   TOLE_MACHINE=1.E-4,
                   CRITERE='ABSOLU',
                   ),
                _F(NUME_ORDRE=60,
                   PARA='FREQ',
                   RESULTAT=MODEQ,
                   VALE_CALC=3.5125262390000004E4,
                   TOLE_MACHINE=5.0000000000000004E-06,
                   CRITERE='RELATIF',
                   ),
                _F(NUME_ORDRE=60,
                   PARA='AMOR_REDUIT',
                   RESULTAT=MODEQ,
                   VALE_CALC=0.0,
                   TOLE_MACHINE=1.E-4,
                   CRITERE='ABSOLU',
                   ),
                _F(NUME_ORDRE=80,
                   PARA='FREQ',
                   RESULTAT=MODEQ,
                   VALE_CALC=5.5643094315000002E4,
                   TOLE_MACHINE=5.0000000000000004E-06,
                   CRITERE='RELATIF',
                   ),
                _F(NUME_ORDRE=80,
                   PARA='AMOR_REDUIT',
                   RESULTAT=MODEQ,
                   VALE_CALC=0.0,
                   TOLE_MACHINE=1.E-4,
                   CRITERE='ABSOLU',
                   ),
                _F(NUME_ORDRE=100,
                   PARA='FREQ',
                   RESULTAT=MODEQ,
                   VALE_CALC=1.017381078E5,
                   TOLE_MACHINE=5.0000000000000004E-06,
                   CRITERE='RELATIF',
                   ),
                _F(NUME_ORDRE=100,
                   PARA='AMOR_REDUIT',
                   RESULTAT=MODEQ,
                   VALE_CALC=0.0,
                   TOLE_MACHINE=1.E-4,
                   CRITERE='ABSOLU',
                   ),
                _F(NUME_ORDRE=106,
                   PARA='FREQ',
                   RESULTAT=MODEQ,
                   VALE_CALC=1.077183033E5,
                   TOLE_MACHINE=5.0000000000000004E-06,
                   CRITERE='RELATIF',
                   ),
                _F(NUME_ORDRE=106,
                   PARA='AMOR_REDUIT',
                   RESULTAT=MODEQ,
                   VALE_CALC=0.0,
                   TOLE_MACHINE=1.E-4,
                   CRITERE='ABSOLU',
                   ),
                ),
          )

FIN()
