# MODIF  DATE 16/05/2002   AUTEUR DURAND C.DURAND 
# TITRE TABLE A CAFE DE NEUBERT ( MODELISATION 24 MASSES )
#            CONFIGURATION MANAGEMENT OF EDF VERSION
# ======================================================================
# COPYRIGHT (C) 1991 - 2001  EDF R&D                  WWW.CODE-ASTER.ORG
# THIS PROGRAM IS FREE SOFTWARE; YOU CAN REDISTRIBUTE IT AND/OR MODIFY
# IT UNDER THE TERMS OF THE GNU GENERAL PUBLIC LICENSE AS PUBLISHED BY
# THE FREE SOFTWARE FOUNDATION; EITHER VERSION 2 OF THE LICENSE, OR   
# (AT YOUR OPTION) ANY LATER VERSION.                                 
#
# THIS PROGRAM IS DISTRIBUTED IN THE HOPE THAT IT WILL BE USEFUL, BUT 
# WITHOUT ANY WARRANTY; WITHOUT EVEN THE IMPLIED WARRANTY OF          
# MERCHANTABILITY OR FITNESS FOR A PARTICULAR PURPOSE. SEE THE GNU    
# GENERAL PUBLIC LICENSE FOR MORE DETAILS.                            
#
# YOU SHOULD HAVE RECEIVED A COPY OF THE GNU GENERAL PUBLIC LICENSE   
# ALONG WITH THIS PROGRAM; IF NOT, WRITE TO EDF R&D CODE_ASTER,       
#    1 AVENUE DU GENERAL DE GAULLE, 92141 CLAMART CEDEX, FRANCE.      
# ======================================================================
# RESPONSABLE   PIBAT01 J. PIGAT


DEBUT( CODE=_F(  NOM = 'SDLL108B',NIV_PUB_WEB='INTERNET') )

MA=LIRE_MAILLAGE(VERI_MAIL=_F(VERIF='NON'), )

MA=DEFI_GROUP( reuse=MA,   MAILLAGE=MA,
                     CREA_GROUP_MA=_F(  NOM = 'TOUT', TOUT = 'OUI'))

MAT=DEFI_MATERIAU(  ELAS=_F(  E = 1.92276E+11, NU = 0.3, RHO = 0.) )

CHMAT=AFFE_MATERIAU(  MAILLAGE=MA,
                         AFFE=_F(  GROUP_MA = 'POU_D_T',   MATER = MAT)  )

MOD=AFFE_MODELE(  MAILLAGE=MA,AFFE=( 
                   _F(  GROUP_MA = 'POU_D_T',  PHENOMENE = 'MECANIQUE', 
                          MODELISATION = 'POU_D_T'),
                        _F(  GROUP_MA = 'MAS_COIN',  PHENOMENE = 'MECANIQUE',
                          MODELISATION = 'DIS_T'),
                        _F(  GROUP_MA = 'MAS_INTE',  PHENOMENE = 'MECANIQUE',
                          MODELISATION = 'DIS_T'))                 )

CARLEM=AFFE_CARA_ELEM(   MODELE=MOD,
                 POUTRE=_F(  GROUP_MA = 'TOUT',
                          SECTION = 'GENERALE',
                          CARA = ('A',  'IZ', 'IY', 'AY', 'AZ', 'JX',
                                 'EZ', 'EY', 'RY', 'RZ', 'RT', ),
                          VALE = ( 7.0370E-04,  2.7720E-07,  2.7720E-07, 
                                  2.0,  2.0,  5.5450E-07, 0.0,  0.0, 
                                  0.030,  0.030,  0.030,        )),DISCRET=(
                 _F(  GROUP_MA = 'MAS_COIN',  CARA = 'M_T_D_N',
                           VALE = 4.444),
                         _F(  GROUP_MA = 'MAS_INTE',  CARA = 'M_T_D_N',
                           VALE = 0.783))
                         )

COND_LIM=AFFE_CHAR_MECA(  MODELE=MOD,
                   DDL_IMPO=_F(  GROUP_NO = 'ENCASTRE',
                              DX = 0.,   DY = 0.,   DZ = 0.,
                              DRX = 0.,  DRY = 0.,  DRZ = 0.)       )

TABL_MAS=POST_ELEM(  MODELE=MOD,
                         CHAM_MATER=CHMAT,   CARA_ELEM=CARLEM,
                         MASS_INER=_F(  TOUT = 'OUI',
                                     GROUP_MA = ( 'POU_D_T',  'MAS_COIN', 
                                                 'MAS_INTE', )) )

RIGI_ELE=CALC_MATR_ELEM(  MODELE=MOD,   OPTION='RIGI_MECA',
                              CHAM_MATER=CHMAT,   CARA_ELEM=CARLEM,
                              CHARGE=COND_LIM                        )

MASS_ELE=CALC_MATR_ELEM(  MODELE=MOD,   OPTION='MASS_MECA',
                              CHAM_MATER=CHMAT,   CARA_ELEM=CARLEM,
                              CHARGE=COND_LIM                        )

NUME1=NUME_DDL(  MATR_RIGI=RIGI_ELE)

RIGIDITE=ASSE_MATRICE(  MATR_ELEM=RIGI_ELE,  NUME_DDL=NUME1      )

MASSE=ASSE_MATRICE(  MATR_ELEM=MASS_ELE,  NUME_DDL=NUME1      )

MODE_STA=MODE_STATIQUE(  MATR_RIGI=RIGIDITE,   MATR_MASS=MASSE,
                             PSEUDO_MODE=_F(  AXE = ( 'X',  'Y',  'Z', ))  )

MODE_STA=CALC_ELEM(reuse=MODE_STA,  RESULTAT=MODE_STA,
                         MODELE=MOD,       
                         OPTION=( 'EFGE_ELNO_DEPL', 'SIEF_ELGA_DEPL', 
                                  'EFGE_ELNO_CART',   ),
                         CHAM_MATER=CHMAT,   CARA_ELEM=CARLEM        )

MODE_STA=CALC_NO(reuse=MODE_STA,  RESULTAT=MODE_STA, 
                   MODELE=MOD,  OPTION='REAC_NODA',
                       CHAM_MATER=CHMAT,   CARA_ELEM=CARLEM          )

MODE_MEC=MODE_ITER_INV(  MATR_A=RIGIDITE,   MATR_B=MASSE,
                  CALC_FREQ=_F(  OPTION = 'PROCHE',
                              FREQ = ( 110.91,   115.53,   136.01, 
                                      213.71,   417.76,   435.23, 
                                      464.56,   557.86,   822.59, 
                                      847.91,   979.29,   992.80, 
                                     1022.58,  1041.03,  1057.81, 
                                     1089.93,  1093.98,  1108.82, )) )

MODE_MEC=NORM_MODE(reuse=MODE_MEC,   MODE=MODE_MEC,   NORME='MASS_GENE',
                         MASS_INER=TABL_MAS                          )

MODE_MEC=CALC_ELEM(reuse=MODE_MEC,  RESULTAT=MODE_MEC,
                         MODELE=MOD,       
                         OPTION=( 'EFGE_ELNO_DEPL', 'SIEF_ELGA_DEPL', 
                                  'EFGE_ELNO_CART',   ),
                         CHAM_MATER=CHMAT,   CARA_ELEM=CARLEM        )

MODE_MEC=CALC_NO(reuse=MODE_MEC,  RESULTAT=MODE_MEC, 
                   MODELE=MOD,  OPTION='REAC_NODA',
                       CHAM_MATER=CHMAT,   CARA_ELEM=CARLEM          )

ACCE_XZ=DEFI_FONCTION(  NOM_PARA='FREQ',    INTERPOL='LOG',
                             PROL_DROITE='CONSTANT',
                             PROL_GAUCHE='CONSTANT',
                            VALE=( 100., 17.3,   110., 16.3,   120., 15.3,
                                   130., 14.3,   300., 10.2,   )    )

ACCE_Y=DEFI_FONCTION(  NOM_PARA='FREQ',    INTERPOL='LOG',
                             PROL_DROITE='CONSTANT',
                             PROL_GAUCHE='CONSTANT',
                            VALE=( 100., 11.5,   110., 10.9,   120., 10.2,
                                   130.,  9.6,   300.,  6.66,   )    )

SPECT_XZ=DEFI_NAPPE(  NOM_PARA='AMOR',
                            INTERPOL=( 'LIN', 'LOG', ),
                          PARA=(      0.015,    0.02,    0.025,   ),
                          FONCTION=( ACCE_XZ,  ACCE_XZ,  ACCE_XZ, )  )

SPECT_Y=DEFI_NAPPE(  NOM_PARA='AMOR',
                            INTERPOL=( 'LIN', 'LOG', ),
                          PARA=(      0.015,    0.02,    0.025,   ),
                          FONCTION=( ACCE_Y,   ACCE_Y,   ACCE_Y,  )  )

SISM_SPE=COMB_SISM_MODAL(  MODE_MECA=MODE_MEC,
                               AMOR_REDUIT=0.02,
                               MASS_INER=TABL_MAS,
                               CORR_FREQ='NON',
                               MODE_CORR=MODE_STA,
                              EXCIT=_F(  MONO_APPUI = 'OUI',
                                      TRI_SPEC = 'OUI',
                                      SPEC_OSCI = ( SPECT_XZ,  SPECT_Y,
                                                   SPECT_XZ, ),
                                      ECHELLE = ( 9.81, 9.81, 9.81, )),
                              COMB_MODE=_F(  TYPE = 'SRSS'),
                              COMB_DIRECTION=_F(  TYPE = 'QUAD'),
                               OPTION=( 'DEPL', 
                                        'REAC_NODA',  'EFGE_ELNO_DEPL', 
                                        'EFGE_ELNO_CART', )
                             )

TEST_RESU(RESU=( _F(  RESULTAT = MODE_MEC,  PARA = 'FREQ',
                     NUME_ORDRE = 1,      VALE = 110.8502),
                   _F(  RESULTAT = MODE_MEC,  PARA = 'FREQ',
                     NUME_ORDRE = 2,      VALE = 115.4646),
                   _F(  RESULTAT = MODE_MEC,  PARA = 'FREQ',
                     NUME_ORDRE = 3,      VALE = 135.9291),
                   _F(  RESULTAT = MODE_MEC,  PARA = 'FREQ',
                     NUME_ORDRE = 4,      VALE = 213.5288),
                   _F(  RESULTAT = MODE_MEC,  PARA = 'FREQ',
                     NUME_ORDRE = 5,      VALE = 417.3110, 
                     PRECISION = 0.02),
                   _F(  RESULTAT = MODE_MEC,  PARA = 'FREQ',
                     NUME_ORDRE = 6,      VALE = 434.7889),
                   _F(  RESULTAT = MODE_MEC,  PARA = 'FREQ',
                     NUME_ORDRE = 7,      VALE = 464.0757),
                   _F(  RESULTAT = MODE_MEC,  PARA = 'FREQ',
                     NUME_ORDRE = 8,      VALE = 557.2326,   
                     PRECISION = 0.02),
                   _F(  RESULTAT = MODE_MEC,  PARA = 'FREQ',
                     NUME_ORDRE = 9,      VALE = 821.7074,   
                     PRECISION = 0.02),
                   _F(  RESULTAT = MODE_MEC,  PARA = 'FREQ',
                     NUME_ORDRE = 10,     VALE = 847.0414),
                   _F(  RESULTAT = MODE_MEC,  PARA = 'FREQ',
                     NUME_ORDRE = 11,     VALE = 978.1238,   
                     PRECISION = 0.02),
                   _F(  RESULTAT = MODE_MEC,  PARA = 'FREQ',
                     NUME_ORDRE = 12,     VALE = 991.8127),
                   _F(  RESULTAT = MODE_MEC,  PARA = 'FREQ',
                     NUME_ORDRE = 13,     VALE = 1021.6219),
                   _F(  RESULTAT = MODE_MEC,  PARA = 'FREQ',
                     NUME_ORDRE = 14,     VALE = 1040.2033),
                   _F(  RESULTAT = MODE_MEC,  PARA = 'FREQ',
                     NUME_ORDRE = 15,     VALE = 1056.9123),
                   _F(  RESULTAT = MODE_MEC,  PARA = 'FREQ',
                     NUME_ORDRE = 16,     VALE = 1088.8234),
                   _F(  RESULTAT = MODE_MEC,  PARA = 'FREQ',
                     NUME_ORDRE = 17,     VALE = 1093.1281),
                   _F(  RESULTAT = MODE_MEC,  PARA = 'FREQ',
                     NUME_ORDRE = 18,     VALE = 1107.8311))
             )

#

TEST_RESU(RESU=( _F(  RESULTAT = SISM_SPE,  NOM_CHAM = 'DEPL',
                     NOEUD_CMP = ( 'COMBI',  'QUAD', ), PRECISION = 0.02,
                     NOEUD = 'N17',   NOM_CMP = 'DX',    VALE = 3.4251E-04),
                   _F(  RESULTAT = SISM_SPE,  NOM_CHAM = 'DEPL',
                     NOEUD_CMP = ( 'COMBI',  'QUAD', ), PRECISION = 0.02,
                     NOEUD = 'N17',   NOM_CMP = 'DY',    VALE = 4.3562E-06),
                   _F(  RESULTAT = SISM_SPE,  NOM_CHAM = 'DEPL',
                     NOEUD_CMP = ( 'COMBI',  'QUAD', ), PRECISION = 0.02,
                     NOEUD = 'N17',   NOM_CMP = 'DZ',    VALE = 3.0325E-04),
                   _F(  RESULTAT = SISM_SPE,  NOM_CHAM = 'DEPL',
                     NOEUD_CMP = ( 'COMBI',  'QUAD', ), PRECISION = 0.02,
                     NOEUD = 'N17',   NOM_CMP = 'DRX',   VALE = 3.7040E-04),
                   _F(  RESULTAT = SISM_SPE,  NOM_CHAM = 'DEPL',
                     NOEUD_CMP = ( 'COMBI',  'QUAD', ), PRECISION = 0.02,
                     NOEUD = 'N17',   NOM_CMP = 'DRY',   VALE = 4.7672E-05),
                   _F(  RESULTAT = SISM_SPE,  NOM_CHAM = 'DEPL',
                     NOEUD_CMP = ( 'COMBI',  'QUAD', ), PRECISION = 0.02,
                     NOEUD = 'N17',   NOM_CMP = 'DRZ',   VALE = 5.1112E-04))
             )

TEST_RESU(RESU=( _F(  RESULTAT = SISM_SPE,  NOM_CHAM = 'REAC_NODA',
                     NOEUD_CMP = ( 'COMBI',  'QUAD', ), PRECISION = 0.02,
                     NOEUD = 'N25',   NOM_CMP = 'DX',    VALE = 1254.0),
                   _F(  RESULTAT = SISM_SPE,  NOM_CHAM = 'REAC_NODA',
                     NOEUD_CMP = ( 'COMBI',  'QUAD', ), PRECISION = 0.02,
                     NOEUD = 'N25',   NOM_CMP = 'DY',    VALE = 1247.3),
                   _F(  RESULTAT = SISM_SPE,  NOM_CHAM = 'REAC_NODA',
                     NOEUD_CMP = ( 'COMBI',  'QUAD', ), PRECISION = 0.02,
                     NOEUD = 'N25',   NOM_CMP = 'DZ',    VALE = 1219.7),
                   _F(  RESULTAT = SISM_SPE,  NOM_CHAM = 'REAC_NODA',
                     NOEUD_CMP = ( 'COMBI',  'QUAD', ), PRECISION = 0.02,
                     NOEUD = 'N25',   NOM_CMP = 'DRX',   VALE = 324.80),
                   _F(  RESULTAT = SISM_SPE,  NOM_CHAM = 'REAC_NODA',
                     NOEUD_CMP = ( 'COMBI',  'QUAD', ), PRECISION = 0.02,
                     NOEUD = 'N25',   NOM_CMP = 'DRY',   VALE = 4.131),
                   _F(  RESULTAT = SISM_SPE,  NOM_CHAM = 'REAC_NODA',
                     NOEUD_CMP = ( 'COMBI',  'QUAD', ), PRECISION = 0.02,
                     NOEUD = 'N25',   NOM_CMP = 'DRZ',   VALE = 348.48))
             )

TEST_RESU(RESU=( _F(  RESULTAT = SISM_SPE,  NOM_CHAM = 'EFGE_ELNO_DEPL',
                     PRECISION = 0.02,
                     NOEUD_CMP = ( 'COMBI',  'QUAD', ),  MAILLE = 'E3',
                     NOEUD = 'N17',   NOM_CMP = 'N',     VALE = 1243.2),
                   _F(  RESULTAT = SISM_SPE,  NOM_CHAM = 'EFGE_ELNO_DEPL',
                     PRECISION = 0.02,
                     NOEUD_CMP = ( 'COMBI',  'QUAD', ),  MAILLE = 'E3',
                     NOEUD = 'N17',   NOM_CMP = 'VY',    VALE = 1131.2),
                   _F(  RESULTAT = SISM_SPE,  NOM_CHAM = 'EFGE_ELNO_DEPL',
                     PRECISION = 0.02,
                     NOEUD_CMP = ( 'COMBI',  'QUAD', ),  MAILLE = 'E3',
                     NOEUD = 'N17',   NOM_CMP = 'VZ',    VALE = 1098.2),
                   _F(  RESULTAT = SISM_SPE,  NOM_CHAM = 'EFGE_ELNO_DEPL',
                     PRECISION = 0.02,
                     NOEUD_CMP = ( 'COMBI',  'QUAD', ),  MAILLE = 'E3',
                     NOEUD = 'N17',   NOM_CMP = 'MT',    VALE = 4.1309),
                   _F(  RESULTAT = SISM_SPE,  NOM_CHAM = 'EFGE_ELNO_DEPL',
                     PRECISION = 0.02,
                     NOEUD_CMP = ( 'COMBI',  'QUAD', ),  MAILLE = 'E3',
                     NOEUD = 'N17',   NOM_CMP = 'MFY',   VALE = 228.34),
                   _F(  RESULTAT = SISM_SPE,  NOM_CHAM = 'EFGE_ELNO_DEPL',
                     PRECISION = 0.02,
                     NOEUD_CMP = ( 'COMBI',  'QUAD', ),  MAILLE = 'E3',
                     NOEUD = 'N17',   NOM_CMP = 'MFZ',   VALE = 220.69),

                   _F(  RESULTAT = SISM_SPE,  NOM_CHAM = 'EFGE_ELNO_DEPL',
                     PRECISION = 0.02,
                     NOEUD_CMP = ( 'COMBI',  'QUAD', ),  MAILLE = 'E4',
                     NOEUD = 'N17',   NOM_CMP = 'N',     VALE = 131.76),
                   _F(  RESULTAT = SISM_SPE,  NOM_CHAM = 'EFGE_ELNO_DEPL',
                     PRECISION = 0.02,
                     NOEUD_CMP = ( 'COMBI',  'QUAD', ),  MAILLE = 'E4',
                     NOEUD = 'N17',   NOM_CMP = 'VY',    VALE = 1041.9),
                   _F(  RESULTAT = SISM_SPE,  NOM_CHAM = 'EFGE_ELNO_DEPL',
                     PRECISION = 0.02,
                     NOEUD_CMP = ( 'COMBI',  'QUAD', ),  MAILLE = 'E4',
                     NOEUD = 'N17',   NOM_CMP = 'VZ',    VALE = 188.14),
                   _F(  RESULTAT = SISM_SPE,  NOM_CHAM = 'EFGE_ELNO_DEPL',
                     PRECISION = 0.14,
                     NOEUD_CMP = ( 'COMBI',  'QUAD', ),  MAILLE = 'E4',
                     NOEUD = 'N17',   NOM_CMP = 'MT',    VALE = .164),
                   _F(  RESULTAT = SISM_SPE,  NOM_CHAM = 'EFGE_ELNO_DEPL',
                     PRECISION = 0.02,
                     NOEUD_CMP = ( 'COMBI',  'QUAD', ),  MAILLE = 'E4',
                     NOEUD = 'N17',   NOM_CMP = 'MFY',   VALE = 29.166),
                   _F(  RESULTAT = SISM_SPE,  NOM_CHAM = 'EFGE_ELNO_DEPL',
                     PRECISION = 0.02,
                     NOEUD_CMP = ( 'COMBI',  'QUAD', ),  MAILLE = 'E4',
                     NOEUD = 'N17',   NOM_CMP = 'MFZ',   VALE = 228.34),

                   _F(  RESULTAT = SISM_SPE,  NOM_CHAM = 'EFGE_ELNO_DEPL',
                     PRECISION = 0.02,
                     NOEUD_CMP = ( 'COMBI',  'QUAD', ),  MAILLE = 'E19',
                     NOEUD = 'N17',   NOM_CMP = 'N',     VALE = 295.9),
                   _F(  RESULTAT = SISM_SPE,  NOM_CHAM = 'EFGE_ELNO_DEPL',
                     PRECISION = 0.02,
                     NOEUD_CMP = ( 'COMBI',  'QUAD', ),  MAILLE = 'E19',
                     NOEUD = 'N17',   NOM_CMP = 'VY',    VALE = 638.8),
                   _F(  RESULTAT = SISM_SPE,  NOM_CHAM = 'EFGE_ELNO_DEPL',
                     PRECISION = 0.02,
                     NOEUD_CMP = ( 'COMBI',  'QUAD', ),  MAILLE = 'E19',
                     NOEUD = 'N17',   NOM_CMP = 'VZ',    VALE = 265.4),
                   _F(  RESULTAT = SISM_SPE,  NOM_CHAM = 'EFGE_ELNO_DEPL',
                     PRECISION = 0.02,
                     NOEUD_CMP = ( 'COMBI',  'QUAD', ),  MAILLE = 'E19',
                     NOEUD = 'N17',   NOM_CMP = 'MT',    VALE = .185),
                   _F(  RESULTAT = SISM_SPE,  NOM_CHAM = 'EFGE_ELNO_DEPL',
                     PRECISION = 0.02,
                     NOEUD_CMP = ( 'COMBI',  'QUAD', ),  MAILLE = 'E19',
                     NOEUD = 'N17',   NOM_CMP = 'MFY',   VALE = 32.363),
                   _F(  RESULTAT = SISM_SPE,  NOM_CHAM = 'EFGE_ELNO_DEPL',
                     PRECISION = 0.02,
                     NOEUD_CMP = ( 'COMBI',  'QUAD', ),  MAILLE = 'E19',
                     NOEUD = 'N17',   NOM_CMP = 'MFZ',   VALE = 220.69))
             )

#

SISM_SP1=COMB_SISM_MODAL(  MODE_MECA=MODE_MEC,
                                AMOR_REDUIT=0.02,
                               MASS_INER=TABL_MAS,
                               CORR_FREQ='NON',
                               MODE_CORR=MODE_STA,
                              EXCIT=_F(  MONO_APPUI = 'OUI',
                                      TRI_SPEC = 'OUI',
                                      SPEC_OSCI = ( SPECT_XZ,  SPECT_Y,
                                                   SPECT_XZ, ),
                                      ECHELLE = ( 9.81, 9.81, 9.81, )),
                              COMB_MODE=_F(  TYPE = 'SRSS'),
                              COMB_DIRECTION=_F(  TYPE = 'NEWMARK'),
                               OPTION=( 'DEPL', 
                                        'REAC_NODA',  'EFGE_ELNO_DEPL', )
                             )

TEST_RESU(RESU=( _F(  RESULTAT = SISM_SP1,  NOM_CHAM = 'DEPL',
                     NOEUD_CMP = ( 'COMBI',  'NEWMARK', ), PRECISION = 0.02,
                     NOEUD = 'N17',   NOM_CMP = 'DX',    VALE = 3.4271E-04),
                   _F(  RESULTAT = SISM_SP1,  NOM_CHAM = 'DEPL',
                     NOEUD_CMP = ( 'COMBI',  'NEWMARK', ), PRECISION = 0.02,
                     NOEUD = 'N17',   NOM_CMP = 'DY',    VALE = 4.8393E-06),
                   _F(  RESULTAT = SISM_SP1,  NOM_CHAM = 'DEPL',
                     NOEUD_CMP = ( 'COMBI',  'NEWMARK', ), PRECISION = 0.02,
                     NOEUD = 'N17',   NOM_CMP = 'DZ',    VALE = 3.0329E-04),
                   _F(  RESULTAT = SISM_SP1,  NOM_CHAM = 'DEPL',
                     NOEUD_CMP = ( 'COMBI',  'NEWMARK', ), PRECISION = 0.02,
                     NOEUD = 'N17',   NOM_CMP = 'DRX',   VALE = 3.7618E-04),
                   _F(  RESULTAT = SISM_SP1,  NOM_CHAM = 'DEPL',
                     NOEUD_CMP = ( 'COMBI',  'NEWMARK', ), PRECISION = 0.02,
                     NOEUD = 'N17',   NOM_CMP = 'DRY',   VALE = 5.2609E-05),
                   _F(  RESULTAT = SISM_SP1,  NOM_CHAM = 'DEPL',
                     NOEUD_CMP = ( 'COMBI',  'NEWMARK', ), PRECISION = 0.02,
                     NOEUD = 'N17',   NOM_CMP = 'DRZ',   VALE = 5.2318E-04))
             )

TEST_RESU(RESU=( _F(  RESULTAT = SISM_SP1,  NOM_CHAM = 'REAC_NODA',
                     NOEUD_CMP = ( 'COMBI',  'NEWMARK', ), PRECISION = 0.02,
                     NOEUD = 'N25',   NOM_CMP = 'DX',    VALE = 1279.06),
                   _F(  RESULTAT = SISM_SP1,  NOM_CHAM = 'REAC_NODA',
                     NOEUD_CMP = ( 'COMBI',  'NEWMARK', ), PRECISION = 0.03,
                     NOEUD = 'N25',   NOM_CMP = 'DY',    VALE = 1386.85),
                   _F(  RESULTAT = SISM_SP1,  NOM_CHAM = 'REAC_NODA',
                     NOEUD_CMP = ( 'COMBI',  'NEWMARK', ), PRECISION = 0.02,
                     NOEUD = 'N25',   NOM_CMP = 'DZ',    VALE = 1244.16),
                   _F(  RESULTAT = SISM_SP1,  NOM_CHAM = 'REAC_NODA',
                     NOEUD_CMP = ( 'COMBI',  'NEWMARK', ), PRECISION = 0.02,
                     NOEUD = 'N25',   NOM_CMP = 'DRX',   VALE = 327.91),
                   _F(  RESULTAT = SISM_SP1,  NOM_CHAM = 'REAC_NODA',
                     NOEUD_CMP = ( 'COMBI',  'NEWMARK', ), PRECISION = 0.02,
                     NOEUD = 'N25',   NOM_CMP = 'DRY',   VALE = 4.559),
                   _F(  RESULTAT = SISM_SP1,  NOM_CHAM = 'REAC_NODA',
                     NOEUD_CMP = ( 'COMBI',  'NEWMARK', ), PRECISION = 0.02,
                     NOEUD = 'N25',   NOM_CMP = 'DRZ',   VALE = 352.01))
             )

TEST_RESU(RESU=( _F(  RESULTAT = SISM_SP1,  NOM_CHAM = 'EFGE_ELNO_DEPL',
                     PRECISION = 0.02,
                     NOEUD_CMP = ( 'COMBI',  'NEWMARK', ),  MAILLE = 'E3',
                     NOEUD = 'N17',   NOM_CMP = 'N',     VALE = 1379.37),
                   _F(  RESULTAT = SISM_SP1,  NOM_CHAM = 'EFGE_ELNO_DEPL',
                     PRECISION = 0.02,
                     NOEUD_CMP = ( 'COMBI',  'NEWMARK', ),  MAILLE = 'E3',
                     NOEUD = 'N17',   NOM_CMP = 'VY',    VALE = 1148.71),
                   _F(  RESULTAT = SISM_SP1,  NOM_CHAM = 'EFGE_ELNO_DEPL',
                     PRECISION = 0.02,
                     NOEUD_CMP = ( 'COMBI',  'NEWMARK', ),  MAILLE = 'E3',
                     NOEUD = 'N17',   NOM_CMP = 'VZ',    VALE = 1114.14),
                   _F(  RESULTAT = SISM_SP1,  NOM_CHAM = 'EFGE_ELNO_DEPL',
                     PRECISION = 0.02,
                     NOEUD_CMP = ( 'COMBI',  'NEWMARK', ),  MAILLE = 'E3',
                     NOEUD = 'N17',   NOM_CMP = 'MT',    VALE = 4.559),
                   _F(  RESULTAT = SISM_SP1,  NOM_CHAM = 'EFGE_ELNO_DEPL',
                     PRECISION = 0.02,
                     NOEUD_CMP = ( 'COMBI',  'NEWMARK', ),  MAILLE = 'E3',
                     NOEUD = 'N17',   NOM_CMP = 'MFY',   VALE = 229.83),
                   _F(  RESULTAT = SISM_SP1,  NOM_CHAM = 'EFGE_ELNO_DEPL',
                     PRECISION = 0.02,
                     NOEUD_CMP = ( 'COMBI',  'NEWMARK', ),  MAILLE = 'E3',
                     NOEUD = 'N17',   NOM_CMP = 'MFZ',   VALE = 225.38),

                   _F(  RESULTAT = SISM_SP1,  NOM_CHAM = 'EFGE_ELNO_DEPL',
                     PRECISION = 0.02,
                     NOEUD_CMP = ( 'COMBI',  'NEWMARK', ),  MAILLE = 'E4',
                     NOEUD = 'N17',   NOM_CMP = 'N',     VALE = 148.33),
                   _F(  RESULTAT = SISM_SP1,  NOM_CHAM = 'EFGE_ELNO_DEPL',
                     PRECISION = 0.02,
                     NOEUD_CMP = ( 'COMBI',  'NEWMARK', ),  MAILLE = 'E4',
                     NOEUD = 'N17',   NOM_CMP = 'VY',    VALE = 1065.05),
                   _F(  RESULTAT = SISM_SP1,  NOM_CHAM = 'EFGE_ELNO_DEPL',
                     PRECISION = 0.02,
                     NOEUD_CMP = ( 'COMBI',  'NEWMARK', ),  MAILLE = 'E4',
                     NOEUD = 'N17',   NOM_CMP = 'VZ',    VALE = 200.79),
                   _F(  RESULTAT = SISM_SP1,  NOM_CHAM = 'EFGE_ELNO_DEPL',
                     PRECISION = 0.14,
                     NOEUD_CMP = ( 'COMBI',  'NEWMARK', ),  MAILLE = 'E4',
                     NOEUD = 'N17',   NOM_CMP = 'MT',    VALE = .164),
                   _F(  RESULTAT = SISM_SP1,  NOM_CHAM = 'EFGE_ELNO_DEPL',
                     PRECISION = 0.02,
                     NOEUD_CMP = ( 'COMBI',  'NEWMARK', ),  MAILLE = 'E4',
                     NOEUD = 'N17',   NOM_CMP = 'MFY',   VALE = 32.49),
                   _F(  RESULTAT = SISM_SP1,  NOM_CHAM = 'EFGE_ELNO_DEPL',
                     PRECISION = 0.02,
                     NOEUD_CMP = ( 'COMBI',  'NEWMARK', ),  MAILLE = 'E4',
                     NOEUD = 'N17',   NOM_CMP = 'MFZ',   VALE = 229.77),

                   _F(  RESULTAT = SISM_SP1,  NOM_CHAM = 'EFGE_ELNO_DEPL',
                     PRECISION = 0.02,
                     NOEUD_CMP = ( 'COMBI',  'NEWMARK', ),  MAILLE = 'E19',
                     NOEUD = 'N17',   NOM_CMP = 'N',     VALE = 335.8),
                   _F(  RESULTAT = SISM_SP1,  NOM_CHAM = 'EFGE_ELNO_DEPL',
                     PRECISION = 0.02,
                     NOEUD_CMP = ( 'COMBI',  'NEWMARK', ),  MAILLE = 'E19',
                     NOEUD = 'N17',   NOM_CMP = 'VY',    VALE = 675.29),
                   _F(  RESULTAT = SISM_SP1,  NOM_CHAM = 'EFGE_ELNO_DEPL',
                     PRECISION = 0.02,
                     NOEUD_CMP = ( 'COMBI',  'NEWMARK', ),  MAILLE = 'E19',
                     NOEUD = 'N17',   NOM_CMP = 'VZ',    VALE = 279.48),
                   _F(  RESULTAT = SISM_SP1,  NOM_CHAM = 'EFGE_ELNO_DEPL',
                     PRECISION = 0.02,
                     NOEUD_CMP = ( 'COMBI',  'NEWMARK', ),  MAILLE = 'E19',
                     NOEUD = 'N17',   NOM_CMP = 'MT',    VALE = .185),
                   _F(  RESULTAT = SISM_SP1,  NOM_CHAM = 'EFGE_ELNO_DEPL',
                     PRECISION = 0.02,
                     NOEUD_CMP = ( 'COMBI',  'NEWMARK', ),  MAILLE = 'E19',
                     NOEUD = 'N17',   NOM_CMP = 'MFY',   VALE = 35.57),
                   _F(  RESULTAT = SISM_SP1,  NOM_CHAM = 'EFGE_ELNO_DEPL',
                     PRECISION = 0.02,
                     NOEUD_CMP = ( 'COMBI',  'NEWMARK', ),  MAILLE = 'E19',
                     NOEUD = 'N17',   NOM_CMP = 'MFZ',   VALE = 225.36))
                   )

FIN( )
#
