# TITRE CALCUL MODAL D'UN ARBRE A SECTION CIRCULAIRE VARIABLE
# ======================================================================
# COPYRIGHT (C) 1991 - 2015  EDF R&D                  WWW.CODE-ASTER.ORG
# THIS PROGRAM IS FREE SOFTWARE; YOU CAN REDISTRIBUTE IT AND/OR MODIFY  
# IT UNDER THE TERMS OF THE GNU GENERAL PUBLIC LICENSE AS PUBLISHED BY  
# THE FREE SOFTWARE FOUNDATION; EITHER VERSION 2 OF THE LICENSE, OR     
# (AT YOUR OPTION) ANY LATER VERSION.                                                    
#                                                                       
# THIS PROGRAM IS DISTRIBUTED IN THE HOPE THAT IT WILL BE USEFUL, BUT   
# WITHOUT ANY WARRANTY; WITHOUT EVEN THE IMPLIED WARRANTY OF            
# MERCHANTABILITY OR FITNESS FOR A PARTICULAR PURPOSE. SEE THE GNU      
# GENERAL PUBLIC LICENSE FOR MORE DETAILS.                              
#                                                                       
# YOU SHOULD HAVE RECEIVED A COPY OF THE GNU GENERAL PUBLIC LICENSE     
# ALONG WITH THIS PROGRAM; IF NOT, WRITE TO EDF R&D CODE_ASTER,         
#    1 AVENUE DU GENERAL DE GAULLE, 92141 CLAMART CEDEX, FRANCE.        
# ======================================================================
# CAS_TEST__:SDLL127A
#

DEBUT(CODE=_F(
              NIV_PUB_WEB='INTERNET',
              VISU_EFICAS='OUI',),
              DEBUG=_F(SDVERI='OUI'),);

MAIL=LIRE_MAILLAGE(FORMAT='MED',)

IMPR_RESU(RESU=_F(MAILLAGE=MAIL))

MODELE=AFFE_MODELE(MAILLAGE=MAIL,
                   AFFE=_F(GROUP_MA='ROTOR',
                           PHENOMENE='MECANIQUE',
                           MODELISATION='POU_D_T',),
                  );

# ---------------------
# DEFINITION DU MATERIAU
# ---------------------
ACIER=DEFI_MATERIAU(ELAS=_F(E=2.0E11,
                            NU=0.3,
                            RHO=7800.0,),);

# -----------------------
# AFFECTATION DU MATERIAU
# -----------------------
CHMAT=AFFE_MATERIAU(MAILLAGE=MAIL,
                    AFFE=(_F(GROUP_MA='ROTOR',
                            MATER=ACIER,),))

# --------------------------------
# DEF DES SECTIONS et des RAIDEURS
# --------------------------------
CARELEM=AFFE_CARA_ELEM(INFO=1,
                       MODELE=MODELE,
                       POUTRE=(_F(GROUP_MA='ROTOR',
                                  SECTION='CERCLE',
                                  VARI_SECT = 'HOMOTHETIQUE',
                                  CARA = ('R_DEBUT', 'R_FIN', 'EP_DEBUT', 'EP_FIN',),
                                  VALE = (0.1, 0.05, 0.02, 0.02,),),
                              ),
                        );
                                 
# ------------------
# CONDITIONS AUX LIMITES
# ------------------
BLOQUAGE=AFFE_CHAR_MECA(MODELE=MODELE,
                        DDL_IMPO=(_F(GROUP_NO=('PALIER_A','PALIER_E'),
                                     DX=0., DY=0., DZ=0., DRX=0.),
                                   ))

# --------------------------------
# MATRICES ASSEMBLEES K, M
# --------------------------------                                    
ASSEMBLAGE(MODELE=MODELE,
                CHAM_MATER=CHMAT,
                CARA_ELEM=CARELEM,
                CHARGE=BLOQUAGE,
                NUME_DDL=CO('NUMEDDL'),
                MATR_ASSE=(_F(MATRICE=CO('RIGIDITE'),
                              OPTION='RIGI_MECA',),
                           _F(MATRICE=CO('MASSE'),
                              OPTION='MASS_MECA',),
                           _F(MATRICE=CO('AMOR'),
                              OPTION='AMOR_MECA',),),);

GYELEM=CALC_MATR_ELEM(OPTION='MECA_GYRO',
                      MODELE=MODELE,
                      CHAM_MATER=CHMAT,
                      CARA_ELEM=CARELEM,);

GYASS=ASSE_MATRICE(MATR_ELEM=GYELEM,
                   NUME_DDL=NUMEDDL,);

MODES=CALC_MODES(MATR_RIGI=RIGIDITE,
                 OPTION='BANDE',
                 CALC_FREQ=_F(FREQ=(3.,4750.),
                              ),
                 MATR_MASS=MASSE,
                 )
                                               
TEST_RESU(RESU=(_F(NUME_ORDRE=1,
                   PARA='FREQ',
                   REFERENCE='AUTRE_ASTER',
                   RESULTAT=MODES,
                   VALE_CALC=331.98199413,
                   VALE_REFE=332.13999999999999,
                   PRECISION=1.E-2,),
                _F(NUME_ORDRE=2,
                   PARA='FREQ',
                   REFERENCE='AUTRE_ASTER',
                   RESULTAT=MODES,
                   VALE_CALC=331.981994132,
                   VALE_REFE=332.13999999999999,
                   PRECISION=1.E-2,),
                _F(NUME_ORDRE=3,
                   PARA='FREQ',
                   REFERENCE='AUTRE_ASTER',
                   RESULTAT=MODES,
                   VALE_CALC=1190.63288775,
                   VALE_REFE=1193.8099999999999,
                   PRECISION=1.E-2,),
                _F(NUME_ORDRE=4,
                   PARA='FREQ',
                   REFERENCE='AUTRE_ASTER',
                   RESULTAT=MODES,
                   VALE_CALC=1190.63288775,
                   VALE_REFE=1193.8099999999999,
                   PRECISION=1.E-2,),
                _F(NUME_ORDRE=5,
                   PARA='FREQ',
                   REFERENCE='AUTRE_ASTER',
                   RESULTAT=MODES,
                   VALE_CALC=1607.17823417,
                   VALE_REFE=1607.1900000000001,
                   PRECISION=1.E-2,),
                _F(NUME_ORDRE=6,
                   PARA='FREQ',
                   REFERENCE='AUTRE_ASTER',
                   RESULTAT=MODES,
                   VALE_CALC=2280.84789802,
                   VALE_REFE=2291.5100000000002,
                   PRECISION=1.E-2,),
                _F(NUME_ORDRE=7,
                   PARA='FREQ',
                   REFERENCE='AUTRE_ASTER',
                   RESULTAT=MODES,
                   VALE_CALC=2280.84789802,
                   VALE_REFE=2291.5100000000002,
                   PRECISION=1.E-2,),
                _F(NUME_ORDRE=8,
                   PARA='FREQ',
                   REFERENCE='AUTRE_ASTER',
                   RESULTAT=MODES,
                   VALE_CALC=2511.69105314,
                   VALE_REFE=2512.2199999999998,
                   PRECISION=1.E-2,),
                _F(NUME_ORDRE=9,
                   PARA='FREQ',
                   REFERENCE='AUTRE_ASTER',
                   RESULTAT=MODES,
                   VALE_CALC= 3160.7604231,
                   VALE_REFE=3160.3899999999999,
                   PRECISION=1.E-2,),
                _F(NUME_ORDRE=10,
                   PARA='FREQ',
                   REFERENCE='AUTRE_ASTER',
                   RESULTAT=MODES,
                   VALE_CALC=3463.0201613,
                   VALE_REFE=3520.23,
                   PRECISION=0.02,),
                _F(NUME_ORDRE=11,
                   PARA='FREQ',
                   REFERENCE='AUTRE_ASTER',
                   RESULTAT=MODES,
                   VALE_CALC=3463.02016138,
                   VALE_REFE=3520.23,
                   PRECISION=0.02,),
                _F(NUME_ORDRE=12,
                   PARA='FREQ',
                   REFERENCE='AUTRE_ASTER',
                   RESULTAT=MODES,
                   VALE_CALC=4674.57036396,
                   VALE_REFE=4724.1400000000003,
                   PRECISION=1.1E-2,),
                ),
          )

OM=4000.*pi/30.

GYOM=COMB_MATR_ASSE(COMB_R=(_F(MATR_ASSE=GYASS, COEF_R=OM,),
                            _F(MATR_ASSE=AMOR, COEF_R=1.,),))

PROJ_BASE(BASE=MODES,
          STOCKAGE='PLEIN',
          MATR_ASSE_GENE=(_F(MATRICE=CO('MAGE'),
                             MATR_ASSE=MASSE,),
                          _F(MATRICE=CO('RIGE'),
                             MATR_ASSE=RIGIDITE,),
                          _F(MATRICE=CO('OMGE'),
                             MATR_ASSE=GYOM,),),);

MOD2ETAG=CALC_MODES(MATR_RIGI=RIGE,
                    VERI_MODE=_F(SEUIL=2.E-6,
                                 ),
                    OPTION='TOUT',
                    MATR_AMOR=OMGE,
                    MATR_MASS=MAGE,
                    SOLVEUR_MODAL=_F(METHODE='QZ',
                                     ),
                    )

TEST_RESU(RESU=(_F(NUME_ORDRE=1,
                   PARA='FREQ',
                   RESULTAT=MOD2ETAG,
                   VALE_CALC=330.699560957,
                   CRITERE='RELATIF',
                   ),
                _F(NUME_ORDRE=2,
                   PARA='FREQ',
                   RESULTAT=MOD2ETAG,
                   VALE_CALC=333.269158582,
                   CRITERE='RELATIF',
                   ),
                _F(NUME_ORDRE=3,
                   PARA='FREQ',
                   RESULTAT=MOD2ETAG,
                   VALE_CALC=1187.86007724,
                   CRITERE='RELATIF',
                   ),
                _F(NUME_ORDRE=4,
                   PARA='FREQ',
                   RESULTAT=MOD2ETAG,
                   VALE_CALC=1193.41283962,
                   CRITERE='RELATIF',
                   ),
                _F(NUME_ORDRE=5,
                   PARA='FREQ',
                   RESULTAT=MOD2ETAG,
                   VALE_CALC=1607.17823235,
                   CRITERE='RELATIF',
                   ),
                _F(NUME_ORDRE=6,
                   PARA='FREQ',
                   RESULTAT=MOD2ETAG,
                   VALE_CALC=2277.40152882,
                   CRITERE='RELATIF',
                   ),
                _F(NUME_ORDRE=7,
                   PARA='FREQ',
                   RESULTAT=MOD2ETAG,
                   VALE_CALC=2284.29980354,
                   CRITERE='RELATIF',
                   ),
                _F(NUME_ORDRE=8,
                   PARA='FREQ',
                   RESULTAT=MOD2ETAG,
                   VALE_CALC=2511.69105326,
                   CRITERE='RELATIF',
                   ),
                _F(NUME_ORDRE=9,
                   PARA='FREQ',
                   RESULTAT=MOD2ETAG,
                   VALE_CALC=3160.76041303,
                   CRITERE='RELATIF',
                   ),
                _F(NUME_ORDRE=10,
                   PARA='FREQ',
                   RESULTAT=MOD2ETAG,
                   VALE_CALC=3459.57105924,
                   CRITERE='RELATIF',
                   ),
                _F(NUME_ORDRE=11,
                   PARA='FREQ',
                   RESULTAT=MOD2ETAG,
                   VALE_CALC=3466.47274419,

                   CRITERE='RELATIF',
                   ),
                _F(NUME_ORDRE=12,
                   PARA='FREQ',
                   RESULTAT=MOD2ETAG,
                   VALE_CALC=4671.39817762,
                   CRITERE='RELATIF',
                   ),
                ),
          )

FIN()
