# TITRE POUTRE DE SECTION RECTANGULAIRE VARIABLE (ENCASTREE-ENCASTREE)
# ======================================================================
# COPYRIGHT (C) 1991 - 2012  EDF R&D                  WWW.CODE-ASTER.ORG
# THIS PROGRAM IS FREE SOFTWARE; YOU CAN REDISTRIBUTE IT AND/OR MODIFY
# IT UNDER THE TERMS OF THE GNU GENERAL PUBLIC LICENSE AS PUBLISHED BY
# THE FREE SOFTWARE FOUNDATION; EITHER VERSION 2 OF THE LICENSE, OR
# (AT YOUR OPTION) ANY LATER VERSION.
#
# THIS PROGRAM IS DISTRIBUTED IN THE HOPE THAT IT WILL BE USEFUL, BUT
# WITHOUT ANY WARRANTY; WITHOUT EVEN THE IMPLIED WARRANTY OF
# MERCHANTABILITY OR FITNESS FOR A PARTICULAR PURPOSE. SEE THE GNU
# GENERAL PUBLIC LICENSE FOR MORE DETAILS.
#
# YOU SHOULD HAVE RECEIVED A COPY OF THE GNU GENERAL PUBLIC LICENSE
# ALONG WITH THIS PROGRAM; IF NOT, WRITE TO EDF R&D CODE_ASTER,
#    1 AVENUE DU GENERAL DE GAULLE, 92141 CLAMART CEDEX, FRANCE.
# ======================================================================
#CAS_TEST__: SDLL10A
# SDLL10/A                 COMMANDES                             5/03/91
# POUTRE ELANCEE DE SECTION RECTANGULAIRE VARIABLE (ENCASTREE-ENCASTREE)
# VAR. EXPON. DE LA LARGEUR DE LA SECTION (H=0.01; B0=0.03 VARIABLE)
#                                                   REF: SFM.VPCS SDLL10
# MODELISATION POU_D_T: 12 MAILLES SEG2
# POINTS   A=N1     B=N13
#----------------------------------------------------------------------


DEBUT(CODE=_F(NOM='SDLL10A',NIV_PUB_WEB='INTERNET'),DEBUG=_F(SDVERI='OUI'))

MA=LIRE_MAILLAGE(FORMAT='MED', )

MA=DEFI_GROUP( reuse=MA,   MAILLAGE=MA,
  CREA_GROUP_MA=_F(  NOM = 'TOUT', TOUT = 'OUI'))

MO=AFFE_MODELE(  MAILLAGE=MA,
                  AFFE=_F(  TOUT = 'OUI',    PHENOMENE = 'MECANIQUE',
                         MODELISATION = 'POU_D_T') )

MAT=DEFI_MATERIAU( ELAS=_F(  E = 2.0E+11,  NU = 0.3,  RHO = 7800.) )

CHMAT=AFFE_MATERIAU(  MAILLAGE=MA,
                       AFFE=_F(  TOUT = 'OUI',  MATER = MAT) )

# --------- PB PLAN + NOEUDS 'A ET B' ENCASTRES
#
CH=AFFE_CHAR_MECA(  MODELE=MO,DDL_IMPO=(
          _F(  TOUT = 'OUI',          DZ = 0., DRX = 0., DRY = 0.),
                 _F(  NOEUD = ( 'N1', 'N121',),  DX = 0., DY = 0.,  DRZ = 0.)) )

#  -----------------------------------------------------------------
#  DEFINITION DES SECTIONS
#  -----------------------------------------------------------------


CELEM=AFFE_CARA_ELEM(   MODELE=MO,
           POUTRE=(
 _F(  MAILLE = 'E1',
      SECTION = 'GENERALE', VARI_SECT = 'HOMOTHETIQUE',
      CARA = ( 'A1' ,  'IZ1',  'A2' ,  'IZ2',
               'AY1',  'AZ1',  'AY2',  'AZ2',
               'IY1',  'JX1',  'IY2',  'JX2',  ),
      VALE = (     3.0000000000000E-04,    2.5000000000000E-09,
                    2.9701494991452E-04,    2.4751245826210E-09,
                     1.2,    1.2,    1.2,    1.2,
                      1.,     1.,     1.,     1., )),
 _F(  MAILLE = 'E2',
      SECTION = 'GENERALE', VARI_SECT = 'HOMOTHETIQUE',
      CARA = ( 'A1' ,  'IZ1',  'A2' ,  'IZ2',
               'AY1',  'AZ1',  'AY2',  'AZ2',
               'IY1',  'JX1',  'IY2',  'JX2',  ),
      VALE = (     2.9701494991452E-04,    2.4751245826210E-09,
                    2.9405960157575E-04,    2.4504966797979E-09,
                     1.2,    1.2,    1.2,    1.2,
                      1.,     1.,     1.,     1., )),
 _F(  MAILLE = 'E3',
      SECTION = 'GENERALE', VARI_SECT = 'HOMOTHETIQUE',
      CARA = ( 'A1' ,  'IZ1',  'A2' ,  'IZ2',
               'AY1',  'AZ1',  'AY2',  'AZ2',
               'IY1',  'JX1',  'IY2',  'JX2',  ),
      VALE = (     2.9405960157575E-04,    2.4504966797979E-09,
                    2.9113365944635E-04,    2.4261138287196E-09,
                     1.2,    1.2,    1.2,    1.2,
                      1.,     1.,     1.,     1., )),
 _F(  MAILLE = 'E4',
      SECTION = 'GENERALE', VARI_SECT = 'HOMOTHETIQUE',
      CARA = ( 'A1' ,  'IZ1',  'A2' ,  'IZ2',
               'AY1',  'AZ1',  'AY2',  'AZ2',
               'IY1',  'JX1',  'IY2',  'JX2',  ),
      VALE = (     2.9113365944635E-04,    2.4261138287196E-09,
                    2.8823683092963E-04,    2.4019735910803E-09,
                     1.2,    1.2,    1.2,    1.2,
                      1.,     1.,     1.,     1., )),
 _F(  MAILLE = 'E5',
      SECTION = 'GENERALE', VARI_SECT = 'HOMOTHETIQUE',
      CARA = ( 'A1' ,  'IZ1',  'A2' ,  'IZ2',
               'AY1',  'AZ1',  'AY2',  'AZ2',
               'IY1',  'JX1',  'IY2',  'JX2',  ),
      VALE = (     2.8823683092963E-04,    2.4019735910803E-09,
                    2.8536882634029E-04,    2.3780735528357E-09,
                     1.2,    1.2,    1.2,    1.2,
                      1.,     1.,     1.,     1., )),
 _F(  MAILLE = 'E6',
      SECTION = 'GENERALE', VARI_SECT = 'HOMOTHETIQUE',
      CARA = ( 'A1' ,  'IZ1',  'A2' ,  'IZ2',
               'AY1',  'AZ1',  'AY2',  'AZ2',
               'IY1',  'JX1',  'IY2',  'JX2',  ),
      VALE = (     2.8536882634029E-04,    2.3780735528357E-09,
                    2.8252935887542E-04,    2.3544113239618E-09,
                     1.2,    1.2,    1.2,    1.2,
                      1.,     1.,     1.,     1., )),
 _F(  MAILLE = 'E7',
      SECTION = 'GENERALE', VARI_SECT = 'HOMOTHETIQUE',
      CARA = ( 'A1' ,  'IZ1',  'A2' ,  'IZ2',
               'AY1',  'AZ1',  'AY2',  'AZ2',
               'IY1',  'JX1',  'IY2',  'JX2',  ),
      VALE = (     2.8252935887542E-04,    2.3544113239618E-09,
                    2.7971814458588E-04,    2.3309845382157E-09,
                     1.2,    1.2,    1.2,    1.2,
                      1.,     1.,     1.,     1., )),
 _F(  MAILLE = 'E8',
      SECTION = 'GENERALE', VARI_SECT = 'HOMOTHETIQUE',
      CARA = ( 'A1' ,  'IZ1',  'A2' ,  'IZ2',
               'AY1',  'AZ1',  'AY2',  'AZ2',
               'IY1',  'JX1',  'IY2',  'JX2',  ),
      VALE = (     2.7971814458588E-04,    2.3309845382157E-09,
                    2.7693490234786E-04,    2.3077908528989E-09,
                     1.2,    1.2,    1.2,    1.2,
                      1.,     1.,     1.,     1., )),
 _F(  MAILLE = 'E9',
      SECTION = 'GENERALE', VARI_SECT = 'HOMOTHETIQUE',
      CARA = ( 'A1' ,  'IZ1',  'A2' ,  'IZ2',
               'AY1',  'AZ1',  'AY2',  'AZ2',
               'IY1',  'JX1',  'IY2',  'JX2',  ),
      VALE = (     2.7693490234786E-04,    2.3077908528989E-09,
                    2.7417935383478E-04,    2.2848279486232E-09,
                     1.2,    1.2,    1.2,    1.2,
                      1.,     1.,     1.,     1., )),
 _F(  MAILLE = 'E10',
      SECTION = 'GENERALE', VARI_SECT = 'HOMOTHETIQUE',
      CARA = ( 'A1' ,  'IZ1',  'A2' ,  'IZ2',
               'AY1',  'AZ1',  'AY2',  'AZ2',
               'IY1',  'JX1',  'IY2',  'JX2',  ),
      VALE = (     2.7417935383478E-04,    2.2848279486232E-09,
                    2.7145122348944E-04,    2.2620935290787E-09,
                     1.2,    1.2,    1.2,    1.2,
                      1.,     1.,     1.,     1., )),
 _F(  MAILLE = 'E11',
      SECTION = 'GENERALE', VARI_SECT = 'HOMOTHETIQUE',
      CARA = ( 'A1' ,  'IZ1',  'A2' ,  'IZ2',
               'AY1',  'AZ1',  'AY2',  'AZ2',
               'IY1',  'JX1',  'IY2',  'JX2',  ),
      VALE = (     2.7145122348944E-04,    2.2620935290787E-09,
                    2.6875023849651E-04,    2.2395853208042E-09,
                     1.2,    1.2,    1.2,    1.2,
                      1.,     1.,     1.,     1., )),
 _F(  MAILLE = 'E12',
      SECTION = 'GENERALE', VARI_SECT = 'HOMOTHETIQUE',
      CARA = ( 'A1' ,  'IZ1',  'A2' ,  'IZ2',
               'AY1',  'AZ1',  'AY2',  'AZ2',
               'IY1',  'JX1',  'IY2',  'JX2',  ),
      VALE = (     2.6875023849651E-04,    2.2395853208042E-09,
                    2.6607612875519E-04,    2.2173010729599E-09,
                     1.2,    1.2,    1.2,    1.2,
                      1.,     1.,     1.,     1., )),
 _F(  MAILLE = 'E13',
      SECTION = 'GENERALE', VARI_SECT = 'HOMOTHETIQUE',
      CARA = ( 'A1' ,  'IZ1',  'A2' ,  'IZ2',
               'AY1',  'AZ1',  'AY2',  'AZ2',
               'IY1',  'JX1',  'IY2',  'JX2',  ),
      VALE = (     2.6607612875519E-04,    2.2173010729599E-09,
                    2.6342862685224E-04,    2.1952385571020E-09,
                     1.2,    1.2,    1.2,    1.2,
                      1.,     1.,     1.,     1., )),
 _F(  MAILLE = 'E14',
      SECTION = 'GENERALE', VARI_SECT = 'HOMOTHETIQUE',
      CARA = ( 'A1' ,  'IZ1',  'A2' ,  'IZ2',
               'AY1',  'AZ1',  'AY2',  'AZ2',
               'IY1',  'JX1',  'IY2',  'JX2',  ),
      VALE = (     2.6342862685224E-04,    2.1952385571020E-09,
                    2.6080746803523E-04,    2.1733955669602E-09,
                     1.2,    1.2,    1.2,    1.2,
                      1.,     1.,     1.,     1., )),
 _F(  MAILLE = 'E15',
      SECTION = 'GENERALE', VARI_SECT = 'HOMOTHETIQUE',
      CARA = ( 'A1' ,  'IZ1',  'A2' ,  'IZ2',
               'AY1',  'AZ1',  'AY2',  'AZ2',
               'IY1',  'JX1',  'IY2',  'JX2',  ),
      VALE = (     2.6080746803523E-04,    2.1733955669602E-09,
                    2.5821239018606E-04,    2.1517699182171E-09,
                     1.2,    1.2,    1.2,    1.2,
                      1.,     1.,     1.,     1., )),
 _F(  MAILLE = 'E16',
      SECTION = 'GENERALE', VARI_SECT = 'HOMOTHETIQUE',
      CARA = ( 'A1' ,  'IZ1',  'A2' ,  'IZ2',
               'AY1',  'AZ1',  'AY2',  'AZ2',
               'IY1',  'JX1',  'IY2',  'JX2',  ),
      VALE = (     2.5821239018606E-04,    2.1517699182171E-09,
                    2.5564313379473E-04,    2.1303594482895E-09,
                     1.2,    1.2,    1.2,    1.2,
                      1.,     1.,     1.,     1., )),
 _F(  MAILLE = 'E17',
      SECTION = 'GENERALE', VARI_SECT = 'HOMOTHETIQUE',
      CARA = ( 'A1' ,  'IZ1',  'A2' ,  'IZ2',
               'AY1',  'AZ1',  'AY2',  'AZ2',
               'IY1',  'JX1',  'IY2',  'JX2',  ),
      VALE = (     2.5564313379473E-04,    2.1303594482895E-09,
                    2.5309944193345E-04,    2.1091620161121E-09,
                     1.2,    1.2,    1.2,    1.2,
                      1.,     1.,     1.,     1., )),
 _F(  MAILLE = 'E18',
      SECTION = 'GENERALE', VARI_SECT = 'HOMOTHETIQUE',
      CARA = ( 'A1' ,  'IZ1',  'A2' ,  'IZ2',
               'AY1',  'AZ1',  'AY2',  'AZ2',
               'IY1',  'JX1',  'IY2',  'JX2',  ),
      VALE = (     2.5309944193345E-04,    2.1091620161121E-09,
                    2.5058106023086E-04,    2.0881755019238E-09,
                     1.2,    1.2,    1.2,    1.2,
                      1.,     1.,     1.,     1., )),
 _F(  MAILLE = 'E19',
      SECTION = 'GENERALE', VARI_SECT = 'HOMOTHETIQUE',
      CARA = ( 'A1' ,  'IZ1',  'A2' ,  'IZ2',
               'AY1',  'AZ1',  'AY2',  'AZ2',
               'IY1',  'JX1',  'IY2',  'JX2',  ),
      VALE = (     2.5058106023086E-04,    2.0881755019238E-09,
                    2.4808773684665E-04,    2.0673978070554E-09,
                     1.2,    1.2,    1.2,    1.2,
                      1.,     1.,     1.,     1., )),
 _F(  MAILLE = 'E20',
      SECTION = 'GENERALE', VARI_SECT = 'HOMOTHETIQUE',
      CARA = ( 'A1' ,  'IZ1',  'A2' ,  'IZ2',
               'AY1',  'AZ1',  'AY2',  'AZ2',
               'IY1',  'JX1',  'IY2',  'JX2',  ),
      VALE = (     2.4808773684665E-04,    2.0673978070554E-09,
                    2.4561922244638E-04,    2.0468268537199E-09,
                     1.2,    1.2,    1.2,    1.2,
                      1.,     1.,     1.,     1., )),
 _F(  MAILLE = 'E21',
      SECTION = 'GENERALE', VARI_SECT = 'HOMOTHETIQUE',
      CARA = ( 'A1' ,  'IZ1',  'A2' ,  'IZ2',
               'AY1',  'AZ1',  'AY2',  'AZ2',
               'IY1',  'JX1',  'IY2',  'JX2',  ),
      VALE = (     2.4561922244638E-04,    2.0468268537199E-09,
                    2.4317527017652E-04,    2.0264605848043E-09,
                     1.2,    1.2,    1.2,    1.2,
                      1.,     1.,     1.,     1., )),
 _F(  MAILLE = 'E22',
      SECTION = 'GENERALE', VARI_SECT = 'HOMOTHETIQUE',
      CARA = ( 'A1' ,  'IZ1',  'A2' ,  'IZ2',
               'AY1',  'AZ1',  'AY2',  'AZ2',
               'IY1',  'JX1',  'IY2',  'JX2',  ),
      VALE = (     2.4317527017652E-04,    2.0264605848043E-09,
                    2.4075563563977E-04,    2.0062969636647E-09,
                     1.2,    1.2,    1.2,    1.2,
                      1.,     1.,     1.,     1., )),
 _F(  MAILLE = 'E23',
      SECTION = 'GENERALE', VARI_SECT = 'HOMOTHETIQUE',
      CARA = ( 'A1' ,  'IZ1',  'A2' ,  'IZ2',
               'AY1',  'AZ1',  'AY2',  'AZ2',
               'IY1',  'JX1',  'IY2',  'JX2',  ),
      VALE = (     2.4075563563977E-04,    2.0062969636647E-09,
                    2.3836007687061E-04,    1.9863339739218E-09,
                     1.2,    1.2,    1.2,    1.2,
                      1.,     1.,     1.,     1., )),
 _F(  MAILLE = 'E24',
      SECTION = 'GENERALE', VARI_SECT = 'HOMOTHETIQUE',
      CARA = ( 'A1' ,  'IZ1',  'A2' ,  'IZ2',
               'AY1',  'AZ1',  'AY2',  'AZ2',
               'IY1',  'JX1',  'IY2',  'JX2',  ),
      VALE = (     2.3836007687061E-04,    1.9863339739218E-09,
                    2.3598835431116E-04,    1.9665696192596E-09,
                     1.2,    1.2,    1.2,    1.2,
                      1.,     1.,     1.,     1., )),
 _F(  MAILLE = 'E25',
      SECTION = 'GENERALE', VARI_SECT = 'HOMOTHETIQUE',
      CARA = ( 'A1' ,  'IZ1',  'A2' ,  'IZ2',
               'AY1',  'AZ1',  'AY2',  'AZ2',
               'IY1',  'JX1',  'IY2',  'JX2',  ),
      VALE = (     2.3598835431116E-04,    1.9665696192596E-09,
                    2.3364023078713E-04,    1.9470019232261E-09,
                     1.2,    1.2,    1.2,    1.2,
                      1.,     1.,     1.,     1., )),
 _F(  MAILLE = 'E26',
      SECTION = 'GENERALE', VARI_SECT = 'HOMOTHETIQUE',
      CARA = ( 'A1' ,  'IZ1',  'A2' ,  'IZ2',
               'AY1',  'AZ1',  'AY2',  'AZ2',
               'IY1',  'JX1',  'IY2',  'JX2',  ),
      VALE = (     2.3364023078713E-04,    1.9470019232261E-09,
                    2.3131547148419E-04,    1.9276289290349E-09,
                     1.2,    1.2,    1.2,    1.2,
                      1.,     1.,     1.,     1., )),
 _F(  MAILLE = 'E27',
      SECTION = 'GENERALE', VARI_SECT = 'HOMOTHETIQUE',
      CARA = ( 'A1' ,  'IZ1',  'A2' ,  'IZ2',
               'AY1',  'AZ1',  'AY2',  'AZ2',
               'IY1',  'JX1',  'IY2',  'JX2',  ),
      VALE = (     2.3131547148419E-04,    1.9276289290349E-09,
                    2.2901384392443E-04,    1.9084486993703E-09,
                     1.2,    1.2,    1.2,    1.2,
                      1.,     1.,     1.,     1., )),
 _F(  MAILLE = 'E28',
      SECTION = 'GENERALE', VARI_SECT = 'HOMOTHETIQUE',
      CARA = ( 'A1' ,  'IZ1',  'A2' ,  'IZ2',
               'AY1',  'AZ1',  'AY2',  'AZ2',
               'IY1',  'JX1',  'IY2',  'JX2',  ),
      VALE = (     2.2901384392443E-04,    1.9084486993703E-09,
                    2.2673511794316E-04,    1.8894593161930E-09,
                     1.2,    1.2,    1.2,    1.2,
                      1.,     1.,     1.,     1., )),
 _F(  MAILLE = 'E29',
      SECTION = 'GENERALE', VARI_SECT = 'HOMOTHETIQUE',
      CARA = ( 'A1' ,  'IZ1',  'A2' ,  'IZ2',
               'AY1',  'AZ1',  'AY2',  'AZ2',
               'IY1',  'JX1',  'IY2',  'JX2',  ),
      VALE = (     2.2673511794316E-04,    1.8894593161930E-09,
                    2.2447906566583E-04,    1.8706588805486E-09,
                     1.2,    1.2,    1.2,    1.2,
                      1.,     1.,     1.,     1., )),
 _F(  MAILLE = 'E30',
      SECTION = 'GENERALE', VARI_SECT = 'HOMOTHETIQUE',
      CARA = ( 'A1' ,  'IZ1',  'A2' ,  'IZ2',
               'AY1',  'AZ1',  'AY2',  'AZ2',
               'IY1',  'JX1',  'IY2',  'JX2',  ),
      VALE = (     2.2447906566583E-04,    1.8706588805486E-09,
                    2.2224546148532E-04,    1.8520455123777E-09,
                     1.2,    1.2,    1.2,    1.2,
                      1.,     1.,     1.,     1., )),
 _F(  MAILLE = 'E31',
      SECTION = 'GENERALE', VARI_SECT = 'HOMOTHETIQUE',
      CARA = ( 'A1' ,  'IZ1',  'A2' ,  'IZ2',
               'AY1',  'AZ1',  'AY2',  'AZ2',
               'IY1',  'JX1',  'IY2',  'JX2',  ),
      VALE = (     2.2224546148532E-04,    1.8520455123777E-09,
                    2.2003408203931E-04,    1.8336173503276E-09,
                     1.2,    1.2,    1.2,    1.2,
                      1.,     1.,     1.,     1., )),
 _F(  MAILLE = 'E32',
      SECTION = 'GENERALE', VARI_SECT = 'HOMOTHETIQUE',
      CARA = ( 'A1' ,  'IZ1',  'A2' ,  'IZ2',
               'AY1',  'AZ1',  'AY2',  'AZ2',
               'IY1',  'JX1',  'IY2',  'JX2',  ),
      VALE = (     2.2003408203931E-04,    1.8336173503276E-09,
                    2.1784470618798E-04,    1.8153725515665E-09,
                     1.2,    1.2,    1.2,    1.2,
                      1.,     1.,     1.,     1., )),
 _F(  MAILLE = 'E33',
      SECTION = 'GENERALE', VARI_SECT = 'HOMOTHETIQUE',
      CARA = ( 'A1' ,  'IZ1',  'A2' ,  'IZ2',
               'AY1',  'AZ1',  'AY2',  'AZ2',
               'IY1',  'JX1',  'IY2',  'JX2',  ),
      VALE = (     2.1784470618798E-04,    1.8153725515665E-09,
                    2.1567711499188E-04,    1.7973092915990E-09,
                     1.2,    1.2,    1.2,    1.2,
                      1.,     1.,     1.,     1., )),
 _F(  MAILLE = 'E34',
      SECTION = 'GENERALE', VARI_SECT = 'HOMOTHETIQUE',
      CARA = ( 'A1' ,  'IZ1',  'A2' ,  'IZ2',
               'AY1',  'AZ1',  'AY2',  'AZ2',
               'IY1',  'JX1',  'IY2',  'JX2',  ),
      VALE = (     2.1567711499188E-04,    1.7973092915990E-09,
                    2.1353109169008E-04,    1.7794257640840E-09,
                     1.2,    1.2,    1.2,    1.2,
                      1.,     1.,     1.,     1., )),
 _F(  MAILLE = 'E35',
      SECTION = 'GENERALE', VARI_SECT = 'HOMOTHETIQUE',
      CARA = ( 'A1' ,  'IZ1',  'A2' ,  'IZ2',
               'AY1',  'AZ1',  'AY2',  'AZ2',
               'IY1',  'JX1',  'IY2',  'JX2',  ),
      VALE = (     2.1353109169008E-04,    1.7794257640840E-09,
                    2.1140642167840E-04,    1.7617201806534E-09,
                     1.2,    1.2,    1.2,    1.2,
                      1.,     1.,     1.,     1., )),
 _F(  MAILLE = 'E36',
      SECTION = 'GENERALE', VARI_SECT = 'HOMOTHETIQUE',
      CARA = ( 'A1' ,  'IZ1',  'A2' ,  'IZ2',
               'AY1',  'AZ1',  'AY2',  'AZ2',
               'IY1',  'JX1',  'IY2',  'JX2',  ),
      VALE = (     2.1140642167840E-04,    1.7617201806534E-09,
                    2.0930289248807E-04,    1.7441907707339E-09,
                     1.2,    1.2,    1.2,    1.2,
                      1.,     1.,     1.,     1., )),
 _F(  MAILLE = 'E37',
      SECTION = 'GENERALE', VARI_SECT = 'HOMOTHETIQUE',
      CARA = ( 'A1' ,  'IZ1',  'A2' ,  'IZ2',
               'AY1',  'AZ1',  'AY2',  'AZ2',
               'IY1',  'JX1',  'IY2',  'JX2',  ),
      VALE = (     2.0930289248807E-04,    1.7441907707339E-09,
                    2.0722029376436E-04,    1.7268357813696E-09,
                     1.2,    1.2,    1.2,    1.2,
                      1.,     1.,     1.,     1., )),
 _F(  MAILLE = 'E38',
      SECTION = 'GENERALE', VARI_SECT = 'HOMOTHETIQUE',
      CARA = ( 'A1' ,  'IZ1',  'A2' ,  'IZ2',
               'AY1',  'AZ1',  'AY2',  'AZ2',
               'IY1',  'JX1',  'IY2',  'JX2',  ),
      VALE = (     2.0722029376436E-04,    1.7268357813696E-09,
                    2.0515841724564E-04,    1.7096534770470E-09,
                     1.2,    1.2,    1.2,    1.2,
                      1.,     1.,     1.,     1., )),
 _F(  MAILLE = 'E39',
      SECTION = 'GENERALE', VARI_SECT = 'HOMOTHETIQUE',
      CARA = ( 'A1' ,  'IZ1',  'A2' ,  'IZ2',
               'AY1',  'AZ1',  'AY2',  'AZ2',
               'IY1',  'JX1',  'IY2',  'JX2',  ),
      VALE = (     2.0515841724564E-04,    1.7096534770470E-09,
                    2.0311705674252E-04,    1.6926421395210E-09,
                     1.2,    1.2,    1.2,    1.2,
                      1.,     1.,     1.,     1., )),
 _F(  MAILLE = 'E40',
      SECTION = 'GENERALE', VARI_SECT = 'HOMOTHETIQUE',
      CARA = ( 'A1' ,  'IZ1',  'A2' ,  'IZ2',
               'AY1',  'AZ1',  'AY2',  'AZ2',
               'IY1',  'JX1',  'IY2',  'JX2',  ),
      VALE = (     2.0311705674252E-04,    1.6926421395210E-09,
                    2.0109600811722E-04,    1.6758000676435E-09,
                     1.2,    1.2,    1.2,    1.2,
                      1.,     1.,     1.,     1., )),
 _F(  MAILLE = 'E41',
      SECTION = 'GENERALE', VARI_SECT = 'HOMOTHETIQUE',
      CARA = ( 'A1' ,  'IZ1',  'A2' ,  'IZ2',
               'AY1',  'AZ1',  'AY2',  'AZ2',
               'IY1',  'JX1',  'IY2',  'JX2',  ),
      VALE = (     2.0109600811722E-04,    1.6758000676435E-09,
                    1.9909506926315E-04,    1.6591255771930E-09,
                     1.2,    1.2,    1.2,    1.2,
                      1.,     1.,     1.,     1., )),
 _F(  MAILLE = 'E42',
      SECTION = 'GENERALE', VARI_SECT = 'HOMOTHETIQUE',
      CARA = ( 'A1' ,  'IZ1',  'A2' ,  'IZ2',
               'AY1',  'AZ1',  'AY2',  'AZ2',
               'IY1',  'JX1',  'IY2',  'JX2',  ),
      VALE = (     1.9909506926315E-04,    1.6591255771930E-09,
                    1.9711404008475E-04,    1.6426170007062E-09,
                     1.2,    1.2,    1.2,    1.2,
                      1.,     1.,     1.,     1., )),
 _F(  MAILLE = 'E43',
      SECTION = 'GENERALE', VARI_SECT = 'HOMOTHETIQUE',
      CARA = ( 'A1' ,  'IZ1',  'A2' ,  'IZ2',
               'AY1',  'AZ1',  'AY2',  'AZ2',
               'IY1',  'JX1',  'IY2',  'JX2',  ),
      VALE = (     1.9711404008475E-04,    1.6426170007062E-09,
                    1.9515272247740E-04,    1.6262726873117E-09,
                     1.2,    1.2,    1.2,    1.2,
                      1.,     1.,     1.,     1., )),
 _F(  MAILLE = 'E44',
      SECTION = 'GENERALE', VARI_SECT = 'HOMOTHETIQUE',
      CARA = ( 'A1' ,  'IZ1',  'A2' ,  'IZ2',
               'AY1',  'AZ1',  'AY2',  'AZ2',
               'IY1',  'JX1',  'IY2',  'JX2',  ),
      VALE = (     1.9515272247740E-04,    1.6262726873117E-09,
                    1.9321092030769E-04,    1.6100910025641E-09,
                     1.2,    1.2,    1.2,    1.2,
                      1.,     1.,     1.,     1., )),
 _F(  MAILLE = 'E45',
      SECTION = 'GENERALE', VARI_SECT = 'HOMOTHETIQUE',
      CARA = ( 'A1' ,  'IZ1',  'A2' ,  'IZ2',
               'AY1',  'AZ1',  'AY2',  'AZ2',
               'IY1',  'JX1',  'IY2',  'JX2',  ),
      VALE = (     1.9321092030769E-04,    1.6100910025641E-09,
                    1.9128843939376E-04,    1.5940703282813E-09,
                     1.2,    1.2,    1.2,    1.2,
                      1.,     1.,     1.,     1., )),
 _F(  MAILLE = 'E46',
      SECTION = 'GENERALE', VARI_SECT = 'HOMOTHETIQUE',
      CARA = ( 'A1' ,  'IZ1',  'A2' ,  'IZ2',
               'AY1',  'AZ1',  'AY2',  'AZ2',
               'IY1',  'JX1',  'IY2',  'JX2',  ),
      VALE = (     1.9128843939376E-04,    1.5940703282813E-09,
                    1.8938508748588E-04,    1.5782090623823E-09,
                     1.2,    1.2,    1.2,    1.2,
                      1.,     1.,     1.,     1., )),
 _F(  MAILLE = 'E47',
      SECTION = 'GENERALE', VARI_SECT = 'HOMOTHETIQUE',
      CARA = ( 'A1' ,  'IZ1',  'A2' ,  'IZ2',
               'AY1',  'AZ1',  'AY2',  'AZ2',
               'IY1',  'JX1',  'IY2',  'JX2',  ),
      VALE = (     1.8938508748588E-04,    1.5782090623823E-09,
                    1.8750067424725E-04,    1.5625056187271E-09,
                     1.2,    1.2,    1.2,    1.2,
                      1.,     1.,     1.,     1., )),
 _F(  MAILLE = 'E48',
      SECTION = 'GENERALE', VARI_SECT = 'HOMOTHETIQUE',
      CARA = ( 'A1' ,  'IZ1',  'A2' ,  'IZ2',
               'AY1',  'AZ1',  'AY2',  'AZ2',
               'IY1',  'JX1',  'IY2',  'JX2',  ),
      VALE = (     1.8750067424725E-04,    1.5625056187271E-09,
                    1.8563501123496E-04,    1.5469584269580E-09,
                     1.2,    1.2,    1.2,    1.2,
                      1.,     1.,     1.,     1., )),
 _F(  MAILLE = 'E49',
      SECTION = 'GENERALE', VARI_SECT = 'HOMOTHETIQUE',
      CARA = ( 'A1' ,  'IZ1',  'A2' ,  'IZ2',
               'AY1',  'AZ1',  'AY2',  'AZ2',
               'IY1',  'JX1',  'IY2',  'JX2',  ),
      VALE = (     1.8563501123496E-04,    1.5469584269580E-09,
                    1.8378791188111E-04,    1.5315659323426E-09,
                     1.2,    1.2,    1.2,    1.2,
                      1.,     1.,     1.,     1., )),
 _F(  MAILLE = 'E50',
      SECTION = 'GENERALE', VARI_SECT = 'HOMOTHETIQUE',
      CARA = ( 'A1' ,  'IZ1',  'A2' ,  'IZ2',
               'AY1',  'AZ1',  'AY2',  'AZ2',
               'IY1',  'JX1',  'IY2',  'JX2',  ),
      VALE = (     1.8378791188111E-04,    1.5315659323426E-09,
                    1.8195919147421E-04,    1.5163265956184E-09,
                     1.2,    1.2,    1.2,    1.2,
                      1.,     1.,     1.,     1., )),
 _F(  MAILLE = 'E51',
      SECTION = 'GENERALE', VARI_SECT = 'HOMOTHETIQUE',
      CARA = ( 'A1' ,  'IZ1',  'A2' ,  'IZ2',
               'AY1',  'AZ1',  'AY2',  'AZ2',
               'IY1',  'JX1',  'IY2',  'JX2',  ),
      VALE = (     1.8195919147421E-04,    1.5163265956184E-09,
                    1.8014866714066E-04,    1.5012388928388E-09,
                     1.2,    1.2,    1.2,    1.2,
                      1.,     1.,     1.,     1., )),
 _F(  MAILLE = 'E52',
      SECTION = 'GENERALE', VARI_SECT = 'HOMOTHETIQUE',
      CARA = ( 'A1' ,  'IZ1',  'A2' ,  'IZ2',
               'AY1',  'AZ1',  'AY2',  'AZ2',
               'IY1',  'JX1',  'IY2',  'JX2',  ),
      VALE = (     1.8014866714066E-04,    1.5012388928388E-09,
                    1.7835615782650E-04,    1.4863013152209E-09,
                     1.2,    1.2,    1.2,    1.2,
                      1.,     1.,     1.,     1., )),
 _F(  MAILLE = 'E53',
      SECTION = 'GENERALE', VARI_SECT = 'HOMOTHETIQUE',
      CARA = ( 'A1' ,  'IZ1',  'A2' ,  'IZ2',
               'AY1',  'AZ1',  'AY2',  'AZ2',
               'IY1',  'JX1',  'IY2',  'JX2',  ),
      VALE = (     1.7835615782650E-04,    1.4863013152209E-09,
                    1.7658148427929E-04,    1.4715123689941E-09,
                     1.2,    1.2,    1.2,    1.2,
                      1.,     1.,     1.,     1., )),
 _F(  MAILLE = 'E54',
      SECTION = 'GENERALE', VARI_SECT = 'HOMOTHETIQUE',
      CARA = ( 'A1' ,  'IZ1',  'A2' ,  'IZ2',
               'AY1',  'AZ1',  'AY2',  'AZ2',
               'IY1',  'JX1',  'IY2',  'JX2',  ),
      VALE = (     1.7658148427929E-04,    1.4715123689941E-09,
                    1.7482446903015E-04,    1.4568705752512E-09,
                     1.2,    1.2,    1.2,    1.2,
                      1.,     1.,     1.,     1., )),
 _F(  MAILLE = 'E55',
      SECTION = 'GENERALE', VARI_SECT = 'HOMOTHETIQUE',
      CARA = ( 'A1' ,  'IZ1',  'A2' ,  'IZ2',
               'AY1',  'AZ1',  'AY2',  'AZ2',
               'IY1',  'JX1',  'IY2',  'JX2',  ),
      VALE = (     1.7482446903015E-04,    1.4568705752512E-09,
                    1.7308493637607E-04,    1.4423744698006E-09,
                     1.2,    1.2,    1.2,    1.2,
                      1.,     1.,     1.,     1., )),
 _F(  MAILLE = 'E56',
      SECTION = 'GENERALE', VARI_SECT = 'HOMOTHETIQUE',
      CARA = ( 'A1' ,  'IZ1',  'A2' ,  'IZ2',
               'AY1',  'AZ1',  'AY2',  'AZ2',
               'IY1',  'JX1',  'IY2',  'JX2',  ),
      VALE = (     1.7308493637607E-04,    1.4423744698006E-09,
                    1.7136271236233E-04,    1.4280226030194E-09,
                     1.2,    1.2,    1.2,    1.2,
                      1.,     1.,     1.,     1., )),
 _F(  MAILLE = 'E57',
      SECTION = 'GENERALE', VARI_SECT = 'HOMOTHETIQUE',
      CARA = ( 'A1' ,  'IZ1',  'A2' ,  'IZ2',
               'AY1',  'AZ1',  'AY2',  'AZ2',
               'IY1',  'JX1',  'IY2',  'JX2',  ),
      VALE = (     1.7136271236233E-04,    1.4280226030194E-09,
                    1.6965762476504E-04,    1.4138135397087E-09,
                     1.2,    1.2,    1.2,    1.2,
                      1.,     1.,     1.,     1., )),
 _F(  MAILLE = 'E58',
      SECTION = 'GENERALE', VARI_SECT = 'HOMOTHETIQUE',
      CARA = ( 'A1' ,  'IZ1',  'A2' ,  'IZ2',
               'AY1',  'AZ1',  'AY2',  'AZ2',
               'IY1',  'JX1',  'IY2',  'JX2',  ),
      VALE = (     1.6965762476504E-04,    1.4138135397087E-09,
                    1.6796950307402E-04,    1.3997458589502E-09,
                     1.2,    1.2,    1.2,    1.2,
                      1.,     1.,     1.,     1., )),
 _F(  MAILLE = 'E59',
      SECTION = 'GENERALE', VARI_SECT = 'HOMOTHETIQUE',
      CARA = ( 'A1' ,  'IZ1',  'A2' ,  'IZ2',
               'AY1',  'AZ1',  'AY2',  'AZ2',
               'IY1',  'JX1',  'IY2',  'JX2',  ),
      VALE = (     1.6796950307402E-04,    1.3997458589502E-09,
                    1.6629817847566E-04,    1.3858181539638E-09,
                     1.2,    1.2,    1.2,    1.2,
                      1.,     1.,     1.,     1., )),
 _F(  MAILLE = 'E60',
      SECTION = 'GENERALE', VARI_SECT = 'HOMOTHETIQUE',
      CARA = ( 'A1' ,  'IZ1',  'A2' ,  'IZ2',
               'AY1',  'AZ1',  'AY2',  'AZ2',
               'IY1',  'JX1',  'IY2',  'JX2',  ),
      VALE = (     1.6629817847566E-04,    1.3858181539638E-09,
                    1.6464348383608E-04,    1.3720290319673E-09,
                     1.2,    1.2,    1.2,    1.2,
                      1.,     1.,     1.,     1., )),
 _F(  MAILLE = 'E61',
      SECTION = 'GENERALE', VARI_SECT = 'HOMOTHETIQUE',
      CARA = ( 'A1' ,  'IZ1',  'A2' ,  'IZ2',
               'AY1',  'AZ1',  'AY2',  'AZ2',
               'IY1',  'JX1',  'IY2',  'JX2',  ),
      VALE = (     1.6464348383608E-04,    1.3720290319673E-09,
                    1.6300525368442E-04,    1.3583771140368E-09,
                     1.2,    1.2,    1.2,    1.2,
                      1.,     1.,     1.,     1., )),
 _F(  MAILLE = 'E62',
      SECTION = 'GENERALE', VARI_SECT = 'HOMOTHETIQUE',
      CARA = ( 'A1' ,  'IZ1',  'A2' ,  'IZ2',
               'AY1',  'AZ1',  'AY2',  'AZ2',
               'IY1',  'JX1',  'IY2',  'JX2',  ),
      VALE = (     1.6300525368442E-04,    1.3583771140368E-09,
                    1.6138332419627E-04,    1.3448610349689E-09,
                     1.2,    1.2,    1.2,    1.2,
                      1.,     1.,     1.,     1., )),
 _F(  MAILLE = 'E63',
      SECTION = 'GENERALE', VARI_SECT = 'HOMOTHETIQUE',
      CARA = ( 'A1' ,  'IZ1',  'A2' ,  'IZ2',
               'AY1',  'AZ1',  'AY2',  'AZ2',
               'IY1',  'JX1',  'IY2',  'JX2',  ),
      VALE = (     1.6138332419627E-04,    1.3448610349689E-09,
                    1.5977753317731E-04,    1.3314794431443E-09,
                     1.2,    1.2,    1.2,    1.2,
                      1.,     1.,     1.,     1., )),
 _F(  MAILLE = 'E64',
      SECTION = 'GENERALE', VARI_SECT = 'HOMOTHETIQUE',
      CARA = ( 'A1' ,  'IZ1',  'A2' ,  'IZ2',
               'AY1',  'AZ1',  'AY2',  'AZ2',
               'IY1',  'JX1',  'IY2',  'JX2',  ),
      VALE = (     1.5977753317731E-04,    1.3314794431443E-09,
                    1.5818772004709E-04,    1.3182310003924E-09,
                     1.2,    1.2,    1.2,    1.2,
                      1.,     1.,     1.,     1., )),
 _F(  MAILLE = 'E65',
      SECTION = 'GENERALE', VARI_SECT = 'HOMOTHETIQUE',
      CARA = ( 'A1' ,  'IZ1',  'A2' ,  'IZ2',
               'AY1',  'AZ1',  'AY2',  'AZ2',
               'IY1',  'JX1',  'IY2',  'JX2',  ),
      VALE = (     1.5818772004709E-04,    1.3182310003924E-09,
                    1.5661372582292E-04,    1.3051143818577E-09,
                     1.2,    1.2,    1.2,    1.2,
                      1.,     1.,     1.,     1., )),
 _F(  MAILLE = 'E66',
      SECTION = 'GENERALE', VARI_SECT = 'HOMOTHETIQUE',
      CARA = ( 'A1' ,  'IZ1',  'A2' ,  'IZ2',
               'AY1',  'AZ1',  'AY2',  'AZ2',
               'IY1',  'JX1',  'IY2',  'JX2',  ),
      VALE = (     1.5661372582292E-04,    1.3051143818577E-09,
                    1.5505539310408E-04,    1.2921282758673E-09,
                     1.2,    1.2,    1.2,    1.2,
                      1.,     1.,     1.,     1., )),
 _F(  MAILLE = 'E67',
      SECTION = 'GENERALE', VARI_SECT = 'HOMOTHETIQUE',
      CARA = ( 'A1' ,  'IZ1',  'A2' ,  'IZ2',
               'AY1',  'AZ1',  'AY2',  'AZ2',
               'IY1',  'JX1',  'IY2',  'JX2',  ),
      VALE = (     1.5505539310408E-04,    1.2921282758673E-09,
                    1.5351256605594E-04,    1.2792713837995E-09,
                     1.2,    1.2,    1.2,    1.2,
                      1.,     1.,     1.,     1., )),
 _F(  MAILLE = 'E68',
      SECTION = 'GENERALE', VARI_SECT = 'HOMOTHETIQUE',
      CARA = ( 'A1' ,  'IZ1',  'A2' ,  'IZ2',
               'AY1',  'AZ1',  'AY2',  'AZ2',
               'IY1',  'JX1',  'IY2',  'JX2',  ),
      VALE = (     1.5351256605594E-04,    1.2792713837995E-09,
                    1.5198509039452E-04,    1.2665424199543E-09,
                     1.2,    1.2,    1.2,    1.2,
                      1.,     1.,     1.,     1., )),
 _F(  MAILLE = 'E69',
      SECTION = 'GENERALE', VARI_SECT = 'HOMOTHETIQUE',
      CARA = ( 'A1' ,  'IZ1',  'A2' ,  'IZ2',
               'AY1',  'AZ1',  'AY2',  'AZ2',
               'IY1',  'JX1',  'IY2',  'JX2',  ),
      VALE = (     1.5198509039452E-04,    1.2665424199543E-09,
                    1.5047281337094E-04,    1.2539401114245E-09,
                     1.2,    1.2,    1.2,    1.2,
                      1.,     1.,     1.,     1., )),
 _F(  MAILLE = 'E70',
      SECTION = 'GENERALE', VARI_SECT = 'HOMOTHETIQUE',
      CARA = ( 'A1' ,  'IZ1',  'A2' ,  'IZ2',
               'AY1',  'AZ1',  'AY2',  'AZ2',
               'IY1',  'JX1',  'IY2',  'JX2',  ),
      VALE = (     1.5047281337094E-04,    1.2539401114245E-09,
                    1.4897558375622E-04,    1.2414631979685E-09,
                     1.2,    1.2,    1.2,    1.2,
                      1.,     1.,     1.,     1., )),
 _F(  MAILLE = 'E71',
      SECTION = 'GENERALE', VARI_SECT = 'HOMOTHETIQUE',
      CARA = ( 'A1' ,  'IZ1',  'A2' ,  'IZ2',
               'AY1',  'AZ1',  'AY2',  'AZ2',
               'IY1',  'JX1',  'IY2',  'JX2',  ),
      VALE = (     1.4897558375622E-04,    1.2414631979685E-09,
                    1.4749325182614E-04,    1.2291104318845E-09,
                     1.2,    1.2,    1.2,    1.2,
                      1.,     1.,     1.,     1., )),
 _F(  MAILLE = 'E72',
      SECTION = 'GENERALE', VARI_SECT = 'HOMOTHETIQUE',
      CARA = ( 'A1' ,  'IZ1',  'A2' ,  'IZ2',
               'AY1',  'AZ1',  'AY2',  'AZ2',
               'IY1',  'JX1',  'IY2',  'JX2',  ),
      VALE = (     1.4749325182614E-04,    1.2291104318845E-09,
                    1.4602566934624E-04,    1.2168805778853E-09,
                     1.2,    1.2,    1.2,    1.2,
                      1.,     1.,     1.,     1., )),
 _F(  MAILLE = 'E73',
      SECTION = 'GENERALE', VARI_SECT = 'HOMOTHETIQUE',
      CARA = ( 'A1' ,  'IZ1',  'A2' ,  'IZ2',
               'AY1',  'AZ1',  'AY2',  'AZ2',
               'IY1',  'JX1',  'IY2',  'JX2',  ),
      VALE = (     1.4602566934624E-04,    1.2168805778853E-09,
                    1.4457268955702E-04,    1.2047724129752E-09,
                     1.2,    1.2,    1.2,    1.2,
                      1.,     1.,     1.,     1., )),
 _F(  MAILLE = 'E74',
      SECTION = 'GENERALE', VARI_SECT = 'HOMOTHETIQUE',
      CARA = ( 'A1' ,  'IZ1',  'A2' ,  'IZ2',
               'AY1',  'AZ1',  'AY2',  'AZ2',
               'IY1',  'JX1',  'IY2',  'JX2',  ),
      VALE = (     1.4457268955702E-04,    1.2047724129752E-09,
                    1.4313416715929E-04,    1.1927847263274E-09,
                     1.2,    1.2,    1.2,    1.2,
                      1.,     1.,     1.,     1., )),
 _F(  MAILLE = 'E75',
      SECTION = 'GENERALE', VARI_SECT = 'HOMOTHETIQUE',
      CARA = ( 'A1' ,  'IZ1',  'A2' ,  'IZ2',
               'AY1',  'AZ1',  'AY2',  'AZ2',
               'IY1',  'JX1',  'IY2',  'JX2',  ),
      VALE = (     1.4313416715929E-04,    1.1927847263274E-09,
                    1.4170995829958E-04,    1.1809163191631E-09,
                     1.2,    1.2,    1.2,    1.2,
                      1.,     1.,     1.,     1., )),
 _F(  MAILLE = 'E76',
      SECTION = 'GENERALE', VARI_SECT = 'HOMOTHETIQUE',
      CARA = ( 'A1' ,  'IZ1',  'A2' ,  'IZ2',
               'AY1',  'AZ1',  'AY2',  'AZ2',
               'IY1',  'JX1',  'IY2',  'JX2',  ),
      VALE = (     1.4170995829958E-04,    1.1809163191631E-09,
                    1.4029992055579E-04,    1.1691660046316E-09,
                     1.2,    1.2,    1.2,    1.2,
                      1.,     1.,     1.,     1., )),
 _F(  MAILLE = 'E77',
      SECTION = 'GENERALE', VARI_SECT = 'HOMOTHETIQUE',
      CARA = ( 'A1' ,  'IZ1',  'A2' ,  'IZ2',
               'AY1',  'AZ1',  'AY2',  'AZ2',
               'IY1',  'JX1',  'IY2',  'JX2',  ),
      VALE = (     1.4029992055579E-04,    1.1691660046316E-09,
                    1.3890391292297E-04,    1.1575326076914E-09,
                     1.2,    1.2,    1.2,    1.2,
                      1.,     1.,     1.,     1., )),
 _F(  MAILLE = 'E78',
      SECTION = 'GENERALE', VARI_SECT = 'HOMOTHETIQUE',
      CARA = ( 'A1' ,  'IZ1',  'A2' ,  'IZ2',
               'AY1',  'AZ1',  'AY2',  'AZ2',
               'IY1',  'JX1',  'IY2',  'JX2',  ),
      VALE = (     1.3890391292297E-04,    1.1575326076914E-09,
                    1.3752179579915E-04,    1.1460149649929E-09,
                     1.2,    1.2,    1.2,    1.2,
                      1.,     1.,     1.,     1., )),
 _F(  MAILLE = 'E79',
      SECTION = 'GENERALE', VARI_SECT = 'HOMOTHETIQUE',
      CARA = ( 'A1' ,  'IZ1',  'A2' ,  'IZ2',
               'AY1',  'AZ1',  'AY2',  'AZ2',
               'IY1',  'JX1',  'IY2',  'JX2',  ),
      VALE = (     1.3752179579915E-04,    1.1460149649929E-09,
                    1.3615343097147E-04,    1.1346119247622E-09,
                     1.2,    1.2,    1.2,    1.2,
                      1.,     1.,     1.,     1., )),
 _F(  MAILLE = 'E80',
      SECTION = 'GENERALE', VARI_SECT = 'HOMOTHETIQUE',
      CARA = ( 'A1' ,  'IZ1',  'A2' ,  'IZ2',
               'AY1',  'AZ1',  'AY2',  'AZ2',
               'IY1',  'JX1',  'IY2',  'JX2',  ),
      VALE = (     1.3615343097147E-04,    1.1346119247622E-09,
                    1.3479868160227E-04,    1.1233223466856E-09,
                     1.2,    1.2,    1.2,    1.2,
                      1.,     1.,     1.,     1., )),
 _F(  MAILLE = 'E81',
      SECTION = 'GENERALE', VARI_SECT = 'HOMOTHETIQUE',
      CARA = ( 'A1' ,  'IZ1',  'A2' ,  'IZ2',
               'AY1',  'AZ1',  'AY2',  'AZ2',
               'IY1',  'JX1',  'IY2',  'JX2',  ),
      VALE = (     1.3479868160227E-04,    1.1233223466856E-09,
                    1.3345741221547E-04,    1.1121451017956E-09,
                     1.2,    1.2,    1.2,    1.2,
                      1.,     1.,     1.,     1., )),
 _F(  MAILLE = 'E82',
      SECTION = 'GENERALE', VARI_SECT = 'HOMOTHETIQUE',
      CARA = ( 'A1' ,  'IZ1',  'A2' ,  'IZ2',
               'AY1',  'AZ1',  'AY2',  'AZ2',
               'IY1',  'JX1',  'IY2',  'JX2',  ),
      VALE = (     1.3345741221547E-04,    1.1121451017956E-09,
                    1.3212948868300E-04,    1.1010790723583E-09,
                     1.2,    1.2,    1.2,    1.2,
                      1.,     1.,     1.,     1., )),
 _F(  MAILLE = 'E83',
      SECTION = 'GENERALE', VARI_SECT = 'HOMOTHETIQUE',
      CARA = ( 'A1' ,  'IZ1',  'A2' ,  'IZ2',
               'AY1',  'AZ1',  'AY2',  'AZ2',
               'IY1',  'JX1',  'IY2',  'JX2',  ),
      VALE = (     1.3212948868300E-04,    1.1010790723583E-09,
                    1.3081477821138E-04,    1.0901231517615E-09,
                     1.2,    1.2,    1.2,    1.2,
                      1.,     1.,     1.,     1., )),
 _F(  MAILLE = 'E84',
      SECTION = 'GENERALE', VARI_SECT = 'HOMOTHETIQUE',
      CARA = ( 'A1' ,  'IZ1',  'A2' ,  'IZ2',
               'AY1',  'AZ1',  'AY2',  'AZ2',
               'IY1',  'JX1',  'IY2',  'JX2',  ),
      VALE = (     1.3081477821138E-04,    1.0901231517615E-09,
                    1.2951314932844E-04,    1.0792762444036E-09,
                     1.2,    1.2,    1.2,    1.2,
                      1.,     1.,     1.,     1., )),
 _F(  MAILLE = 'E85',
      SECTION = 'GENERALE', VARI_SECT = 'HOMOTHETIQUE',
      CARA = ( 'A1' ,  'IZ1',  'A2' ,  'IZ2',
               'AY1',  'AZ1',  'AY2',  'AZ2',
               'IY1',  'JX1',  'IY2',  'JX2',  ),
      VALE = (     1.2951314932844E-04,    1.0792762444036E-09,
                    1.2822447187019E-04,    1.0685372655849E-09,
                     1.2,    1.2,    1.2,    1.2,
                      1.,     1.,     1.,     1., )),
 _F(  MAILLE = 'E86',
      SECTION = 'GENERALE', VARI_SECT = 'HOMOTHETIQUE',
      CARA = ( 'A1' ,  'IZ1',  'A2' ,  'IZ2',
               'AY1',  'AZ1',  'AY2',  'AZ2',
               'IY1',  'JX1',  'IY2',  'JX2',  ),
      VALE = (     1.2822447187019E-04,    1.0685372655849E-09,
                    1.2694861696780E-04,    1.0579051413984E-09,
                     1.2,    1.2,    1.2,    1.2,
                      1.,     1.,     1.,     1., )),
 _F(  MAILLE = 'E87',
      SECTION = 'GENERALE', VARI_SECT = 'HOMOTHETIQUE',
      CARA = ( 'A1' ,  'IZ1',  'A2' ,  'IZ2',
               'AY1',  'AZ1',  'AY2',  'AZ2',
               'IY1',  'JX1',  'IY2',  'JX2',  ),
      VALE = (     1.2694861696780E-04,    1.0579051413984E-09,
                    1.2568545703470E-04,    1.0473788086225E-09,
                     1.2,    1.2,    1.2,    1.2,
                      1.,     1.,     1.,     1., )),
 _F(  MAILLE = 'E88',
      SECTION = 'GENERALE', VARI_SECT = 'HOMOTHETIQUE',
      CARA = ( 'A1' ,  'IZ1',  'A2' ,  'IZ2',
               'AY1',  'AZ1',  'AY2',  'AZ2',
               'IY1',  'JX1',  'IY2',  'JX2',  ),
      VALE = (     1.2568545703470E-04,    1.0473788086225E-09,
                    1.2443486575382E-04,    1.0369572146151E-09,
                     1.2,    1.2,    1.2,    1.2,
                      1.,     1.,     1.,     1., )),
 _F(  MAILLE = 'E89',
      SECTION = 'GENERALE', VARI_SECT = 'HOMOTHETIQUE',
      CARA = ( 'A1' ,  'IZ1',  'A2' ,  'IZ2',
               'AY1',  'AZ1',  'AY2',  'AZ2',
               'IY1',  'JX1',  'IY2',  'JX2',  ),
      VALE = (     1.2443486575382E-04,    1.0369572146151E-09,
                    1.2319671806497E-04,    1.0266393172081E-09,
                     1.2,    1.2,    1.2,    1.2,
                      1.,     1.,     1.,     1., )),
 _F(  MAILLE = 'E90',
      SECTION = 'GENERALE', VARI_SECT = 'HOMOTHETIQUE',
      CARA = ( 'A1' ,  'IZ1',  'A2' ,  'IZ2',
               'AY1',  'AZ1',  'AY2',  'AZ2',
               'IY1',  'JX1',  'IY2',  'JX2',  ),
      VALE = (     1.2319671806497E-04,    1.0266393172081E-09,
                    1.2197089015233E-04,    1.0164240846028E-09,
                     1.2,    1.2,    1.2,    1.2,
                      1.,     1.,     1.,     1., )),
 _F(  MAILLE = 'E91',
      SECTION = 'GENERALE', VARI_SECT = 'HOMOTHETIQUE',
      CARA = ( 'A1' ,  'IZ1',  'A2' ,  'IZ2',
               'AY1',  'AZ1',  'AY2',  'AZ2',
               'IY1',  'JX1',  'IY2',  'JX2',  ),
      VALE = (     1.2197089015233E-04,    1.0164240846028E-09,
                    1.2075725943208E-04,    1.0063104952674E-09,
                     1.2,    1.2,    1.2,    1.2,
                      1.,     1.,     1.,     1., )),
 _F(  MAILLE = 'E92',
      SECTION = 'GENERALE', VARI_SECT = 'HOMOTHETIQUE',
      CARA = ( 'A1' ,  'IZ1',  'A2' ,  'IZ2',
               'AY1',  'AZ1',  'AY2',  'AZ2',
               'IY1',  'JX1',  'IY2',  'JX2',  ),
      VALE = (     1.2075725943208E-04,    1.0063104952674E-09,
                    1.1955570454012E-04,    9.9629753783431E-10,
                     1.2,    1.2,    1.2,    1.2,
                      1.,     1.,     1.,     1., )),
 _F(  MAILLE = 'E93',
      SECTION = 'GENERALE', VARI_SECT = 'HOMOTHETIQUE',
      CARA = ( 'A1' ,  'IZ1',  'A2' ,  'IZ2',
               'AY1',  'AZ1',  'AY2',  'AZ2',
               'IY1',  'JX1',  'IY2',  'JX2',  ),
      VALE = (     1.1955570454012E-04,    9.9629753783431E-10,
                    1.1836610531993E-04,    9.8638421099939E-10,
                     1.2,    1.2,    1.2,    1.2,
                      1.,     1.,     1.,     1., )),
 _F(  MAILLE = 'E94',
      SECTION = 'GENERALE', VARI_SECT = 'HOMOTHETIQUE',
      CARA = ( 'A1' ,  'IZ1',  'A2' ,  'IZ2',
               'AY1',  'AZ1',  'AY2',  'AZ2',
               'IY1',  'JX1',  'IY2',  'JX2',  ),
      VALE = (     1.1836610531993E-04,    9.8638421099939E-10,
                    1.1718834281058E-04,    9.7656952342153E-10,
                     1.2,    1.2,    1.2,    1.2,
                      1.,     1.,     1.,     1., )),
 _F(  MAILLE = 'E95',
      SECTION = 'GENERALE', VARI_SECT = 'HOMOTHETIQUE',
      CARA = ( 'A1' ,  'IZ1',  'A2' ,  'IZ2',
               'AY1',  'AZ1',  'AY2',  'AZ2',
               'IY1',  'JX1',  'IY2',  'JX2',  ),
      VALE = (     1.1718834281058E-04,    9.7656952342153E-10,
                    1.1602229923484E-04,    9.6685249362365E-10,
                     1.2,    1.2,    1.2,    1.2,
                      1.,     1.,     1.,     1., )),
 _F(  MAILLE = 'E96',
      SECTION = 'GENERALE', VARI_SECT = 'HOMOTHETIQUE',
      CARA = ( 'A1' ,  'IZ1',  'A2' ,  'IZ2',
               'AY1',  'AZ1',  'AY2',  'AZ2',
               'IY1',  'JX1',  'IY2',  'JX2',  ),
      VALE = (     1.1602229923484E-04,    9.6685249362365E-10,
                    1.1486785798734E-04,    9.5723214989453E-10,
                     1.2,    1.2,    1.2,    1.2,
                      1.,     1.,     1.,     1., )),
 _F(  MAILLE = 'E97',
      SECTION = 'GENERALE', VARI_SECT = 'HOMOTHETIQUE',
      CARA = ( 'A1' ,  'IZ1',  'A2' ,  'IZ2',
               'AY1',  'AZ1',  'AY2',  'AZ2',
               'IY1',  'JX1',  'IY2',  'JX2',  ),
      VALE = (     1.1486785798734E-04,    9.5723214989453E-10,
                    1.1372490362300E-04,    9.4770753019164E-10,
                     1.2,    1.2,    1.2,    1.2,
                      1.,     1.,     1.,     1., )),
 _F(  MAILLE = 'E98',
      SECTION = 'GENERALE', VARI_SECT = 'HOMOTHETIQUE',
      CARA = ( 'A1' ,  'IZ1',  'A2' ,  'IZ2',
               'AY1',  'AZ1',  'AY2',  'AZ2',
               'IY1',  'JX1',  'IY2',  'JX2',  ),
      VALE = (     1.1372490362300E-04,    9.4770753019164E-10,
                    1.1259332184539E-04,    9.3827768204495E-10,
                     1.2,    1.2,    1.2,    1.2,
                      1.,     1.,     1.,     1., )),
 _F(  MAILLE = 'E99',
      SECTION = 'GENERALE', VARI_SECT = 'HOMOTHETIQUE',
      CARA = ( 'A1' ,  'IZ1',  'A2' ,  'IZ2',
               'AY1',  'AZ1',  'AY2',  'AZ2',
               'IY1',  'JX1',  'IY2',  'JX2',  ),
      VALE = (     1.1259332184539E-04,    9.3827768204495E-10,
                    1.1147299949540E-04,    9.2894166246165E-10,
                     1.2,    1.2,    1.2,    1.2,
                      1.,     1.,     1.,     1., )),
 _F(  MAILLE = 'E100',
      SECTION = 'GENERALE', VARI_SECT = 'HOMOTHETIQUE',
      CARA = ( 'A1' ,  'IZ1',  'A2' ,  'IZ2',
               'AY1',  'AZ1',  'AY2',  'AZ2',
               'IY1',  'JX1',  'IY2',  'JX2',  ),
      VALE = (     1.1147299949540E-04,    9.2894166246165E-10,
                    1.1036382453982E-04,    9.1969853783187E-10,
                     1.2,    1.2,    1.2,    1.2,
                      1.,     1.,     1.,     1., )),
 _F(  MAILLE = 'E101',
      SECTION = 'GENERALE', VARI_SECT = 'HOMOTHETIQUE',
      CARA = ( 'A1' ,  'IZ1',  'A2' ,  'IZ2',
               'AY1',  'AZ1',  'AY2',  'AZ2',
               'IY1',  'JX1',  'IY2',  'JX2',  ),
      VALE = (     1.1036382453982E-04,    9.1969853783187E-10,
                    1.0926568606024E-04,    9.1054738383530E-10,
                     1.2,    1.2,    1.2,    1.2,
                      1.,     1.,     1.,     1., )),
 _F(  MAILLE = 'E102',
      SECTION = 'GENERALE', VARI_SECT = 'HOMOTHETIQUE',
      CARA = ( 'A1' ,  'IZ1',  'A2' ,  'IZ2',
               'AY1',  'AZ1',  'AY2',  'AZ2',
               'IY1',  'JX1',  'IY2',  'JX2',  ),
      VALE = (     1.0926568606024E-04,    9.1054738383530E-10,
                    1.0817847424186E-04,    9.0148728534880E-10,
                     1.2,    1.2,    1.2,    1.2,
                      1.,     1.,     1.,     1., )),
 _F(  MAILLE = 'E103',
      SECTION = 'GENERALE', VARI_SECT = 'HOMOTHETIQUE',
      CARA = ( 'A1' ,  'IZ1',  'A2' ,  'IZ2',
               'AY1',  'AZ1',  'AY2',  'AZ2',
               'IY1',  'JX1',  'IY2',  'JX2',  ),
      VALE = (     1.0817847424186E-04,    9.0148728534880E-10,
                    1.0710208036258E-04,    8.9251733635484E-10,
                     1.2,    1.2,    1.2,    1.2,
                      1.,     1.,     1.,     1., )),
 _F(  MAILLE = 'E104',
      SECTION = 'GENERALE', VARI_SECT = 'HOMOTHETIQUE',
      CARA = ( 'A1' ,  'IZ1',  'A2' ,  'IZ2',
               'AY1',  'AZ1',  'AY2',  'AZ2',
               'IY1',  'JX1',  'IY2',  'JX2',  ),
      VALE = (     1.0710208036258E-04,    8.9251733635484E-10,
                    1.0603639678211E-04,    8.8363663985092E-10,
                     1.2,    1.2,    1.2,    1.2,
                      1.,     1.,     1.,     1., )),
 _F(  MAILLE = 'E105',
      SECTION = 'GENERALE', VARI_SECT = 'HOMOTHETIQUE',
      CARA = ( 'A1' ,  'IZ1',  'A2' ,  'IZ2',
               'AY1',  'AZ1',  'AY2',  'AZ2',
               'IY1',  'JX1',  'IY2',  'JX2',  ),
      VALE = (     1.0603639678211E-04,    8.8363663985092E-10,
                    1.0498131693118E-04,    8.7484430775986E-10,
                     1.2,    1.2,    1.2,    1.2,
                      1.,     1.,     1.,     1., )),
 _F(  MAILLE = 'E106',
      SECTION = 'GENERALE', VARI_SECT = 'HOMOTHETIQUE',
      CARA = ( 'A1' ,  'IZ1',  'A2' ,  'IZ2',
               'AY1',  'AZ1',  'AY2',  'AZ2',
               'IY1',  'JX1',  'IY2',  'JX2',  ),
      VALE = (     1.0498131693118E-04,    8.7484430775986E-10,
                    1.0393673530092E-04,    8.6613946084100E-10,
                     1.2,    1.2,    1.2,    1.2,
                      1.,     1.,     1.,     1., )),
 _F(  MAILLE = 'E107',
      SECTION = 'GENERALE', VARI_SECT = 'HOMOTHETIQUE',
      CARA = ( 'A1' ,  'IZ1',  'A2' ,  'IZ2',
               'AY1',  'AZ1',  'AY2',  'AZ2',
               'IY1',  'JX1',  'IY2',  'JX2',  ),
      VALE = (     1.0393673530092E-04,    8.6613946084100E-10,
                    1.0290254743227E-04,    8.5752122860226E-10,
                     1.2,    1.2,    1.2,    1.2,
                      1.,     1.,     1.,     1., )),
 _F(  MAILLE = 'E108',
      SECTION = 'GENERALE', VARI_SECT = 'HOMOTHETIQUE',
      CARA = ( 'A1' ,  'IZ1',  'A2' ,  'IZ2',
               'AY1',  'AZ1',  'AY2',  'AZ2',
               'IY1',  'JX1',  'IY2',  'JX2',  ),
      VALE = (     1.0290254743227E-04,    8.5752122860226E-10,
                    1.0187864990558E-04,    8.4898874921314E-10,
                     1.2,    1.2,    1.2,    1.2,
                      1.,     1.,     1.,     1., )),
 _F(  MAILLE = 'E109',
      SECTION = 'GENERALE', VARI_SECT = 'HOMOTHETIQUE',
      CARA = ( 'A1' ,  'IZ1',  'A2' ,  'IZ2',
               'AY1',  'AZ1',  'AY2',  'AZ2',
               'IY1',  'JX1',  'IY2',  'JX2',  ),
      VALE = (     1.0187864990558E-04,    8.4898874921314E-10,
                    1.0086494033021E-04,    8.4054116941844E-10,
                     1.2,    1.2,    1.2,    1.2,
                      1.,     1.,     1.,     1., )),
 _F(  MAILLE = 'E110',
      SECTION = 'GENERALE', VARI_SECT = 'HOMOTHETIQUE',
      CARA = ( 'A1' ,  'IZ1',  'A2' ,  'IZ2',
               'AY1',  'AZ1',  'AY2',  'AZ2',
               'IY1',  'JX1',  'IY2',  'JX2',  ),
      VALE = (     1.0086494033021E-04,    8.4054116941844E-10,
                    9.9861317334364E-05,    8.3217764445304E-10,
                     1.2,    1.2,    1.2,    1.2,
                      1.,     1.,     1.,     1., )),
 _F(  MAILLE = 'E111',
      SECTION = 'GENERALE', VARI_SECT = 'HOMOTHETIQUE',
      CARA = ( 'A1' ,  'IZ1',  'A2' ,  'IZ2',
               'AY1',  'AZ1',  'AY2',  'AZ2',
               'IY1',  'JX1',  'IY2',  'JX2',  ),
      VALE = (     9.9861317334364E-05,    8.3217764445304E-10,
                    9.8867680554881E-05,    8.2389733795735E-10,
                     1.2,    1.2,    1.2,    1.2,
                      1.,     1.,     1.,     1., )),
 _F(  MAILLE = 'E112',
      SECTION = 'GENERALE', VARI_SECT = 'HOMOTHETIQUE',
      CARA = ( 'A1' ,  'IZ1',  'A2' ,  'IZ2',
               'AY1',  'AZ1',  'AY2',  'AZ2',
               'IY1',  'JX1',  'IY2',  'JX2',  ),
      VALE = (     9.8867680554881E-05,    8.2389733795735E-10,
                    9.7883930627243E-05,    8.1569942189370E-10,
                     1.2,    1.2,    1.2,    1.2,
                      1.,     1.,     1.,     1., )),
 _F(  MAILLE = 'E113',
      SECTION = 'GENERALE', VARI_SECT = 'HOMOTHETIQUE',
      CARA = ( 'A1' ,  'IZ1',  'A2' ,  'IZ2',
               'AY1',  'AZ1',  'AY2',  'AZ2',
               'IY1',  'JX1',  'IY2',  'JX2',  ),
      VALE = (     9.7883930627243E-05,    8.1569942189370E-10,
                    9.6909969175624E-05,    8.0758307646353E-10,
                     1.2,    1.2,    1.2,    1.2,
                      1.,     1.,     1.,     1., )),
 _F(  MAILLE = 'E114',
      SECTION = 'GENERALE', VARI_SECT = 'HOMOTHETIQUE',
      CARA = ( 'A1' ,  'IZ1',  'A2' ,  'IZ2',
               'AY1',  'AZ1',  'AY2',  'AZ2',
               'IY1',  'JX1',  'IY2',  'JX2',  ),
      VALE = (     9.6909969175624E-05,    8.0758307646353E-10,
                    9.5945698803053E-05,    7.9954749002544E-10,
                     1.2,    1.2,    1.2,    1.2,
                      1.,     1.,     1.,     1., )),
 _F(  MAILLE = 'E115',
      SECTION = 'GENERALE', VARI_SECT = 'HOMOTHETIQUE',
      CARA = ( 'A1' ,  'IZ1',  'A2' ,  'IZ2',
               'AY1',  'AZ1',  'AY2',  'AZ2',
               'IY1',  'JX1',  'IY2',  'JX2',  ),
      VALE = (     9.5945698803053E-05,    7.9954749002544E-10,
                    9.4991023081675E-05,    7.9159185901396E-10,
                     1.2,    1.2,    1.2,    1.2,
                      1.,     1.,     1.,     1., )),
 _F(  MAILLE = 'E116',
      SECTION = 'GENERALE', VARI_SECT = 'HOMOTHETIQUE',
      CARA = ( 'A1' ,  'IZ1',  'A2' ,  'IZ2',
               'AY1',  'AZ1',  'AY2',  'AZ2',
               'IY1',  'JX1',  'IY2',  'JX2',  ),
      VALE = (     9.4991023081675E-05,    7.9159185901396E-10,
                    9.4045846543110E-05,    7.8371538785925E-10,
                     1.2,    1.2,    1.2,    1.2,
                      1.,     1.,     1.,     1., )),
 _F(  MAILLE = 'E117',
      SECTION = 'GENERALE', VARI_SECT = 'HOMOTHETIQUE',
      CARA = ( 'A1' ,  'IZ1',  'A2' ,  'IZ2',
               'AY1',  'AZ1',  'AY2',  'AZ2',
               'IY1',  'JX1',  'IY2',  'JX2',  ),
      VALE = (     9.4045846543110E-05,    7.8371538785925E-10,
                    9.3110074668902E-05,    7.7591728890751E-10,
                     1.2,    1.2,    1.2,    1.2,
                      1.,     1.,     1.,     1., )),
 _F(  MAILLE = 'E118',
      SECTION = 'GENERALE', VARI_SECT = 'HOMOTHETIQUE',
      CARA = ( 'A1' ,  'IZ1',  'A2' ,  'IZ2',
               'AY1',  'AZ1',  'AY2',  'AZ2',
               'IY1',  'JX1',  'IY2',  'JX2',  ),
      VALE = (     9.3110074668902E-05,    7.7591728890751E-10,
                    9.2183613881071E-05,    7.6819678234226E-10,
                     1.2,    1.2,    1.2,    1.2,
                      1.,     1.,     1.,     1., )),
 _F(  MAILLE = 'E119',
      SECTION = 'GENERALE', VARI_SECT = 'HOMOTHETIQUE',
      CARA = ( 'A1' ,  'IZ1',  'A2' ,  'IZ2',
               'AY1',  'AZ1',  'AY2',  'AZ2',
               'IY1',  'JX1',  'IY2',  'JX2',  ),
      VALE = (     9.2183613881071E-05,    7.6819678234226E-10,
                    9.1266371532753E-05,    7.6055309610627E-10,
                     1.2,    1.2,    1.2,    1.2,
                      1.,     1.,     1.,     1., )),
 _F(  MAILLE = 'E120',
      SECTION = 'GENERALE', VARI_SECT = 'HOMOTHETIQUE',
      CARA = ( 'A1' ,  'IZ1',  'A2' ,  'IZ2',
               'AY1',  'AZ1',  'AY2',  'AZ2',
               'IY1',  'JX1',  'IY2',  'JX2',  ),
      VALE = (     9.1266371532753E-05,    7.6055309610627E-10,
                    9.0358255898936E-05,    7.5298546582446E-10,
                     1.2,    1.2,    1.2,    1.2,
                      1.,     1.,     1.,     1., )))

                                                               )

# ------------------------------------------------------------------

MELR=CALC_MATR_ELEM(  MODELE=MO,            CHARGE=CH,
                       CARA_ELEM=CELEM,
                       CHAM_MATER=CHMAT,    OPTION='RIGI_MECA' )

MELM=CALC_MATR_ELEM(  MODELE=MO,            CHARGE=CH,
                       CARA_ELEM=CELEM,
                       CHAM_MATER=CHMAT,    OPTION='MASS_MECA' )

NUM=NUME_DDL(  MATR_RIGI=MELR  )

MATASSR=ASSE_MATRICE(MATR_ELEM=MELR,NUME_DDL=NUM)

MATASSM=ASSE_MATRICE(MATR_ELEM=MELM,NUME_DDL=NUM)

# -------------------------------------------------------------------

MODE=MODE_ITER_SIMULT(  MATR_RIGI=MATASSR,       MATR_MASS=MATASSM,
   TITRE=' CAS TEST &CODE   COMMANDE &COMMANDE SANS L-TX !!',
              METHODE='TRI_DIAG',
             CALC_FREQ=_F(  OPTION = 'PLUS_PETITE',
                         NMAX_FREQ = 4) )


MODE=NORM_MODE(reuse=MODE,    MODE=MODE,
                     NORME='TRAN'  )

# --------------------------------------------------------------------


CMP='DY'

TEST_RESU(RESU=(_F(NUME_ORDRE=1,
                   PARA='FREQ',
                   RESULTAT=MODE,
                   VALE_CALC=145.592481199,
                   VALE_REFE=143.303,
                   REFERENCE='ANALYTIQUE',
                   CRITERE='RELATIF',
                   PRECISION=0.016,),
                _F(NUME_ORDRE=2,
                   PARA='FREQ',
                   RESULTAT=MODE,
                   VALE_CALC=398.511215964,
                   VALE_REFE=396.82100000000003,
                   REFERENCE='ANALYTIQUE',
                   CRITERE='RELATIF',
                   PRECISION=4.4999999999999997E-3,),
                _F(NUME_ORDRE=3,
                   PARA='FREQ',
                   RESULTAT=MODE,
                   VALE_CALC=777.115437329,
                   VALE_REFE=779.42499999999995,
                   REFERENCE='ANALYTIQUE',
                   CRITERE='RELATIF',
                   PRECISION=3.0000000000000001E-3,),
                _F(NUME_ORDRE=4,
                   PARA='FREQ',
                   RESULTAT=MODE,
                   VALE_CALC= 1.27801164E+03,
                   VALE_REFE=1289.577,
                   REFERENCE='ANALYTIQUE',
                   CRITERE='RELATIF',
                   PRECISION=8.9999999999999993E-3,),
                ),
          )

# MODE 1

TEST_RESU(RESU=(_F(NUME_ORDRE=1,
                   RESULTAT=MODE,
                   NOM_CHAM='DEPL',
                   NOEUD='N21',
                   NOM_CMP='DY',
                   VALE_CALC=0.236361017,
                   VALE_REFE=0.23499,
                   REFERENCE='ANALYTIQUE',
                   CRITERE='RELATIF',
                   PRECISION=6.0000000000000001E-3,),
                _F(NUME_ORDRE=1,
                   RESULTAT=MODE,
                   NOM_CHAM='DEPL',
                   NOEUD='N41',
                   NOM_CMP='DY',
                   VALE_CALC=0.697058136,
                   VALE_REFE=0.69623000000000002,
                   REFERENCE='ANALYTIQUE',
                   CRITERE='RELATIF',
                   PRECISION=1.5E-3,),
                _F(NUME_ORDRE=1,
                   RESULTAT=MODE,
                   NOM_CHAM='DEPL',
                   NOEUD='N61',
                   NOM_CMP='DY',
                   VALE_CALC=0.98953308686438,
                   CRITERE='RELATIF',
                   ),
                _F(NUME_ORDRE=1,
                   RESULTAT=MODE,
                   NOM_CHAM='DEPL',
                   NOEUD='N81',
                   NOM_CMP='DY',
                   VALE_CALC=0.851622397,
                   VALE_REFE=0.85050000000000003,
                   REFERENCE='ANALYTIQUE',
                   CRITERE='RELATIF',
                   PRECISION=1.5E-3,),
                _F(NUME_ORDRE=1,
                   RESULTAT=MODE,
                   NOM_CHAM='DEPL',
                   NOEUD='N101',
                   NOM_CMP='DY',
                   VALE_CALC=0.352911201,
                   VALE_REFE=0.35070000000000001,
                   REFERENCE='ANALYTIQUE',
                   CRITERE='RELATIF',
                   PRECISION=7.0000000000000001E-3,),
                ),
          )

# MODE 2

TEST_RESU(RESU=(_F(NUME_ORDRE=2,
                   RESULTAT=MODE,
                   NOM_CHAM='DEPL',
                   NOEUD='N21',
                   NOM_CMP='DY',
                   VALE_CALC=-0.467001026,
                   VALE_REFE=-0.46528000000000003,
                   REFERENCE='ANALYTIQUE',
                   CRITERE='RELATIF',
                   PRECISION=4.0000000000000001E-3,),
                _F(NUME_ORDRE=2,
                   RESULTAT=MODE,
                   NOM_CHAM='DEPL',
                   NOEUD='N41',
                   NOM_CMP='DY',
                   VALE_CALC=-0.75551676952725,
                   CRITERE='RELATIF',
                   ),
                _F(NUME_ORDRE=2,
                   RESULTAT=MODE,
                   NOM_CHAM='DEPL',
                   NOEUD='N61',
                   NOM_CMP='DY',
                   VALE_CALC=-2.8662535510885E-04,
                   CRITERE='ABSOLU',
                   ),
                _F(NUME_ORDRE=2,
                   RESULTAT=MODE,
                   NOM_CHAM='DEPL',
                   NOEUD='N81',
                   NOM_CMP='DY',
                   VALE_CALC=0.92259531925437,
                   CRITERE='RELATIF',
                   ),
                _F(NUME_ORDRE=2,
                   RESULTAT=MODE,
                   NOM_CHAM='DEPL',
                   NOEUD='N101',
                   NOM_CMP='DY',
                   VALE_CALC=0.697140840,
                   VALE_REFE=0.69411999999999996,
                   REFERENCE='ANALYTIQUE',
                   CRITERE='RELATIF',
                   PRECISION=4.4999999999999997E-3,),
                ),
          )

# MODE 3

TEST_RESU(RESU=(_F(NUME_ORDRE=3,
                   RESULTAT=MODE,
                   NOM_CHAM='DEPL',
                   NOEUD='N21',
                   NOM_CMP='DY',
                   VALE_CALC=0.629025682,
                   VALE_REFE=0.62782000000000004,
                   REFERENCE='ANALYTIQUE',
                   CRITERE='RELATIF',
                   PRECISION=2.E-3,),
                _F(NUME_ORDRE=3,
                   RESULTAT=MODE,
                   NOM_CHAM='DEPL',
                   NOEUD='N41',
                   NOM_CMP='DY',
                   VALE_CALC=0.195237562,
                   VALE_REFE=0.19699,
                   REFERENCE='ANALYTIQUE',
                   CRITERE='RELATIF',
                   PRECISION=8.9999999999999993E-3,),
                _F(NUME_ORDRE=3,
                   RESULTAT=MODE,
                   NOM_CHAM='DEPL',
                   NOEUD='N61',
                   NOM_CMP='DY',
                   VALE_CALC=-0.778182309,
                   VALE_REFE=-0.77829000000000004,
                   REFERENCE='ANALYTIQUE',
                   CRITERE='RELATIF',
                   PRECISION=4.0000000000000001E-3,),
                _F(NUME_ORDRE=3,
                   RESULTAT=MODE,
                   NOM_CHAM='DEPL',
                   NOEUD='N81',
                   NOM_CMP='DY',
                   VALE_CALC=0.237660178,
                   VALE_REFE=0.24060999999999999,
                   REFERENCE='ANALYTIQUE',
                   CRITERE='RELATIF',
                   PRECISION=0.0123,),
                _F(NUME_ORDRE=3,
                   RESULTAT=MODE,
                   NOM_CHAM='DEPL',
                   NOEUD='N101',
                   NOM_CMP='DY',
                   VALE_CALC=0.938739756,
                   VALE_REFE=0.93659999999999999,
                   REFERENCE='ANALYTIQUE',
                   CRITERE='RELATIF',
                   PRECISION=2.5000000000000001E-3,),
                ),
          )

# MODE 4

TEST_RESU(RESU=(_F(NUME_ORDRE=4,
                   RESULTAT=MODE,
                   NOM_CHAM='DEPL',
                   NOEUD='N21',
                   NOM_CMP='DY',
                   VALE_CALC=-0.66556054419062,
                   CRITERE='RELATIF',
                   ),
                _F(NUME_ORDRE=4,
                   RESULTAT=MODE,
                   NOM_CHAM='DEPL',
                   NOEUD='N41',
                   NOM_CMP='DY',
                   VALE_CALC=0.484038588,
                   VALE_REFE=0.48316999999999999,
                   REFERENCE='ANALYTIQUE',
                   CRITERE='RELATIF',
                   PRECISION=2.E-3,),
                _F(NUME_ORDRE=4,
                   RESULTAT=MODE,
                   NOM_CHAM='DEPL',
                   NOEUD='N61',
                   NOM_CMP='DY',
                   VALE_CALC=4.5841932729043E-04,
                   CRITERE='ABSOLU',
                   ),
                _F(NUME_ORDRE=4,
                   RESULTAT=MODE,
                   NOM_CHAM='DEPL',
                   NOEUD='N81',
                   NOM_CMP='DY',
                   VALE_CALC=-0.591927840,
                   VALE_REFE=-0.59009999999999996,
                   REFERENCE='ANALYTIQUE',
                   CRITERE='RELATIF',
                   PRECISION=3.5000000000000001E-3,),
                _F(NUME_ORDRE=4,
                   RESULTAT=MODE,
                   NOM_CHAM='DEPL',
                   NOEUD='N101',
                   NOM_CMP='DY',
                   VALE_CALC=0.99281427862570,
                   CRITERE='RELATIF',
                   ),
                ),
          )

FIN()
#
#
#C PROGRAMME POUR LE CALCUL DE LA SOLUTION DE REFERENCE
#
#   PROGRAM POU
#      IMPLICIT REAL *8 (A-H,O-Z)
#      REAL *8 V(1000)
#      PI = ATAN (1.D0) * 4.D0
#      READ(*,*) N
#      XLON = 0.6D0
#      DXL = XLON / N
#      WRITE(*,*) 'NUMERO DU MODE'
#      READ(*,*) J
#      IF (J.EQ.1) THEN
#        OMEG = 2.D0 * PI * 143.303
#      ENDIF
#      IF (J.EQ.2) THEN
#        OMEG = 2.D0 * PI * 396.821
#      ENDIF
#      IF (J.EQ.3) THEN
#        OMEG = 2.D0 * PI * 779.425
#      ENDIF
#      IF (J.EQ.4) THEN
#        OMEG = 2.D0 * PI * 1289.577
#      ENDIF
#      XLAM = 7800 * 3.D-4 * OMEG * OMEG / 2.D11
#     &        /0.25D-08
#      XLAM = SQRT(XLAM)
#      WRITE(*,*) 'XLAM ', XLAM
#      R = SQRT(1.D0+XLAM)
#      S = SQRT(XLAM-1.D0)
#      WRITE(*,*) 'R S ', R, S
#      PENTE = (COS(R*XLON)-COSH(S*XLON))
#     &      /(R*SINH(S*XLON)-S*SIN(R*XLON))
#      DO 10 I = 1, N+1
#        XL = DXL * (I-1)
#        V(I)= EXP(XL)*(COS(R*XL)-COSH(S*XL)+PENTE*
#     &  (S*SIN(R*XL)-R*SINH(S*XL)))
#
# 10   CONTINUE
#      AXMAX = V(1)
#      DO 15 I = 1, N+1
#        IF (ABS(V(I)).GE.ABS(AXMAX)) THEN
#          AXMAX = V(I)
#        ENDIF
# 15   CONTINUE
#      DO 20 I = 1, N+1
#        V(I) =  V(I)/AXMAX
# 20   CONTINUE
#      WRITE(*,*) 0.1/DXL
#      I1 = INT(0.1/DXL)
#      I2 = INT(0.2/DXL)
#      I3 = INT(0.3/DXL)
#      I4 = INT(0.4/DXL)
#      I5 = INT(0.5/DXL)
#      WRITE(*,*) DXL*I1, V(I1+1)
#      WRITE(*,*) DXL*I2, V(I2+1)
#      WRITE(*,*) DXL*I3, V(I3+1)
#      WRITE(*,*) DXL*I4, V(I4+1)
#      WRITE(*,*) DXL*I5, V(I5+1)
#      END
#
