# MODIF  DATE 30/08/2010   AUTEUR BOYERE E.BOYERE 
# TITRE CALCUL MODAL D'UN ARBRE A SECTION CIRCULAIRE VARIABLE
#            CONFIGURATION MANAGEMENT OF EDF VERSION
# ======================================================================
# COPYRIGHT (C) 1991 - 2010  EDF R&D                  WWW.CODE-ASTER.ORG
# THIS PROGRAM IS FREE SOFTWARE; YOU CAN REDISTRIBUTE IT AND/OR MODIFY  
# IT UNDER THE TERMS OF THE GNU GENERAL PUBLIC LICENSE AS PUBLISHED BY  
# THE FREE SOFTWARE FOUNDATION; EITHER VERSION 2 OF THE LICENSE, OR     
# (AT YOUR OPTION) ANY LATER VERSION.                                                    
#                                                                       
# THIS PROGRAM IS DISTRIBUTED IN THE HOPE THAT IT WILL BE USEFUL, BUT   
# WITHOUT ANY WARRANTY; WITHOUT EVEN THE IMPLIED WARRANTY OF            
# MERCHANTABILITY OR FITNESS FOR A PARTICULAR PURPOSE. SEE THE GNU      
# GENERAL PUBLIC LICENSE FOR MORE DETAILS.                              
#                                                                       
# YOU SHOULD HAVE RECEIVED A COPY OF THE GNU GENERAL PUBLIC LICENSE     
# ALONG WITH THIS PROGRAM; IF NOT, WRITE TO EDF R&D CODE_ASTER,         
#    1 AVENUE DU GENERAL DE GAULLE, 92141 CLAMART CEDEX, FRANCE.        
# ======================================================================
# sdll127a.para = tps_job 900 mem_job 512Mo ncpus 1 liste_test S
# CAS_TEST__:SDLL127A
#

DEBUT(CODE=_F(NOM='SDLL127A',
              NIV_PUB_WEB='INTERNET',
              VISU_EFICAS='OUI',),
              DEBUG=_F(SDVERI='OUI'),);

MAIL=LIRE_MAILLAGE()

MODELE=AFFE_MODELE(MAILLAGE=MAIL,
                   AFFE=_F(GROUP_MA='ROTOR',
                           PHENOMENE='MECANIQUE',
                           MODELISATION='POU_D_T',),
                  );

# ---------------------
# DEFINITION DU MATERIAU
# ---------------------
ACIER=DEFI_MATERIAU(ELAS=_F(E=2.0E11,
                            NU=0.3,
                            RHO=7800.0,),);

# -----------------------
# AFFECTATION DU MATERIAU
# -----------------------
CHMAT=AFFE_MATERIAU(MAILLAGE=MAIL,
                    AFFE=(_F(GROUP_MA='ROTOR',
                            MATER=ACIER,),))

# --------------------------------
# DEF DES SECTIONS et des RAIDEURS
# --------------------------------
CARELEM=AFFE_CARA_ELEM(INFO=1,
                       MODELE=MODELE,
                       POUTRE=(_F(MAILLE='M1',
                                  SECTION='CERCLE',
                                  VARI_SECT = 'HOMOTHETIQUE',
                                  CARA = ('R1', 'R2', 'EP1', 'EP2',),
                                  VALE = (0.1, 0.09875, 0.02, 0.02,),),
                              _F(MAILLE='M2',
                                  SECTION='CERCLE',
                                  VARI_SECT = 'HOMOTHETIQUE',
                                  CARA = ('R1', 'R2', 'EP1', 'EP2',),
                                  VALE = (0.09875, 0.0975, 0.02, 0.02,),),
                              _F(MAILLE='M3',
                                  SECTION='CERCLE',
                                  VARI_SECT = 'HOMOTHETIQUE',
                                  CARA = ('R1', 'R2', 'EP1', 'EP2',),
                                  VALE = (0.0975, 0.09625, 0.02, 0.02,),),
                              _F(MAILLE='M4',
                                  SECTION='CERCLE',
                                  VARI_SECT = 'HOMOTHETIQUE',
                                  CARA = ('R1', 'R2', 'EP1', 'EP2',),
                                  VALE = (0.09625, 0.0950, 0.02, 0.02,),),
                              _F(MAILLE='M5',
                                  SECTION='CERCLE',
                                  VARI_SECT = 'HOMOTHETIQUE',
                                  CARA = ('R1', 'R2', 'EP1', 'EP2',),
                                  VALE = (0.0950, 0.09375, 0.02, 0.02,),),
                              _F(MAILLE='M6',
                                  SECTION='CERCLE',
                                  VARI_SECT = 'HOMOTHETIQUE',
                                  CARA = ('R1', 'R2', 'EP1', 'EP2',),
                                  VALE = (0.09375, 0.0925, 0.02, 0.02,),),
                              _F(MAILLE='M7',
                                  SECTION='CERCLE',
                                  VARI_SECT = 'HOMOTHETIQUE',
                                  CARA = ('R1', 'R2', 'EP1', 'EP2',),
                                  VALE = (0.0925, 0.09125, 0.02, 0.02,),),
                              _F(MAILLE='M8',
                                  SECTION='CERCLE',
                                  VARI_SECT = 'HOMOTHETIQUE',
                                  CARA = ('R1', 'R2', 'EP1', 'EP2',),
                                  VALE = (0.09125, 0.09000, 0.02, 0.02,),),
                              _F(MAILLE='M9',
                                  SECTION='CERCLE',
                                  VARI_SECT = 'HOMOTHETIQUE',
                                  CARA = ('R1', 'R2', 'EP1', 'EP2',),
                                  VALE = (0.09000, 0.08875, 0.02, 0.02,),),
                              _F(MAILLE='M10',
                                  SECTION='CERCLE',
                                  VARI_SECT = 'HOMOTHETIQUE',
                                  CARA = ('R1', 'R2', 'EP1', 'EP2',),
                                  VALE = (0.08875, 0.0875, 0.02, 0.02,),),
                              _F(MAILLE='M11',
                                  SECTION='CERCLE',
                                  VARI_SECT = 'HOMOTHETIQUE',
                                  CARA = ('R1', 'R2', 'EP1', 'EP2',),
                                  VALE = (0.0875, 0.08625, 0.02, 0.02,),),
                              _F(MAILLE='M12',
                                  SECTION='CERCLE',
                                  VARI_SECT = 'HOMOTHETIQUE',
                                  CARA = ('R1', 'R2', 'EP1', 'EP2',),
                                  VALE = (0.08625, 0.0850, 0.02, 0.02,),),
                              _F(MAILLE='M13',
                                  SECTION='CERCLE',
                                  VARI_SECT = 'HOMOTHETIQUE',
                                  CARA = ('R1', 'R2', 'EP1', 'EP2',),
                                  VALE = (0.0850, 0.08375, 0.02, 0.02,),),
                              _F(MAILLE='M14',
                                  SECTION='CERCLE',
                                  VARI_SECT = 'HOMOTHETIQUE',
                                  CARA = ('R1', 'R2', 'EP1', 'EP2',),
                                  VALE = (0.08375, 0.0825, 0.02, 0.02,),),
                              _F(MAILLE='M15',
                                  SECTION='CERCLE',
                                  VARI_SECT = 'HOMOTHETIQUE',
                                  CARA = ('R1', 'R2', 'EP1', 'EP2',),
                                  VALE = (0.0825, 0.08125, 0.02, 0.02,),),
                              _F(MAILLE='M16',
                                  SECTION='CERCLE',
                                  VARI_SECT = 'HOMOTHETIQUE',
                                  CARA = ('R1', 'R2', 'EP1', 'EP2',),
                                  VALE = (0.08125, 0.08000, 0.02, 0.02,),),
                              _F(MAILLE='M17',
                                  SECTION='CERCLE',
                                  VARI_SECT = 'HOMOTHETIQUE',
                                  CARA = ('R1', 'R2', 'EP1', 'EP2',),
                                  VALE = (0.08000, 0.07875, 0.02, 0.02,),),
                              _F(MAILLE='M18',
                                  SECTION='CERCLE',
                                  VARI_SECT = 'HOMOTHETIQUE',
                                  CARA = ('R1', 'R2', 'EP1', 'EP2',),
                                  VALE = (0.07875, 0.0775, 0.02, 0.02,),),
                              _F(MAILLE='M19',
                                  SECTION='CERCLE',
                                  VARI_SECT = 'HOMOTHETIQUE',
                                  CARA = ('R1', 'R2', 'EP1', 'EP2',),
                                  VALE = (0.0775, 0.07625, 0.02, 0.02,),),
                              _F(MAILLE='M20',
                                  SECTION='CERCLE',
                                  VARI_SECT = 'HOMOTHETIQUE',
                                  CARA = ('R1', 'R2', 'EP1', 'EP2',),
                                  VALE = (0.07625, 0.0750, 0.02, 0.02,),),
                              _F(MAILLE='M21',
                                  SECTION='CERCLE',
                                  VARI_SECT = 'HOMOTHETIQUE',
                                  CARA = ('R1', 'R2', 'EP1', 'EP2',),
                                  VALE = (0.0750, 0.07375, 0.02, 0.02,),),
                              _F(MAILLE='M22',
                                  SECTION='CERCLE',
                                  VARI_SECT = 'HOMOTHETIQUE',
                                  CARA = ('R1', 'R2', 'EP1', 'EP2',),
                                  VALE = (0.07375, 0.0725, 0.02, 0.02,),),
                              _F(MAILLE='M23',
                                  SECTION='CERCLE',
                                  VARI_SECT = 'HOMOTHETIQUE',
                                  CARA = ('R1', 'R2', 'EP1', 'EP2',),
                                  VALE = (0.0725, 0.07125, 0.02, 0.02,),),
                              _F(MAILLE='M24',
                                  SECTION='CERCLE',
                                  VARI_SECT = 'HOMOTHETIQUE',
                                  CARA = ('R1', 'R2', 'EP1', 'EP2',),
                                  VALE = (0.07125, 0.07000, 0.02, 0.02,),),
                              _F(MAILLE='M25',
                                  SECTION='CERCLE',
                                  VARI_SECT = 'HOMOTHETIQUE',
                                  CARA = ('R1', 'R2', 'EP1', 'EP2',),
                                  VALE = (0.07000, 0.06875, 0.02, 0.02,),),
                              _F(MAILLE='M26',
                                  SECTION='CERCLE',
                                  VARI_SECT = 'HOMOTHETIQUE',
                                  CARA = ('R1', 'R2', 'EP1', 'EP2',),
                                  VALE = (0.06875, 0.0675, 0.02, 0.02,),),
                              _F(MAILLE='M27',
                                  SECTION='CERCLE',
                                  VARI_SECT = 'HOMOTHETIQUE',
                                  CARA = ('R1', 'R2', 'EP1', 'EP2',),
                                  VALE = (0.0675, 0.06625, 0.02, 0.02,),),
                              _F(MAILLE='M28',
                                  SECTION='CERCLE',
                                  VARI_SECT = 'HOMOTHETIQUE',
                                  CARA = ('R1', 'R2', 'EP1', 'EP2',),
                                  VALE = (0.06625, 0.0650, 0.02, 0.02,),),
                              _F(MAILLE='M29',
                                  SECTION='CERCLE',
                                  VARI_SECT = 'HOMOTHETIQUE',
                                  CARA = ('R1', 'R2', 'EP1', 'EP2',),
                                  VALE = (0.0650, 0.06375, 0.02, 0.02,),),
                              _F(MAILLE='M30',
                                  SECTION='CERCLE',
                                  VARI_SECT = 'HOMOTHETIQUE',
                                  CARA = ('R1', 'R2', 'EP1', 'EP2',),
                                  VALE = (0.06375, 0.0625, 0.02, 0.02,),),
                              _F(MAILLE='M31',
                                  SECTION='CERCLE',
                                  VARI_SECT = 'HOMOTHETIQUE',
                                  CARA = ('R1', 'R2', 'EP1', 'EP2',),
                                  VALE = (0.0625, 0.06125, 0.02, 0.02,),),
                              _F(MAILLE='M32',
                                  SECTION='CERCLE',
                                  VARI_SECT = 'HOMOTHETIQUE',
                                  CARA = ('R1', 'R2', 'EP1', 'EP2',),
                                  VALE = (0.06125, 0.06000, 0.02, 0.02,),),
                              _F(MAILLE='M33',
                                  SECTION='CERCLE',
                                  VARI_SECT = 'HOMOTHETIQUE',
                                  CARA = ('R1', 'R2', 'EP1', 'EP2',),
                                  VALE = (0.06000, 0.05875, 0.02, 0.02,),),
                              _F(MAILLE='M34',
                                  SECTION='CERCLE',
                                  VARI_SECT = 'HOMOTHETIQUE',
                                  CARA = ('R1', 'R2', 'EP1', 'EP2',),
                                  VALE = (0.05875, 0.0575, 0.02, 0.02,),),
                              _F(MAILLE='M35',
                                  SECTION='CERCLE',
                                  VARI_SECT = 'HOMOTHETIQUE',
                                  CARA = ('R1', 'R2', 'EP1', 'EP2',),
                                  VALE = (0.0575, 0.05625, 0.02, 0.02,),),
                              _F(MAILLE='M36',
                                  SECTION='CERCLE',
                                  VARI_SECT = 'HOMOTHETIQUE',
                                  CARA = ('R1', 'R2', 'EP1', 'EP2',),
                                  VALE = (0.05625, 0.0550, 0.02, 0.02,),),
                              _F(MAILLE='M37',
                                  SECTION='CERCLE',
                                  VARI_SECT = 'HOMOTHETIQUE',
                                  CARA = ('R1', 'R2', 'EP1', 'EP2',),
                                  VALE = (0.0550, 0.05375, 0.02, 0.02,),),
                              _F(MAILLE='M38',
                                  SECTION='CERCLE',
                                  VARI_SECT = 'HOMOTHETIQUE',
                                  CARA = ('R1', 'R2', 'EP1', 'EP2',),
                                  VALE = (0.05375, 0.0525, 0.02, 0.02,),),
                              _F(MAILLE='M39',
                                  SECTION='CERCLE',
                                  VARI_SECT = 'HOMOTHETIQUE',
                                  CARA = ('R1', 'R2', 'EP1', 'EP2',),
                                  VALE = (0.0525, 0.05125, 0.02, 0.02,),),
                              _F(MAILLE='M40',
                                  SECTION='CERCLE',
                                  VARI_SECT = 'HOMOTHETIQUE',
                                  CARA = ('R1', 'R2', 'EP1', 'EP2',),
                                  VALE = (0.05125, 0.05000, 0.02, 0.02,),),
                              ),
                        );
                                 
# ------------------
# CONDITIONS AUX LIMITES
# ------------------
BLOQUAGE=AFFE_CHAR_MECA(MODELE=MODELE,
                        DDL_IMPO=(_F(GROUP_NO=('PALIER_A','PALIER_E'),
                                     DX=0., DY=0., DZ=0., DRX=0.),
                                   ))

# --------------------------------
# MATRICES ASSEMBLEES K, M
# --------------------------------                                    
MACRO_MATR_ASSE(MODELE=MODELE,
                CHAM_MATER=CHMAT,
                CARA_ELEM=CARELEM,
                CHARGE=BLOQUAGE,
                NUME_DDL=CO('NUMEDDL'),
                MATR_ASSE=(_F(MATRICE=CO('RIGIDITE'),
                              OPTION='RIGI_MECA',),
                           _F(MATRICE=CO('MASSE'),
                              OPTION='MASS_MECA',),
                           _F(MATRICE=CO('AMOR'),
                              OPTION='AMOR_MECA',),),);

GYELEM=CALC_MATR_ELEM(OPTION='MECA_GYRO',
                      MODELE=MODELE,
                      CHAM_MATER=CHMAT,
                      CARA_ELEM=CARELEM,);

GYASS=ASSE_MATRICE(MATR_ELEM=GYELEM,
                   NUME_DDL=NUMEDDL,);

MODES=MODE_ITER_SIMULT(MATR_A=RIGIDITE,
                       MATR_B=MASSE,
                       CALC_FREQ=_F(OPTION='BANDE',
                                    FREQ=(3.,4750.)));
                                               
TEST_RESU(RESU=(_F(RESULTAT=MODES,
                  REFERENCE='SOURCE_EXTERNE',
                  NUME_ORDRE=1,
                  PARA='FREQ',
                  PRECISION=.01,
                  VALE=332.14,),
                _F(RESULTAT=MODES,
                  REFERENCE='SOURCE_EXTERNE',
                  NUME_ORDRE=2,
                  PARA='FREQ',
                  PRECISION=.01,
                  VALE=332.14,),
               _F(RESULTAT=MODES,
                  REFERENCE='SOURCE_EXTERNE',
                  NUME_ORDRE=3,
                  PARA='FREQ',
                  PRECISION=.01,
                  VALE=1193.81,),
               _F(RESULTAT=MODES,
                  REFERENCE='SOURCE_EXTERNE',
                  NUME_ORDRE=4,
                  PARA='FREQ',
                  PRECISION=.01,
                  VALE=1193.81,),
               _F(RESULTAT=MODES,
                  REFERENCE='SOURCE_EXTERNE',
                  NUME_ORDRE=5,
                  PARA='FREQ',
                  PRECISION=.01,
                  VALE=1607.19,),
                _F(RESULTAT=MODES,
                  REFERENCE='SOURCE_EXTERNE',
                  NUME_ORDRE=6,
                  PARA='FREQ',
                  PRECISION=.01,
                  VALE=2291.51,),
               _F(RESULTAT=MODES,
                  REFERENCE='SOURCE_EXTERNE',
                  NUME_ORDRE=7,
                  PARA='FREQ',
                  PRECISION=.01,
                  VALE=2291.51,),
               _F(RESULTAT=MODES,
                  REFERENCE='SOURCE_EXTERNE',
                  NUME_ORDRE=8,
                  PARA='FREQ',
                  PRECISION=.01,
                  VALE=2512.22,),
               _F(RESULTAT=MODES,
                  REFERENCE='SOURCE_EXTERNE',
                  NUME_ORDRE=9,
                  PARA='FREQ',
                  PRECISION=.01,
                  VALE=3160.39,),
                _F(RESULTAT=MODES,
                  REFERENCE='SOURCE_EXTERNE',
                  NUME_ORDRE=10,
                  PARA='FREQ',
                  PRECISION=.01,
                  VALE=3520.23,),
                _F(RESULTAT=MODES,
                  REFERENCE='SOURCE_EXTERNE',
                  NUME_ORDRE=11,
                  PARA='FREQ',
                  PRECISION=.01,
                  VALE=3520.23,),
                _F(RESULTAT=MODES,
                  REFERENCE='SOURCE_EXTERNE',
                  NUME_ORDRE=12,
                  PARA='FREQ',
                  PRECISION=.01,
                  VALE=4724.14,),))

OM=4000.*pi/30.

GYOM=COMB_MATR_ASSE(COMB_R=(_F(MATR_ASSE=GYASS, COEF_R=OM,),
                            _F(MATR_ASSE=AMOR, COEF_R=1.,),))

MACRO_PROJ_BASE(BASE=MODES,
                PROFIL='PLEIN',
                MATR_ASSE_GENE=(_F(MATRICE=CO('MAGE'),
                                   MATR_ASSE=MASSE,),
                                _F(MATRICE=CO('RIGE'),
                                   MATR_ASSE=RIGIDITE,),
                                _F(MATRICE=CO('OMGE'),
                                   MATR_ASSE=GYOM,),),);

MOD2ETAG=MODE_ITER_SIMULT(MATR_A=RIGE,
                          MATR_B=MAGE,
                          MATR_C=OMGE,
                          METHODE='QZ',
                          VERI_MODE=_F(SEUIL=2.E-6),
                          CALC_FREQ=_F(OPTION='TOUT'),)

TEST_RESU(RESU=(
# POUR QZ
          _F( RESULTAT = MOD2ETAG, PARA = 'FREQ',
                CRITERE = 'RELATIF', PRECISION = 5.E-4,
                NUME_ORDRE = 1,  VALE = 331.512614431, REFERENCE='NON_REGRESSION',),
          _F( RESULTAT = MOD2ETAG, PARA = 'FREQ',
                CRITERE = 'RELATIF', PRECISION = 5.E-4,
                NUME_ORDRE = 2,  VALE = 334.106166663, REFERENCE='NON_REGRESSION',),
          _F( RESULTAT = MOD2ETAG, PARA = 'FREQ',
                CRITERE = 'RELATIF', PRECISION = 5.E-4,
                NUME_ORDRE = 3,  VALE = 1196.30230709, REFERENCE='NON_REGRESSION',),
          _F( RESULTAT = MOD2ETAG, PARA = 'FREQ',
                CRITERE = 'RELATIF', PRECISION = 5.E-4,
                NUME_ORDRE = 4,  VALE = 1202.05610868, REFERENCE='NON_REGRESSION',),
          _F( RESULTAT = MOD2ETAG, PARA = 'FREQ',
                CRITERE = 'RELATIF', PRECISION = 5.E-4,
                NUME_ORDRE = 5,  VALE = 1607.14090742, REFERENCE='NON_REGRESSION',),
          _F( RESULTAT = MOD2ETAG, PARA = 'FREQ',
                CRITERE = 'RELATIF', PRECISION = 5.E-4,
                NUME_ORDRE = 6,  VALE = 2304.73001161, REFERENCE='NON_REGRESSION',),
          _F( RESULTAT = MOD2ETAG, PARA = 'FREQ',
                CRITERE = 'RELATIF', PRECISION = 5.E-4,
                NUME_ORDRE = 7,  VALE = 2312.08858304, REFERENCE='NON_REGRESSION',),
          _F( RESULTAT = MOD2ETAG, PARA = 'FREQ',
                CRITERE = 'RELATIF', PRECISION = 5.E-4,
                NUME_ORDRE = 8,  VALE = 2512.22230833, REFERENCE='NON_REGRESSION',),
          _F( RESULTAT = MOD2ETAG, PARA = 'FREQ',
                CRITERE = 'RELATIF', PRECISION = 5.E-4,
                NUME_ORDRE = 9,  VALE = 3162.68020631, REFERENCE='NON_REGRESSION',),
          _F( RESULTAT = MOD2ETAG, PARA = 'FREQ',
                CRITERE = 'RELATIF', PRECISION = 5.E-4,
                NUME_ORDRE = 10,  VALE = 3516.43308274, REFERENCE='NON_REGRESSION',),
          _F( RESULTAT = MOD2ETAG, PARA = 'FREQ',
                CRITERE = 'RELATIF', PRECISION = 5.E-4,
                NUME_ORDRE = 11,  VALE = 3524.02087347, REFERENCE='NON_REGRESSION',),
          _F( RESULTAT = MOD2ETAG, PARA = 'FREQ',
                CRITERE = 'RELATIF', PRECISION = 5.E-4,
                NUME_ORDRE = 12,  VALE = 4733.60950361, REFERENCE='NON_REGRESSION',),
                ),)


FIN()

