# ======================================================================
# COPYRIGHT (C) 1991 - 2016  EDF R&D                  WWW.CODE-ASTER.ORG
# THIS PROGRAM IS FREE SOFTWARE; YOU CAN REDISTRIBUTE IT AND/OR MODIFY
# IT UNDER THE TERMS OF THE GNU GENERAL PUBLIC LICENSE AS PUBLISHED BY
# THE FREE SOFTWARE FOUNDATION; EITHER VERSION 2 OF THE LICENSE, OR
# (AT YOUR OPTION) ANY LATER VERSION.
#
# THIS PROGRAM IS DISTRIBUTED IN THE HOPE THAT IT WILL BE USEFUL, BUT
# WITHOUT ANY WARRANTY; WITHOUT EVEN THE IMPLIED WARRANTY OF
# MERCHANTABILITY OR FITNESS FOR A PARTICULAR PURPOSE. SEE THE GNU
# GENERAL PUBLIC LICENSE FOR MORE DETAILS.
#
# YOU SHOULD HAVE RECEIVED A COPY OF THE GNU GENERAL PUBLIC LICENSE
# ALONG WITH THIS PROGRAM; IF NOT, WRITE TO EDF R&D CODE_ASTER,
#    1 AVENUE DU GENERAL DE GAULLE, 92141 CLAMART CEDEX, FRANCE.
# ======================================================================
# CAS_TEST__: SDLL02B
# SDLL02/B                COMMANDES                             17/1/95
# POUTRE ELANCEE ENCASTREE-LIBRE REPLIEE SUR ELLE-MEME
# SECTION RECT: 5*50MM --- L=2*0.5M --- 2D
#                                                  REF: SFM.VPCS SDLL02
# MODELISATION POU_D_E: 21 NOEUDS  --   20 MAILLES SEG2
# POINTS  A    B    C
# MODELISATION :
#    CONDITIONS AUX LIMITES IMPOSEES PAR AFFE_CHAR_CINE
#    RECHERCHE DES ELEMENTS PROPRES : METHODE JACOBI
#=======================================================================

DEBUT(CODE=_F(NIV_PUB_WEB='INTERNET'),DEBUG=_F(SDVERI='OUI'))

MA=LIRE_MAILLAGE(  )

MA=DEFI_GROUP( reuse=MA,   MAILLAGE=MA,
  CREA_GROUP_MA=_F(  NOM = 'TOUT', TOUT = 'OUI'))

MO=AFFE_MODELE(  MAILLAGE=MA,
                  AFFE=_F(  TOUT = 'OUI',    PHENOMENE = 'MECANIQUE',
                         MODELISATION = 'POU_D_E')  )

CARELEM=AFFE_CARA_ELEM(  MODELE=MO,
             POUTRE=_F(
       GROUP_MA = 'TOUT',
     SECTION = 'RECTANGLE',
                      CARA = (  'HY',   'HZ', ),
                      VALE = ( 0.005,  0.050, ))  )

MAT=DEFI_MATERIAU( ELAS=_F(  E = 2.1E+11,    NU = 0.3,    RHO = 7800.) )

CHMAT=AFFE_MATERIAU(  MAILLAGE=MA,
          AFFE=_F(  TOUT = 'OUI',     MATER = MAT) )

#   PB PLAN --- POINT A ENCASTRE
CH2=AFFE_CHAR_CINE(  MODELE=MO,MECA_IMPO=(
       _F(  TOUT = 'OUI', DZ = 0., DRX = 0., DRY = 0.),
                _F(  NOEUD = 'A',   DX = 0., DY = 0.,  DRZ = 0.)) )

#--------------------------------------------------------------------
# DEUXIEME MODELISATION

MELR2=CALC_MATR_ELEM(  MODELE=MO,
                         CARA_ELEM=CARELEM,
                         CHAM_MATER=CHMAT,   OPTION='RIGI_MECA' )

MELM2=CALC_MATR_ELEM(  MODELE=MO,
                         CARA_ELEM=CARELEM,
                         CHAM_MATER=CHMAT,   OPTION='MASS_MECA' )

NUM2=NUME_DDL(  MATR_RIGI=MELR2 )

MATASSR2=ASSE_MATRICE(  MATR_ELEM=MELR2,   NUME_DDL=NUM2,
                           CHAR_CINE=CH2 )

MATASSM2=ASSE_MATRICE(  MATR_ELEM=MELM2,   NUME_DDL=NUM2,
                           CHAR_CINE=CH2)

#--------------------------------------------------------------------


FREQ2=CALC_MODES(MATR_RIGI=MATASSR2,
                 OPTION='PLUS_PETITE',
                 CALC_FREQ=_F(NMAX_FREQ=8,
                              ),
                 TITRE='METHODE DE BATHE ET WILSON',
                 MATR_MASS=MATASSM2,
                 SOLVEUR_MODAL=_F(METHODE='JACOBI',
                                  ),
                 )


TEST_RESU(RESU=(_F(NUME_ORDRE=1,
                   PARA='FREQ',
                   RESULTAT=FREQ2,
                   VALE_CALC=11.7641834045,
                   VALE_REFE=11.76,
                   REFERENCE='ANALYTIQUE',
                   CRITERE='RELATIF',
                   PRECISION=1.E-3,),
                _F(NUME_ORDRE=2,
                   PARA='FREQ',
                   RESULTAT=FREQ2,
                   VALE_CALC=11.7641834381,
                   VALE_REFE=11.76,
                   REFERENCE='ANALYTIQUE',
                   CRITERE='RELATIF',
                   PRECISION=1.E-3,),
                _F(NUME_ORDRE=3,
                   PARA='FREQ',
                   RESULTAT=FREQ2,
                   VALE_CALC=105.881130032,
                   VALE_REFE=105.88,
                   REFERENCE='ANALYTIQUE',
                   CRITERE='RELATIF',
                   PRECISION=1.E-3,),
                _F(NUME_ORDRE=4,
                   PARA='FREQ',
                   RESULTAT=FREQ2,
                   VALE_CALC=105.881203672,
                   VALE_REFE=105.88,
                   REFERENCE='ANALYTIQUE',
                   CRITERE='RELATIF',
                   PRECISION=1.E-3,),
                _F(NUME_ORDRE=5,
                   PARA='FREQ',
                   RESULTAT=FREQ2,
                   VALE_CALC=294.177995325,
                   VALE_REFE=294.10000000000002,
                   REFERENCE='ANALYTIQUE',
                   CRITERE='RELATIF',
                   PRECISION=1.E-3,),
                _F(NUME_ORDRE=6,
                   PARA='FREQ',
                   RESULTAT=FREQ2,
                   VALE_CALC=294.180625511,
                   VALE_REFE=294.10000000000002,
                   REFERENCE='ANALYTIQUE',
                   CRITERE='RELATIF',
                   PRECISION=1.E-3,),
                _F(NUME_ORDRE=7,
                   PARA='FREQ',
                   RESULTAT=FREQ2,
                   VALE_CALC=576.98022671,
                   VALE_REFE=576.44000000000005,
                   REFERENCE='ANALYTIQUE',
                   CRITERE='RELATIF',
                   PRECISION=1.E-3,),
                _F(NUME_ORDRE=8,
                   PARA='FREQ',
                   RESULTAT=FREQ2,
                   VALE_CALC=577.007933722,
                   VALE_REFE=576.44000000000005,
                   REFERENCE='ANALYTIQUE',
                   CRITERE='RELATIF',
                   PRECISION=1.E-3,),
                ),)


FIN()
#
