# TITRE HARMONIQUE D'UN ARBRE MUNI DE TROIS DISQUES : DYNA_VIBRA
#            CONFIGURATION MANAGEMENT OF EDF VERSION
# ======================================================================
# COPYRIGHT (C) 1991 - 2012  EDF R&D                  WWW.CODE-ASTER.ORG
# THIS PROGRAM IS FREE SOFTWARE; YOU CAN REDISTRIBUTE IT AND/OR MODIFY
# IT UNDER THE TERMS OF THE GNU GENERAL PUBLIC LICENSE AS PUBLISHED BY
# THE FREE SOFTWARE FOUNDATION; EITHER VERSION 2 OF THE LICENSE, OR
# (AT YOUR OPTION) ANY LATER VERSION.
#
# THIS PROGRAM IS DISTRIBUTED IN THE HOPE THAT IT WILL BE USEFUL, BUT
# WITHOUT ANY WARRANTY; WITHOUT EVEN THE IMPLIED WARRANTY OF
# MERCHANTABILITY OR FITNESS FOR A PARTICULAR PURPOSE. SEE THE GNU
# GENERAL PUBLIC LICENSE FOR MORE DETAILS.
#
# YOU SHOULD HAVE RECEIVED A COPY OF THE GNU GENERAL PUBLIC LICENSE
# ALONG WITH THIS PROGRAM; IF NOT, WRITE TO EDF R&D CODE_ASTER,
#    1 AVENUE DU GENERAL DE GAULLE, 92141 CLAMART CEDEX, FRANCE.
# ======================================================================
# CAS_TEST__:SDLL126D
#

DEBUT(CODE=_F(NOM='SDLL126D',
              NIV_PUB_WEB='INTERNET',
VISU_EFICAS='OUI',),DEBUG=_F(SDVERI='OUI'))

MAIL=LIRE_MAILLAGE();

MODELE=AFFE_MODELE(MAILLAGE=MAIL,
                   AFFE=(_F(GROUP_MA='ROTOR',
                            PHENOMENE='MECANIQUE',
                            MODELISATION='POU_D_T',),
                         _F(GROUP_MA=('PALIER_A','PALIER_E','DISQUE1','DISQUE2','DISQUE3',),
                            PHENOMENE='MECANIQUE',
                            MODELISATION='DIS_TR',),),);

ACIER=DEFI_MATERIAU(ELAS=_F(E=2.0E11,
                            NU=0.3,
                            RHO=7800.0,),);

CHMAT=AFFE_MATERIAU(MAILLAGE=MAIL,
                    AFFE=_F(GROUP_MA='ROTOR',
                            MATER=ACIER,),);

CARELEM=AFFE_CARA_ELEM(MODELE=MODELE,
                       POUTRE=_F(GROUP_MA='ROTOR',
                                 SECTION='CERCLE',
                                 CARA='R',
                                 VALE=.05,
                                 ),
                       DISCRET=(_F(CARA='K_TR_D_N',
                                   GROUP_MA='PALIER_A',
                                   REPERE='LOCAL',
                                   VALE=(0.,5.E7,7.E7,0.,0.,0.,),),
                                _F(CARA='M_TR_D_N',
                                   GROUP_MA='PALIER_A',
                                   REPERE='LOCAL',
                                   VALE=(0.,0.,0.,0.,0.,0.,0.,0.,0.,0.,),),
                                _F(CARA='K_TR_D_N',
                                   GROUP_MA='PALIER_E',
                                   REPERE='LOCAL',
                                   VALE=(0.,5.E7,7.E7,0.,0.,0.,),),
                                _F(CARA='M_TR_D_N',
                                   GROUP_MA='PALIER_E',
                                   REPERE='LOCAL',
                                   VALE=(0.,0.,0.,0.,0.,0.,0.,0.,0.,0.,),),
                                _F(CARA='A_TR_D_N',
                                   GROUP_MA='PALIER_A',
                                   REPERE='LOCAL',
                                   VALE=(0.,5000.,7000.,0.,0.,0.,),),
                                _F(CARA='A_TR_D_N',
                                   GROUP_MA='PALIER_E',
                                   REPERE='LOCAL',
                                   VALE=(0.,5000.,7000.,0.,0.,0.,),),
                                _F(CARA='M_TR_D_N',
                                   GROUP_MA='DISQUE1',
                                   REPERE='LOCAL',
                                   VALE=(14.580130,0.1232021,0.06463858,0.06463858,0.,0.,0.,0.,0.,0.,),),
                                _F(CARA='M_TR_D_N',
                                   GROUP_MA='DISQUE2',
                                   REPERE='LOCAL',
                                   VALE=(45.945793,0.97634809,0.4977460,0.4977460,0.,0.,0.,0.,0.,0.,),),
                                _F(CARA='M_TR_D_N',
                                   GROUP_MA='DISQUE3',
                                   REPERE='LOCAL',
                                   VALE=(55.134951,1.1716177,0.6023493,0.6023493,0.,0.,0.,0.,0.,0.,),),),
                      ORIENTATION=_F(GROUP_MA=('DISQUE1','DISQUE2','DISQUE3','PALIER_A','PALIER_E'),
                                      CARA='ANGL_NAUT',
                                      VALE=(0.,-90.,0.,),),);

BLOQUAGE=AFFE_CHAR_MECA(MODELE=MODELE,
                        DDL_IMPO=(_F(GROUP_NO='PALIER_A',
                                     DZ=0.0,),
                                  _F(GROUP_MA='ROTOR',
                                     DRZ=0.0,),),);

balou = 0.05;


FUN=DEFI_CONSTANTE(VALE=1.0,);
NTRIM = 15000.0;

FREQ = (NTRIM / 60.0);

OM = ((FREQ * 2) * pi);

bal_FY=AFFE_CHAR_MECA(MODELE=MODELE,
                      FORCE_NODALE=_F(GROUP_NO='N_DIS2',
                                      FY=(balou * (OM ** 2)),),);

bal_FX=AFFE_CHAR_MECA(MODELE=MODELE,
                      FORCE_NODALE=_F(GROUP_NO='N_DIS2',
                                      FX=(balou * (OM ** 2)),),);
ASSEMBLAGE(MODELE=MODELE,
                CHAM_MATER=CHMAT,
                CARA_ELEM=CARELEM,
                CHARGE=BLOQUAGE,
                NUME_DDL=CO('NUMEDDL'),
                MATR_ASSE=(_F(MATRICE=CO('RIGIDITE'),
                              OPTION='RIGI_MECA',),
                           _F(MATRICE=CO('MASSE'),
                              OPTION='MASS_MECA',),
                           _F(MATRICE=CO('MASDIAG'),
                              OPTION='MASS_MECA_DIAG',),
                           _F(MATRICE=CO('GYRO'),
                              OPTION='MECA_GYRO',),
                           _F(MATRICE=CO('AMOR'),
                              OPTION='AMOR_MECA',),),
                VECT_ASSE=(_F(VECTEUR=CO("bal_Yass"),
                              OPTION='CHAR_MECA',
                              CHARGE=bal_FY),
                           _F(VECTEUR=CO("bal_Xass"),
                              OPTION='CHAR_MECA',
                              CHARGE=bal_FX),
                           ),
            );



AMOGYRO=COMB_MATR_ASSE(COMB_R=(_F(MATR_ASSE=GYRO,
                                  COEF_R=OM,),
                               _F(MATR_ASSE=AMOR,
                                  COEF_R=1.0,),),);

MQ_SO=MODE_ITER_SIMULT( INFO=1,
                       MATR_RIGI=RIGIDITE,
                       MATR_MASS=MASSE,
                       MATR_AMOR=AMOGYRO,
                       METHODE='QZ',
                       CALC_FREQ=_F(OPTION='CENTRE',FREQ=10.,NMAX_FREQ=10,
                                    APPROCHE='COMPLEXE',),
                       VERI_MODE=_F(PREC_SHIFT=5.0000000000000001E-3,
                                    STOP_ERREUR='NON',
                                    STURM='OUI',
                                    SEUIL=9.9999999999999995E-07),
                        )

DHAM=DYNA_VIBRA(TYPE_CALCUL='HARM',BASE_CALCUL='PHYS',
                    MATR_MASS=MASSE,
                    MATR_RIGI=RIGIDITE,
                    MATR_AMOR=AMOGYRO,
                    FREQ=FREQ,
                    EXCIT=(_F(VECT_ASSE=bal_Xass,
                              FONC_MULT=FUN,
                              PHAS_DEG=0.0,),
                           _F(VECT_ASSE=bal_Yass,
                              FONC_MULT=FUN,
                              PHAS_DEG=-90.0,),
                           ),
                              );

DX_DIS2=RECU_FONCTION(RESULTAT=DHAM,
                   NOM_CHAM='DEPL',
                   NOM_CMP='DX',
                   GROUP_NO='N_DIS2',);

DY_DIS2=RECU_FONCTION(RESULTAT=DHAM,
                   NOM_CHAM='DEPL',
                   NOM_CMP='DY',
                   GROUP_NO='N_DIS2',);

MOD_X_D2=CALC_FONCTION(EXTRACTION=_F(FONCTION=DX_DIS2,
                                     PARTIE='MODULE',),);

MOD_Y_D2=CALC_FONCTION(EXTRACTION=_F(FONCTION=DY_DIS2,
                                     PARTIE='MODULE',),);

PHA_X_D2=CALC_FONCTION(EXTRACTION=_F(FONCTION=DX_DIS2,
                                     PARTIE='PHASE',),);

PHA_Y_D2=CALC_FONCTION(EXTRACTION=_F(FONCTION=DY_DIS2,
                                     PARTIE='PHASE',),);

TEST_FONCTION(VALEUR=_F(VALE_CALC=0.000571541171524,
                        VALE_REFE=5.7209999999999997E-4,
                        VALE_PARA=250.0,
                        REFERENCE='AUTRE_ASTER',
                        FONCTION=MOD_Y_D2,),
              )

TEST_FONCTION(VALEUR=_F(VALE_CALC=0.000701725744103,
                        VALE_REFE=7.0229999999999999E-4,
                        VALE_PARA=250.0,
                        REFERENCE='AUTRE_ASTER',
                        FONCTION=MOD_X_D2,),
              )

TEST_FONCTION(VALEUR=_F(VALE_CALC=97.9227125372,
                        VALE_REFE=97.920000000000002,
                        VALE_PARA=250.0,
                        REFERENCE='AUTRE_ASTER',
                        FONCTION=PHA_Y_D2,),
              )

TEST_FONCTION(VALEUR=_F(VALE_CALC=-173.921320614,
                        VALE_REFE=-173.91,
                        VALE_PARA=250.0,
                        REFERENCE='AUTRE_ASTER',
                        FONCTION=PHA_X_D2,),
              )

FIN();
