# ======================================================================
# COPYRIGHT (C) 1991 - 2016  EDF R&D                  WWW.CODE-ASTER.ORG
# THIS PROGRAM IS FREE SOFTWARE; YOU CAN REDISTRIBUTE IT AND/OR MODIFY
# IT UNDER THE TERMS OF THE GNU GENERAL PUBLIC LICENSE AS PUBLISHED BY
# THE FREE SOFTWARE FOUNDATION; EITHER VERSION 2 OF THE LICENSE, OR
# (AT YOUR OPTION) ANY LATER VERSION.
#
# THIS PROGRAM IS DISTRIBUTED IN THE HOPE THAT IT WILL BE USEFUL, BUT
# WITHOUT ANY WARRANTY; WITHOUT EVEN THE IMPLIED WARRANTY OF
# MERCHANTABILITY OR FITNESS FOR A PARTICULAR PURPOSE. SEE THE GNU
# GENERAL PUBLIC LICENSE FOR MORE DETAILS.
#
# YOU SHOULD HAVE RECEIVED A COPY OF THE GNU GENERAL PUBLIC LICENSE
# ALONG WITH THIS PROGRAM; IF NOT, WRITE TO EDF R&D CODE_ASTER,
#    1 AVENUE DU GENERAL DE GAULLE, 92141 CLAMART CEDEX, FRANCE.
# ======================================================================
# EN LIBRE-LIBRE
# UTILISATION D'UNE MATRICE DE MASSE DIAGONALE
# ELEMENTS  : MEPOUDT
# REFERENCE : GUIDE VPCS

DEBUT(CODE=_F(NIV_PUB_WEB='INTERNET'), DEBUG=_F(SDVERI='OUI'))

ACIER=DEFI_MATERIAU(
                         ELAS=_F(  RHO = 2700.,
                           NU = 0.3,
                           E = 7.2E10))

MAYA=LIRE_MAILLAGE(FORMAT='MED', )

MATER=AFFE_MATERIAU(    MAILLAGE=MAYA,
                                 AFFE=_F(  TOUT = 'OUI',
                                        MATER = ACIER))

STRUCTUR=AFFE_MODELE(    MAILLAGE=MAYA,
                               AFFE=_F(  TOUT = 'OUI',
                                      MODELISATION = 'POU_D_T',
                                      PHENOMENE = 'MECANIQUE'))

CARA=AFFE_CARA_ELEM(     MODELE=STRUCTUR,
                               POUTRE=_F(
                            GROUP_MA = ('PART1', 'PART2',),
                            SECTION = 'RECTANGLE',
                            CARA = ( 'HY',  'HZ', ),
                            VALE = ( 0.005,  0.01,   )),
                          )

# CALCUL DES MATRICES ELEMENTAIRES DE RIGIDITE ET DE MASSE

K_ELEM=CALC_MATR_ELEM(        MODELE=STRUCTUR,
                                 CARA_ELEM=CARA,
                                CHAM_MATER=MATER,
                                   OPTION='RIGI_MECA' )

M_ELEM=CALC_MATR_ELEM(        MODELE=STRUCTUR,
                                 CARA_ELEM=CARA,
                                CHAM_MATER=MATER,
                                   OPTION='MASS_MECA_DIAG' )

# NUMEROTATION

NUMERO=NUME_DDL(    MATR_RIGI=K_ELEM )

# ASSEMBLAGE DES MATRICES DE RIGIDITE ET DE MASSE


K_ASSE=ASSE_MATRICE(    MATR_ELEM=K_ELEM,
                             NUME_DDL=NUMERO )

M_ASSE=ASSE_MATRICE(    MATR_ELEM=M_ELEM,
                             NUME_DDL=NUMERO )

# CALCUL DES MODES PAR SORENSEN

MODE1=CALC_MODES(MATR_RIGI=K_ASSE,
                 OPTION='BANDE',
                 CALC_FREQ=_F(FREQ=( 200.,3500.,),
                              ),
                 MATR_MASS=M_ASSE,
                 )

TEST_RESU(RESU=(_F(PARA='FREQ',
                   NUME_MODE=7,
                   REFERENCE='SOURCE_EXTERNE',
                   RESULTAT=MODE1,
                   VALE_CALC=318.17728460,
                   VALE_REFE=318.36000000000001,
                   CRITERE='RELATIF',
                   PRECISION=1.0000000000000001E-3,),
                _F(PARA='FREQ',
                   NUME_MODE=8,
                   REFERENCE='SOURCE_EXTERNE',
                   RESULTAT=MODE1,
                   VALE_CALC=318.177284609,
                   VALE_REFE=318.36000000000001,
                   CRITERE='RELATIF',
                   PRECISION=1.0000000000000001E-3,),
                _F(PARA='FREQ',
                   NUME_MODE=9,
                   REFERENCE='SOURCE_EXTERNE',
                   RESULTAT=MODE1,
                   VALE_CALC=506.939103154,
                   VALE_REFE=511.0,
                   CRITERE='RELATIF',
                   PRECISION=8.5000000000000006E-3,),
                _F(PARA='FREQ',
                   NUME_MODE=10,
                   REFERENCE='SOURCE_EXTERNE',
                   RESULTAT=MODE1,
                   VALE_CALC=506.939103161,
                   VALE_REFE=511.0,
                   CRITERE='RELATIF',
                   PRECISION=8.5000000000000006E-3,),
                _F(PARA='FREQ',
                   NUME_MODE=11,
                   REFERENCE='SOURCE_EXTERNE',
                   RESULTAT=MODE1,
                   VALE_CALC=898.113092102,
                   VALE_REFE=900.46000000000004,
                   CRITERE='RELATIF',
                   PRECISION=6.0000000000000001E-3,),
                _F(PARA='FREQ',
                   NUME_MODE=12,
                   REFERENCE='SOURCE_EXTERNE',
                   RESULTAT=MODE1,
                   VALE_CALC=898.113092102,
                   VALE_REFE=900.46000000000004,
                   CRITERE='RELATIF',
                   PRECISION=6.0000000000000001E-3,),
                _F(PARA='FREQ',
                   NUME_MODE=13,
                   REFERENCE='SOURCE_EXTERNE',
                   RESULTAT=MODE1,
                   VALE_CALC= 1567.663934,
                   VALE_REFE=1590.0,
                   CRITERE='RELATIF',
                   PRECISION=0.014999999999999999,),
                _F(PARA='FREQ',
                   NUME_MODE=14,
                   REFERENCE='SOURCE_EXTERNE',
                   RESULTAT=MODE1,
                   VALE_CALC= 1567.663934,
                   VALE_REFE=1590.0,
                   CRITERE='RELATIF',
                   PRECISION=0.014999999999999999,),
                _F(PARA='FREQ',
                   NUME_MODE=15,
                   REFERENCE='SOURCE_EXTERNE',
                   RESULTAT=MODE1,
                   VALE_CALC= 1716.99004909,
                   VALE_REFE=1726.55,
                   CRITERE='RELATIF',
                   PRECISION=0.010999999999999999,),
                _F(PARA='FREQ',
                   NUME_MODE=16,
                   REFERENCE='SOURCE_EXTERNE',
                   RESULTAT=MODE1,
                   VALE_CALC= 1716.99004909,
                   VALE_REFE=1726.55,
                   CRITERE='RELATIF',
                   PRECISION=0.010999999999999999,),
                _F(PARA='FREQ',
                   NUME_MODE=17,
                   REFERENCE='SOURCE_EXTERNE',
                   RESULTAT=MODE1,
                   VALE_CALC= 2766.1655485,
                   VALE_REFE=2792.21,
                   CRITERE='RELATIF',
                   PRECISION=0.017000000000000001,),
                _F(PARA='FREQ',
                   NUME_MODE=18,
                   REFERENCE='SOURCE_EXTERNE',
                   RESULTAT=MODE1,
                   VALE_CALC= 2766.1655485,
                   VALE_REFE=2792.21,
                   CRITERE='RELATIF',
                   PRECISION=0.017000000000000001,),
                _F(PARA='FREQ',
                   NUME_MODE=19,
                   REFERENCE='SOURCE_EXTERNE',
                   RESULTAT=MODE1,
                   VALE_CALC= 3114.19467481,
                   VALE_REFE=3184.0,
                   CRITERE='RELATIF',
                   PRECISION=0.024,),
                _F(PARA='FREQ',
                   NUME_MODE=20,
                   REFERENCE='SOURCE_EXTERNE',
                   RESULTAT=MODE1,
                   VALE_CALC= 3114.19467481,
                   VALE_REFE=3184.0,
                   CRITERE='RELATIF',
                   PRECISION=0.024,),
                ),
          )

FIN()
#
