# MODIF  DATE 16/10/2012   AUTEUR ALARCON A.ALARCON 

# TITRE SIMPLE POUTRE VERTICALE MONTEE SUR UN RESSORT SOUMISE A UN SEISME
# sdll147a.para = tps_job 60 mem_job 512Mo ncpus 1 liste_test R
#            CONFIGURATION MANAGEMENT OF EDF VERSION
# ======================================================================
# COPYRIGHT (C) 1991 - 2012  EDF R&D                  WWW.CODE-ASTER.ORG
# THIS PROGRAM IS FREE SOFTWARE; YOU CAN REDISTRIBUTE IT AND/OR MODIFY
# IT UNDER THE TERMS OF THE GNU GENERAL PUBLIC LICENSE AS PUBLISHED BY
# THE FREE SOFTWARE FOUNDATION; EITHER VERSION 2 OF THE LICENSE, OR
# (AT YOUR OPTION) ANY LATER VERSION.
#
# THIS PROGRAM IS DISTRIBUTED IN THE HOPE THAT IT WILL BE USEFUL, BUT
# WITHOUT ANY WARRANTY; WITHOUT EVEN THE IMPLIED WARRANTY OF
# MERCHANTABILITY OR FITNESS FOR A PARTICULAR PURPOSE. SEE THE GNU
# GENERAL PUBLIC LICENSE FOR MORE DETAILS.
#
# YOU SHOULD HAVE RECEIVED A COPY OF THE GNU GENERAL PUBLIC LICENSE
# ALONG WITH THIS PROGRAM; IF NOT, WRITE TO EDF R&D CODE_ASTER,
#    1 AVENUE DU GENERAL DE GAULLE, 92141 CLAMART CEDEX, FRANCE.
# ======================================================================

DEBUT(CODE=_F(NOM='SDLL147A', NIV_PUB_WEB='INTERNET'), DEBUG=_F(SDVERI='OUI'));

MAIL=LIRE_MAILLAGE();

MAIL=DEFI_GROUP(reuse =MAIL,
                MAILLAGE=MAIL,
                CREA_GROUP_NO=_F(GROUP_MA='SOL',),);

MODELE=AFFE_MODELE(MAILLAGE=MAIL,
                   AFFE=(_F(GROUP_MA=('BATI','RADIER',),
                            PHENOMENE='MECANIQUE',
                            MODELISATION='POU_D_E',),
                         _F(GROUP_MA='SOL',
                            PHENOMENE='MECANIQUE',
                            MODELISATION='DIS_T',),),);

BETAMOU=DEFI_MATERIAU(ELAS=_F(E=350E6,
                              NU=0.2,
                              RHO=2500.0,),);

BETADUR=DEFI_MATERIAU(ELAS=_F(E=350E8,
                              NU=0.2,
                              RHO=2500.0,),);

CHMAT=AFFE_MATERIAU(MAILLAGE=MAIL,
                    AFFE=(_F(GROUP_MA='RADIER',
                             MATER=BETADUR,),
                          _F(GROUP_MA='BATI',
                             MATER=BETAMOU,),),);

raideur=1E+13
amor=.07

CARELEM=AFFE_CARA_ELEM(MODELE=MODELE,
                       POUTRE=_F(GROUP_MA=('RADIER','BATI',),
                                 SECTION='CERCLE',
                                 CARA=('R','EP',),
                                 VALE=(10.,1.,),),
                       DISCRET=(_F(CARA='K_T_D_L',
                                   GROUP_MA='SOL',
                                   VALE=(raideur,raideur,raideur,),),
                                _F(CARA='M_T_D_L',
                                   GROUP_MA=('SOL',),
                                   VALE=0.0,),),);

BLOQUAGE=AFFE_CHAR_MECA(MODELE=MODELE,
                        DDL_IMPO=(_F(GROUP_NO='O',
                                     DX=0.0,
                                     DZ=0.0,),
                                  _F(GROUP_NO='R',
                                     DRY=0.0, ),
                                  _F(TOUT='OUI',
                                     DY=0.0,
                                     DRX=0.0,
                                     DRZ=0.0),),);

ASSEMBLAGE(MODELE=MODELE,
                CHAM_MATER=CHMAT,
                CARA_ELEM=CARELEM,
                CHARGE=BLOQUAGE,
                NUME_DDL=CO('NUMEDDL'),
                MATR_ASSE=(_F(MATRICE=CO('RIGIDITE'),
                              OPTION='RIGI_MECA',),
                           _F(MATRICE=CO('MASSE'),
                              OPTION='MASS_MECA',),),);

MODECA=MODE_ITER_SIMULT(MATR_RIGI=RIGIDITE,
                        MATR_MASS=MASSE,
                        VERI_MODE =_F( SEUIL = 1.E-4),
                        CALC_FREQ=_F(OPTION='BANDE',
                                     FREQ=(0.,60,),),);


MODECA=NORM_MODE(reuse=MODECA,
                 MODE=MODECA,
                 NORME='MASS_GENE',);


MODER = EXTR_MODE(IMPRESSION=_F(CUMUL='OUI'),
                  FILTRE_MODE=(_F(MODE=MODECA,
                                  FREQ_MIN=0,
                                  FREQ_MAX=60,),),);

MODES = EXTR_MODE(IMPRESSION=_F(CUMUL='OUI'),
                  FILTRE_MODE=(_F(MODE=MODER,
                                  CRIT_EXTR='MASS_EFFE_UN',
                                  SEUIL=.00001,),),);

MODES=CALC_CHAMP(reuse=MODES,RESULTAT=MODES,CONTRAINTE=('SIEF_ELGA'))


MODES=CALC_CHAMP(reuse=MODES,
              RESULTAT=MODES,
              FORCE='REAC_NODA');

CORRSTA = MODE_STATIQUE(MATR_RIGI=RIGIDITE,
                        MATR_MASS=MASSE,
                        PSEUDO_MODE=_F(AXE=('X','Y','Z',),),);

CORRSTA=CALC_CHAMP(reuse=CORRSTA,RESULTAT=CORRSTA,CONTRAINTE=('SIEF_ELGA'))


CORRSTA=CALC_CHAMP(reuse=CORRSTA,
                RESULTAT=CORRSTA,
                FORCE='REAC_NODA');

MODESTA1=MODE_STATIQUE( MATR_RIGI=RIGIDITE,
                        MATR_MASS=MASSE,
                        MODE_STAT=_F(NOEUD='N0',
                                     AVEC_CMP='DX',),);

SPECTRE=DEFI_NAPPE(NOM_PARA='AMOR',
                  PARA=(1.0E-2,0.07,0.1,0.3,),
                   NOM_PARA_FONC='FREQ',
                   DEFI_FONCTION=(_F(VALE=(0.2,1.0E-2,0.56,0.15,4.61,1.24,14.0,1.24,40.,2.5E-1,),
                                     INTERPOL='LOG',
                                     PROL_DROITE='CONSTANT',
                                     PROL_GAUCHE='CONSTANT',),
                                  _F(VALE=(0.2,9.75E-3,0.51,6.45E-2,4.58,5.74E-1,14.0,5.74E-1,40.,2.5E-1,),
                                     INTERPOL='LOG',
                                     PROL_DROITE='CONSTANT',
                                     PROL_GAUCHE='CONSTANT',),
                                  _F(VALE=(0.2,9.42E-3,0.46,5.03E-2,4.54,4.94E-1,14.0,4.94E-1,40.,2.5E-1,),
                                     INTERPOL='LOG',
                                     PROL_DROITE='CONSTANT',
                                     PROL_GAUCHE='CONSTANT',),
                                  _F(VALE=(0.2,8.40E-3,0.28,1.60E-2,4.26,2.47E-1,14.0,2.47E-1,40.,2.5E-1,),
                                     INTERPOL='LOG',
                                     PROL_DROITE='CONSTANT',
                                     PROL_GAUCHE='CONSTANT',),),);


REPGUP=COMB_SISM_MODAL(MODE_MECA=MODES,
                       MODE_CORR=CORRSTA,
                       AMOR_REDUIT=amor,
                       EXCIT=_F(TRI_SPEC='OUI',
                                SPEC_OSCI=(SPECTRE,SPECTRE,SPECTRE,),),
                       MONO_APPUI='OUI',
                       COMB_DIRECTION=_F(TYPE='QUAD',),
                       COMB_MODE=_F(TYPE='GUPTA',
                                    FREQ_1=14.6,
                                    FREQ_2=40.,),
                       OPTION=('ACCE_ABSOLU','DEPL','REAC_NODA',));
###
### TEST_RESU
###

TEST_RESU(RESU=_F(PARA='FREQ',
                  NUME_MODE=1,
                  RESULTAT=MODECA,
                  VALE_CALC=1.5491943226358,
                  TOLE_MACHINE=1.E-3,
                  ),
          )

TEST_RESU(RESU=_F(PARA='FREQ',
                  NUME_MODE=2,
                  RESULTAT=MODECA,
                  VALE_CALC=3.1075514388009999,
                  TOLE_MACHINE=1.E-3,
                  ),
          )

TEST_RESU(RESU=_F(PARA='FREQ',
                  NUME_MODE=3,
                  RESULTAT=MODECA,
                  VALE_CALC=9.3245300415724994,
                  TOLE_MACHINE=1.E-3,
                  ),
          )

TEST_RESU(RESU=_F(PARA='FREQ',
                  NUME_MODE=4,
                  RESULTAT=MODECA,
                  VALE_CALC=9.5870612490700999,
                  TOLE_MACHINE=1.E-3,
                  ),
          )

TEST_RESU(RESU=_F(PARA='FREQ',
                  NUME_MODE=5,
                  RESULTAT=MODECA,
                  VALE_CALC=15.547112609525,
                  TOLE_MACHINE=1.E-3,
                  ),
          )

TEST_RESU(RESU=_F(PARA='FREQ',
                  NUME_MODE=6,
                  RESULTAT=MODECA,
                  VALE_CALC=21.778952588688998,
                  TOLE_MACHINE=1.E-3,
                  ),
          )

TEST_RESU(RESU=_F(PARA='FREQ',
                  NUME_MODE=7,
                  RESULTAT=MODECA,
                  VALE_CALC=26.365186159349999,
                  TOLE_MACHINE=1.E-3,
                  ),
          )

TEST_RESU(RESU=_F(PARA='FREQ',
                  NUME_MODE=8,
                  RESULTAT=MODECA,
                  VALE_CALC=28.023559687022999,
                  TOLE_MACHINE=1.E-3,
                  ),
          )

TEST_RESU(RESU=_F(PARA='FREQ',
                  NUME_MODE=9,
                  RESULTAT=MODECA,
                  VALE_CALC=34.284194672867002,
                  TOLE_MACHINE=1.E-3,
                  ),
          )

TEST_RESU(RESU=_F(PARA='FREQ',
                  NUME_MODE=10,
                  RESULTAT=MODECA,
                  VALE_CALC=40.563693298529998,
                  TOLE_MACHINE=1.E-3,
                  ),
          )

TEST_RESU(RESU=_F(PARA='FREQ',
                  NUME_MODE=11,
                  RESULTAT=MODECA,
                  VALE_CALC=46.864148730311001,
                  TOLE_MACHINE=1.E-3,
                  ),
          )

TEST_RESU(RESU=_F(PARA='FREQ',
                  NUME_MODE=12,
                  RESULTAT=MODECA,
                  VALE_CALC=50.060463212130998,
                  TOLE_MACHINE=1.E-3,
                  ),
          )

TEST_RESU(RESU=_F(PARA='FREQ',
                  NUME_MODE=13,
                  RESULTAT=MODECA,
                  VALE_CALC=53.186294861660002,
                  TOLE_MACHINE=1.E-3,
                  ),
          )

TEST_RESU(RESU=_F(PARA='FREQ',
                  NUME_MODE=14,
                  RESULTAT=MODECA,
                  VALE_CALC=59.528203850075997,
                  TOLE_MACHINE=1.E-3,
                  ),
          )

TEST_RESU(RESU=_F(NUME_ORDRE=4,
                  GROUP_NO='H',
                  RESULTAT=REPGUP,
                  NOM_CHAM='DEPL',
                  NOM_CMP='DX',
                  VALE_CALC=3.2396432663129001E-3,
                  TOLE_MACHINE=1.E-3,
                  ),
          )

TEST_RESU(RESU=_F(NUME_ORDRE=4,
                  GROUP_NO='H',
                  RESULTAT=REPGUP,
                  NOM_CHAM='DEPL',
                  NOM_CMP='DY',
                  VALE_CALC=0.0,
                  TOLE_MACHINE=1.E-3,
                  CRITERE='ABSOLU',
                  ),
          )

TEST_RESU(RESU=_F(NUME_ORDRE=4,
                  GROUP_NO='H',
                  RESULTAT=REPGUP,
                  NOM_CHAM='DEPL',
                  NOM_CMP='DZ',
                  VALE_CALC=1.3091056936155E-3,
                  TOLE_MACHINE=1.E-3,
                  ),
          )

TEST_RESU(RESU=_F(NUME_ORDRE=4,
                  GROUP_NO='H',
                  RESULTAT=REPGUP,
                  NOM_CHAM='DEPL',
                  NOM_CMP='DRX',
                  VALE_CALC=0.0,
                  TOLE_MACHINE=1.E-3,
                  CRITERE='ABSOLU',
                  ),
          )

TEST_RESU(RESU=_F(NUME_ORDRE=4,
                  GROUP_NO='H',
                  RESULTAT=REPGUP,
                  NOM_CHAM='DEPL',
                  NOM_CMP='DRY',
                  VALE_CALC=1.4915675244136999E-4,
                  TOLE_MACHINE=1.E-3,
                  ),
          )

TEST_RESU(RESU=_F(NUME_ORDRE=4,
                  GROUP_NO='H',
                  RESULTAT=REPGUP,
                  NOM_CHAM='DEPL',
                  NOM_CMP='DRZ',
                  VALE_CALC=7.0064923216240994E-46,
                  TOLE_MACHINE=1.E-3,
                  CRITERE='ABSOLU',
                  ),
          )

TEST_RESU(RESU=_F(NUME_ORDRE=4,
                  GROUP_NO='R',
                  RESULTAT=REPGUP,
                  NOM_CHAM='DEPL',
                  NOM_CMP='DX',
                  VALE_CALC=9.4449003235867996E-08,
                  TOLE_MACHINE=1.E-3,
                  ),
          )

TEST_RESU(RESU=_F(NUME_ORDRE=4,
                  GROUP_NO='R',
                  RESULTAT=REPGUP,
                  NOM_CHAM='DEPL',
                  NOM_CMP='DY',
                  VALE_CALC=2.0194839173658001E-28,
                  TOLE_MACHINE=1.E-3,
                  CRITERE='ABSOLU',
                  ),
          )

TEST_RESU(RESU=_F(NUME_ORDRE=4,
                  GROUP_NO='R',
                  RESULTAT=REPGUP,
                  NOM_CHAM='DEPL',
                  NOM_CMP='DZ',
                  VALE_CALC=1.5182762043245E-07,
                  TOLE_MACHINE=1.E-3,
                  ),
          )

TEST_RESU(RESU=_F(NUME_ORDRE=4,
                  GROUP_NO='R',
                  RESULTAT=REPGUP,
                  NOM_CHAM='DEPL',
                  NOM_CMP='DRX',
                  VALE_CALC=1.2621774483536E-29,
                  TOLE_MACHINE=1.E-3,
                  CRITERE='ABSOLU',
                  ),
          )

TEST_RESU(RESU=_F(NUME_ORDRE=4,
                  GROUP_NO='R',
                  RESULTAT=REPGUP,
                  NOM_CHAM='DEPL',
                  NOM_CMP='DRY',
                  VALE_CALC=1.5358175191567E-25,
                  TOLE_MACHINE=1.E-3,
                  CRITERE='ABSOLU',
                  ),
          )

TEST_RESU(RESU=_F(NUME_ORDRE=4,
                  GROUP_NO='R',
                  RESULTAT=REPGUP,
                  NOM_CHAM='DEPL',
                  NOM_CMP='DRZ',
                  VALE_CALC=0.0,
                  TOLE_MACHINE=1.E-3,
                  CRITERE='ABSOLU',
                  ),
          )

TEST_RESU(RESU=_F(NUME_ORDRE=4,
                  GROUP_NO='S',
                  RESULTAT=REPGUP,
                  NOM_CHAM='DEPL',
                  NOM_CMP='DX',
                  VALE_CALC=9.0569748775450006E-06,
                  TOLE_MACHINE=1.E-3,
                  ),
          )

TEST_RESU(RESU=_F(NUME_ORDRE=4,
                  GROUP_NO='S',
                  RESULTAT=REPGUP,
                  NOM_CHAM='DEPL',
                  NOM_CMP='DY',
                  VALE_CALC=0.0,
                  TOLE_MACHINE=1.E-3,
                  CRITERE='ABSOLU',
                  ),
          )

TEST_RESU(RESU=_F(NUME_ORDRE=4,
                  GROUP_NO='S',
                  RESULTAT=REPGUP,
                  NOM_CHAM='DEPL',
                  NOM_CMP='DZ',
                  VALE_CALC=7.2126964195150996E-06,
                  TOLE_MACHINE=1.E-3,
                  ),
          )

TEST_RESU(RESU=_F(NUME_ORDRE=4,
                  GROUP_NO='S',
                  RESULTAT=REPGUP,
                  NOM_CHAM='DEPL',
                  NOM_CMP='DRX',
                  VALE_CALC=0.0,
                  TOLE_MACHINE=1.E-3,
                  CRITERE='ABSOLU',
                  ),
          )

TEST_RESU(RESU=_F(NUME_ORDRE=4,
                  GROUP_NO='S',
                  RESULTAT=REPGUP,
                  NOM_CHAM='DEPL',
                  NOM_CMP='DRY',
                  VALE_CALC=1.6632972701712E-06,
                  TOLE_MACHINE=1.E-3,
                  ),
          )

TEST_RESU(RESU=_F(NUME_ORDRE=4,
                  GROUP_NO='S',
                  RESULTAT=REPGUP,
                  NOM_CHAM='DEPL',
                  NOM_CMP='DRZ',
                  VALE_CALC=2.8025969286495999E-45,
                  TOLE_MACHINE=1.E-3,
                  CRITERE='ABSOLU',
                  ),
          )

TEST_RESU(RESU=_F(NUME_ORDRE=4,
                  GROUP_NO='O',
                  RESULTAT=REPGUP,
                  NOM_CHAM='DEPL',
                  NOM_CMP='DX',
                  VALE_CALC=2.5849394142282E-26,
                  TOLE_MACHINE=1.E-3,
                  CRITERE='ABSOLU',
                  ),
          )

TEST_RESU(RESU=_F(NUME_ORDRE=4,
                  GROUP_NO='O',
                  RESULTAT=REPGUP,
                  NOM_CHAM='DEPL',
                  NOM_CMP='DY',
                  VALE_CALC=4.3790577010151E-47,
                  TOLE_MACHINE=1.E-3,
                  CRITERE='ABSOLU',
                  ),
          )

TEST_RESU(RESU=_F(NUME_ORDRE=4,
                  GROUP_NO='O',
                  RESULTAT=REPGUP,
                  NOM_CHAM='DEPL',
                  NOM_CMP='DZ',
                  VALE_CALC=5.1698788284564E-26,
                  TOLE_MACHINE=1.E-3,
                  CRITERE='ABSOLU',
                  ),
          )

TEST_RESU(RESU=_F(NUME_ORDRE=4,
                  GROUP_NO='H',
                  RESULTAT=REPGUP,
                  NOM_CHAM='ACCE_ABSOLU',
                  NOM_CMP='DX',
                  VALE_CALC=0.61824985176145997,
                  TOLE_MACHINE=1.E-3,
                  ),
          )

TEST_RESU(RESU=_F(NUME_ORDRE=4,
                  GROUP_NO='H',
                  RESULTAT=REPGUP,
                  NOM_CHAM='ACCE_ABSOLU',
                  NOM_CMP='DY',
                  VALE_CALC=0.25,
                  TOLE_MACHINE=1.E-3,
                  ),
          )

TEST_RESU(RESU=_F(NUME_ORDRE=4,
                  GROUP_NO='H',
                  RESULTAT=REPGUP,
                  NOM_CHAM='ACCE_ABSOLU',
                  NOM_CMP='DZ',
                  VALE_CALC=0.56926959473827998,
                  TOLE_MACHINE=1.E-3,
                  ),
          )

TEST_RESU(RESU=_F(NUME_ORDRE=4,
                  GROUP_NO='H',
                  RESULTAT=REPGUP,
                  NOM_CHAM='ACCE_ABSOLU',
                  NOM_CMP='DRX',
                  VALE_CALC=0.0,
                  TOLE_MACHINE=1.E-3,
                  ),
          )

TEST_RESU(RESU=_F(NUME_ORDRE=4,
                  GROUP_NO='H',
                  RESULTAT=REPGUP,
                  NOM_CHAM='ACCE_ABSOLU',
                  NOM_CMP='DRY',
                  VALE_CALC=0.096304357433140003,
                  TOLE_MACHINE=1.E-3,
                  ),
          )

TEST_RESU(RESU=_F(NUME_ORDRE=4,
                  GROUP_NO='H',
                  RESULTAT=REPGUP,
                  NOM_CHAM='ACCE_ABSOLU',
                  NOM_CMP='DRZ',
                  VALE_CALC=0.0,
                  TOLE_MACHINE=1.E-3,
                  ),
          )

TEST_RESU(RESU=_F(NUME_ORDRE=4,
                  GROUP_NO='R',
                  RESULTAT=REPGUP,
                  NOM_CHAM='ACCE_ABSOLU',
                  NOM_CMP='DX',
                  VALE_CALC=0.24879675464209,
                  TOLE_MACHINE=1.E-3,
                  ),
          )

TEST_RESU(RESU=_F(NUME_ORDRE=4,
                  GROUP_NO='R',
                  RESULTAT=REPGUP,
                  NOM_CHAM='ACCE_ABSOLU',
                  NOM_CMP='DY',
                  VALE_CALC=0.25,
                  TOLE_MACHINE=1.E-3,
                  ),
          )

TEST_RESU(RESU=_F(NUME_ORDRE=4,
                  GROUP_NO='R',
                  RESULTAT=REPGUP,
                  NOM_CHAM='ACCE_ABSOLU',
                  NOM_CMP='DZ',
                  VALE_CALC=0.24941080125292001,
                  TOLE_MACHINE=1.E-3,
                  ),
          )

TEST_RESU(RESU=_F(NUME_ORDRE=4,
                  GROUP_NO='R',
                  RESULTAT=REPGUP,
                  NOM_CHAM='ACCE_ABSOLU',
                  NOM_CMP='DRX',
                  VALE_CALC=0.0,
                  TOLE_MACHINE=1.E-3,
                  ),
          )

TEST_RESU(RESU=_F(NUME_ORDRE=4,
                  GROUP_NO='R',
                  RESULTAT=REPGUP,
                  NOM_CHAM='ACCE_ABSOLU',
                  NOM_CMP='DRY',
                  VALE_CALC=0.0,
                  TOLE_MACHINE=1.E-3,
                  ),
          )

TEST_RESU(RESU=_F(NUME_ORDRE=4,
                  GROUP_NO='R',
                  RESULTAT=REPGUP,
                  NOM_CHAM='ACCE_ABSOLU',
                  NOM_CMP='DRZ',
                  VALE_CALC=0.0,
                  TOLE_MACHINE=1.E-3,
                  ),
          )

TEST_RESU(RESU=_F(NUME_ORDRE=4,
                  GROUP_NO='S',
                  RESULTAT=REPGUP,
                  NOM_CHAM='ACCE_ABSOLU',
                  NOM_CMP='DX',
                  VALE_CALC=0.20128061437785999,
                  TOLE_MACHINE=1.E-3,
                  ),
          )

TEST_RESU(RESU=_F(NUME_ORDRE=4,
                  GROUP_NO='S',
                  RESULTAT=REPGUP,
                  NOM_CHAM='ACCE_ABSOLU',
                  NOM_CMP='DY',
                  VALE_CALC=0.25,
                  TOLE_MACHINE=1.E-3,
                  ),
          )

TEST_RESU(RESU=_F(NUME_ORDRE=4,
                  GROUP_NO='S',
                  RESULTAT=REPGUP,
                  NOM_CHAM='ACCE_ABSOLU',
                  NOM_CMP='DZ',
                  VALE_CALC=0.22473145378803,
                  TOLE_MACHINE=1.E-3,
                  ),
          )

TEST_RESU(RESU=_F(NUME_ORDRE=4,
                  GROUP_NO='S',
                  RESULTAT=REPGUP,
                  NOM_CHAM='ACCE_ABSOLU',
                  NOM_CMP='DRX',
                  VALE_CALC=0.0,
                  TOLE_MACHINE=1.E-3,
                  ),
          )

TEST_RESU(RESU=_F(NUME_ORDRE=4,
                  GROUP_NO='S',
                  RESULTAT=REPGUP,
                  NOM_CHAM='ACCE_ABSOLU',
                  NOM_CMP='DRY',
                  VALE_CALC=0.011827974442827001,
                  TOLE_MACHINE=1.E-3,
                  ),
          )

TEST_RESU(RESU=_F(NUME_ORDRE=4,
                  GROUP_NO='S',
                  RESULTAT=REPGUP,
                  NOM_CHAM='ACCE_ABSOLU',
                  NOM_CMP='DRZ',
                  VALE_CALC=0.0,
                  TOLE_MACHINE=1.E-3,
                  ),
          )

TEST_RESU(RESU=_F(NUME_ORDRE=4,
                  GROUP_NO='O',
                  RESULTAT=REPGUP,
                  NOM_CHAM='ACCE_ABSOLU',
                  NOM_CMP='DX',
                  VALE_CALC=0.25,
                  TOLE_MACHINE=1.E-3,
                  ),
          )

TEST_RESU(RESU=_F(NUME_ORDRE=4,
                  GROUP_NO='O',
                  RESULTAT=REPGUP,
                  NOM_CHAM='ACCE_ABSOLU',
                  NOM_CMP='DY',
                  VALE_CALC=0.25,
                  TOLE_MACHINE=1.E-3,
                  ),
          )

TEST_RESU(RESU=_F(NUME_ORDRE=4,
                  GROUP_NO='O',
                  RESULTAT=REPGUP,
                  NOM_CHAM='ACCE_ABSOLU',
                  NOM_CMP='DZ',
                  VALE_CALC=0.25,
                  TOLE_MACHINE=1.E-3,
                  ),
          )

TEST_RESU(RESU=_F(NUME_ORDRE=4,
                  GROUP_NO='H',
                  RESULTAT=REPGUP,
                  NOM_CHAM='REAC_NODA',
                  NOM_CMP='DX',
                  VALE_CALC=3.3233806225700001E-4,
                  TOLE_MACHINE=1.E-3,
                  CRITERE='ABSOLU',
                  ),
          )

TEST_RESU(RESU=_F(NUME_ORDRE=4,
                  GROUP_NO='H',
                  RESULTAT=REPGUP,
                  NOM_CHAM='REAC_NODA',
                  NOM_CMP='DY',
                  VALE_CALC=9326.6031903447001,
                  TOLE_MACHINE=1.E-3,
                  ),
          )

TEST_RESU(RESU=_F(NUME_ORDRE=4,
                  GROUP_NO='H',
                  RESULTAT=REPGUP,
                  NOM_CHAM='REAC_NODA',
                  NOM_CMP='DZ',
                  VALE_CALC=9.6944351594654002E-08,
                  TOLE_MACHINE=1.E-3,
                  CRITERE='ABSOLU',
                  ),
          )

TEST_RESU(RESU=_F(NUME_ORDRE=4,
                  GROUP_NO='H',
                  RESULTAT=REPGUP,
                  NOM_CHAM='REAC_NODA',
                  NOM_CMP='DRX',
                  VALE_CALC=777.21693252872001,
                  TOLE_MACHINE=1.E-3,
                  ),
          )

TEST_RESU(RESU=_F(NUME_ORDRE=4,
                  GROUP_NO='H',
                  RESULTAT=REPGUP,
                  NOM_CHAM='REAC_NODA',
                  NOM_CMP='DRY',
                  VALE_CALC=8.6738098496576003E-05,
                  TOLE_MACHINE=1.E-3,
                  CRITERE='ABSOLU',
                  ),
          )

TEST_RESU(RESU=_F(NUME_ORDRE=4,
                  GROUP_NO='H',
                  RESULTAT=REPGUP,
                  NOM_CHAM='REAC_NODA',
                  NOM_CMP='DRZ',
                  VALE_CALC=4.7590811433220998E-14,
                  TOLE_MACHINE=1.E-3,
                  CRITERE='ABSOLU',
                  ),
          )

TEST_RESU(RESU=_F(NUME_ORDRE=4,
                  GROUP_NO='R',
                  RESULTAT=REPGUP,
                  NOM_CHAM='REAC_NODA',
                  NOM_CMP='DX',
                  VALE_CALC=6.0472578414485003E-05,
                  TOLE_MACHINE=1.E-3,
                  CRITERE='ABSOLU',
                  ),
          )

TEST_RESU(RESU=_F(NUME_ORDRE=4,
                  GROUP_NO='R',
                  RESULTAT=REPGUP,
                  NOM_CHAM='REAC_NODA',
                  NOM_CMP='DY',
                  VALE_CALC=9326.6031903447001,
                  TOLE_MACHINE=1.E-3,
                  ),
          )

TEST_RESU(RESU=_F(NUME_ORDRE=4,
                  GROUP_NO='R',
                  RESULTAT=REPGUP,
                  NOM_CHAM='REAC_NODA',
                  NOM_CMP='DZ',
                  VALE_CALC=2.6406108097107999E-08,
                  TOLE_MACHINE=1.E-3,
                  CRITERE='ABSOLU',
                  ),
          )

TEST_RESU(RESU=_F(NUME_ORDRE=4,
                  GROUP_NO='R',
                  RESULTAT=REPGUP,
                  NOM_CHAM='REAC_NODA',
                  NOM_CMP='DRX',
                  VALE_CALC=777.21693252872001,
                  TOLE_MACHINE=1.E-3,
                  ),
          )

TEST_RESU(RESU=_F(NUME_ORDRE=4,
                  GROUP_NO='R',
                  RESULTAT=REPGUP,
                  NOM_CHAM='REAC_NODA',
                  NOM_CMP='DRY',
                  VALE_CALC=1.9606618500588998E7,
                  TOLE_MACHINE=1.E-3,
                  ),
          )

TEST_RESU(RESU=_F(NUME_ORDRE=4,
                  GROUP_NO='R',
                  RESULTAT=REPGUP,
                  NOM_CHAM='REAC_NODA',
                  NOM_CMP='DRZ',
                  VALE_CALC=4.7590811433220998E-14,
                  TOLE_MACHINE=1.E-3,
                  CRITERE='ABSOLU',
                  ),
          )

TEST_RESU(RESU=_F(NUME_ORDRE=4,
                  GROUP_NO='S',
                  REFERENCE='NON_DEFINI',
                  RESULTAT=REPGUP,
                  NOM_CHAM='REAC_NODA',
                  NOM_CMP='DX',
                  VALE_CALC=2.8273100266785E-03,
                  VALE_REFE=2.8288137175073E-3,
                  CRITERE='ABSOLU',
                  TOLE_MACHINE=5e-3,
                  PRECISION=5.0000000000000001E-3,
                  ),
          )

TEST_RESU(RESU=_F(NUME_ORDRE=4,
                  GROUP_NO='S',
                  RESULTAT=REPGUP,
                  NOM_CHAM='REAC_NODA',
                  NOM_CMP='DY',
                  VALE_CALC=1.8653206380689E4,
                  TOLE_MACHINE=1.E-3,
                  ),
          )

TEST_RESU(RESU=_F(NUME_ORDRE=4,
                  GROUP_NO='S',
                  RESULTAT=REPGUP,
                  NOM_CHAM='REAC_NODA',
                  NOM_CMP='DZ',
                  VALE_CALC=7.3907882731370003E-07,
                  TOLE_MACHINE=1.E-3,
                  CRITERE='ABSOLU',
                  ),
          )

TEST_RESU(RESU=_F(NUME_ORDRE=4,
                  GROUP_NO='S',
                  RESULTAT=REPGUP,
                  NOM_CHAM='REAC_NODA',
                  NOM_CMP='DRX',
                  VALE_CALC=1.0377322635339999E-46,
                  TOLE_MACHINE=1.E-3,
                  CRITERE='ABSOLU',
                  ),
          )

TEST_RESU(RESU=_F(NUME_ORDRE=4,
                  GROUP_NO='S',
                  RESULTAT=REPGUP,
                  NOM_CHAM='REAC_NODA',
                  NOM_CMP='DRY',
                  VALE_CALC=6.8951915167171E-4,
                  TOLE_MACHINE=1.E-3,
                  CRITERE='ABSOLU',
                  ),
          )

TEST_RESU(RESU=_F(NUME_ORDRE=4,
                  GROUP_NO='S',
                  RESULTAT=REPGUP,
                  NOM_CHAM='REAC_NODA',
                  NOM_CMP='DRZ',
                  VALE_CALC=4.4598563106068998E-31,
                  TOLE_MACHINE=1.E-3,
                  CRITERE='ABSOLU',
                  ),
          )

TEST_RESU(RESU=_F(NUME_ORDRE=4,
                  GROUP_NO='O',
                  RESULTAT=REPGUP,
                  NOM_CHAM='REAC_NODA',
                  NOM_CMP='DX',
                  VALE_CALC=9.4449003235868004E5,
                  TOLE_MACHINE=1.E-3,
                  ),
          )

TEST_RESU(RESU=_F(NUME_ORDRE=4,
                  GROUP_NO='O',
                  RESULTAT=REPGUP,
                  NOM_CHAM='REAC_NODA',
                  NOM_CMP='DY',
                  VALE_CALC=2.0194839173658001E-15,
                  TOLE_MACHINE=1.E-3,
                  CRITERE='ABSOLU',
                  ),
          )

TEST_RESU(RESU=_F(NUME_ORDRE=4,
                  GROUP_NO='O',
                  RESULTAT=REPGUP,
                  NOM_CHAM='REAC_NODA',
                  NOM_CMP='DZ',
                  VALE_CALC=1.5182762043244999E6,
                  TOLE_MACHINE=1.E-3,
                  ),
          )

FIN()
