# ======================================================================
# COPYRIGHT (C) 1991 - 2016  EDF R&D                  WWW.CODE-ASTER.ORG
# THIS PROGRAM IS FREE SOFTWARE; YOU CAN REDISTRIBUTE IT AND/OR MODIFY
# IT UNDER THE TERMS OF THE GNU GENERAL PUBLIC LICENSE AS PUBLISHED BY
# THE FREE SOFTWARE FOUNDATION; EITHER VERSION 2 OF THE LICENSE, OR
# (AT YOUR OPTION) ANY LATER VERSION.
#
# THIS PROGRAM IS DISTRIBUTED IN THE HOPE THAT IT WILL BE USEFUL, BUT
# WITHOUT ANY WARRANTY; WITHOUT EVEN THE IMPLIED WARRANTY OF
# MERCHANTABILITY OR FITNESS FOR A PARTICULAR PURPOSE. SEE THE GNU
# GENERAL PUBLIC LICENSE FOR MORE DETAILS.
#
# YOU SHOULD HAVE RECEIVED A COPY OF THE GNU GENERAL PUBLIC LICENSE
# ALONG WITH THIS PROGRAM; IF NOT, WRITE TO EDF R&D CODE_ASTER,
#    1 AVENUE DU GENERAL DE GAULLE, 92141 CLAMART CEDEX, FRANCE.
# ======================================================================
#*********************************************************************#
#***CAS TEST: CALCUL MULTI SPECTRAL AVEC DEUX METHODES****************#
#*********************************************************************#
DEBUT(CODE=_F(NIV_PUB_WEB='INTERNET'), DEBUG=_F(SDVERI='OUI'))
from math import pi

#*********************************************************************#
# *****LECTURE DU MAILLAGE********************************************#
#*********************************************************************#
MA1=LIRE_MAILLAGE( )

MO1=AFFE_MODELE(  MAILLAGE=MA1,
       AFFE=_F(                TOUT = 'OUI',
                            PHENOMENE = 'MECANIQUE',
                            MODELISATION = 'POU_D_T'))

#*********************************************************************#
# *****AFFECTATION D ELEMENTS SUR LES MAILLES*************************#
#*********************************************************************#
CARELEM1=AFFE_CARA_ELEM(   MODELE=MO1,POUTRE=(
     _F(  GROUP_MA = 'GRMAPRIM',
              SECTION = 'RECTANGLE',
                CARA = ('HZ','HY',), VALE = (0.1, 0.1,)),
     _F(  GROUP_MA = 'GRMASEC',
              SECTION = 'RECTANGLE',
                CARA = ('HZ','HY',), VALE = (0.001, 0.001,)))
                         )

#*********************************************************************#
# *****CONDITIONS AUX LIMITES:ON LIE STRUCTURE PRIMAIRE ET SECONDAIRE*#
#*********************************************************************#
CHARGE1=AFFE_CHAR_MECA(
             MODELE=MO1,DDL_IMPO=(
            _F( TOUT = 'OUI',
                     DZ = 0.0,
                     DRX = 0.0),
            _F( NOEUD = ('PA1',),
                     DX = 0.0,
                     DY = 0.0,
                     DRZ = 0.0)),LIAISON_DDL=(
            _F(
                     NOEUD = ('PA11', 'PB11',),
                     DDL = ('DY', 'DY',),
                     COEF_MULT = (1., -1.,),
                     COEF_IMPO = 0.),
            _F(
                     NOEUD = ('PA11', 'PB11',),
                     DDL = ('DX', 'DX',),
                     COEF_MULT = (1., -1.,),
                     COEF_IMPO = 0.),
            _F(
                     NOEUD = ('PA21', 'PB21',),
                     DDL = ('DY', 'DY',),
                     COEF_MULT = (1., -1.,),
                     COEF_IMPO = 0.),
            _F(
                     NOEUD = ('PA21', 'PB21',),
                     DDL = ('DX', 'DX',),
                     COEF_MULT = (1., -1.,),
                     COEF_IMPO = 0.),
            _F(
                     NOEUD = ('PA31', 'PB31',),
                     DDL = ('DY', 'DY',),
                     COEF_MULT = (1., -1.,),
                     COEF_IMPO = 0.),
            _F(
                     NOEUD = ('PA31', 'PB31',),
                     DDL = ('DX', 'DX',),
                     COEF_MULT = (1., -1.,),
                     COEF_IMPO = 0.))
                                 )

#*********************************************************************#
# *****MATERIAU ******************************************************#
#*********************************************************************#
MAT_LAMA=DEFI_MATERIAU(   ELAS=_F(  E = 2.1E11,
                                 NU = 0.3,
                                RHO = 2000.)
                         )

MAT_LAMB=DEFI_MATERIAU(   ELAS=_F(  E = 2.1E11,
                                 NU = 0.3,
                                RHO = 1000.)
                         )

CHMATR1=AFFE_MATERIAU(
           MAILLAGE=MA1,AFFE=(
              _F(
                     GROUP_MA = 'GRMAPRIM',
                     MATER = MAT_LAMA),
              _F(
                     GROUP_MA = 'GRMASEC',
                     MATER = MAT_LAMB))
         )

#
#*********************************************************************#
# *****MATRICES ELEMENTAIRES ET ASSEMBLAGE****************************#
#*********************************************************************#
MELR1=CALC_MATR_ELEM(  MODELE=MO1,
                    CHAM_MATER=CHMATR1,
                        CHARGE=CHARGE1,
                       OPTION='RIGI_MECA',
                        CARA_ELEM=CARELEM1  )

MELM1=CALC_MATR_ELEM(  MODELE=MO1,
                    CHAM_MATER=CHMATR1,
                        CHARGE=CHARGE1,
                       OPTION='MASS_MECA',
                        CARA_ELEM=CARELEM1  )

#
NUM1=NUME_DDL(  MATR_RIGI=MELR1 )

MATASSR1=ASSE_MATRICE(MATR_ELEM=MELR1,NUME_DDL=NUM1)

MATASSM1=ASSE_MATRICE(MATR_ELEM=MELM1,NUME_DDL=NUM1)

#*********************************************************************#
# *****CALCUL DE MODES PROPRES ET IMPRESSION FORMAT IDEAS*************#
#*********************************************************************#

FREQ1=CALC_MODES(MATR_RIGI=MATASSR1,
                 OPTION='AJUSTE',
                 CALC_FREQ=_F(NMAX_FREQ=10,
                              FREQ=(0.1,3000.0,),
                              ),
                 MATR_MASS=MATASSM1,
                 SOLVEUR_MODAL=_F(NMAX_ITER_INV=30,
                                  ),
                 )


#*********************************************************************#
# *****CALCUL DE MODES STATIQUES; IMPRESSION FORMAT IDEAS*************#
#*********************************************************************#
MODESTA1=MODE_STATIQUE(  MATR_RIGI=MATASSR1,
                         MATR_MASS=MATASSM1,
                         MODE_STAT=_F(  NOEUD = 'PA1',
                                   AVEC_CMP = 'DY')
                  )

#*********************************************************************#
# *****DEFINITION   INTERSPECTRE EXCITATION***************************#
#*********************************************************************#
So=1/(2.*pi)
INTKTJ1=DEFI_INTE_SPEC(    DIMENSION=1,
                         KANAI_TAJIMI=_F(  NUME_ORDRE_I = 1,
                                        NUME_ORDRE_J = 1,
                                        FREQ_MIN = 0.,
                                        FREQ_MAX = 50.,
                                        PAS = 1.,
                                        AMOR_REDUIT = 0.6,
                                        FREQ_MOY = 5.,
                                        VALE_R = So,
                                        INTERPOL = 'LIN',
                                        PROL_GAUCHE = 'CONSTANT',
                                        PROL_DROITE = 'CONSTANT')
                       )

INTKTJ2=DEFI_INTE_SPEC(    DIMENSION=1,
                         KANAI_TAJIMI=_F(  NOEUD_I = 'PA11',
                                        NOM_CMP_I = 'DY',
                                        NOEUD_J = 'PA11',
                                        NOM_CMP_J = 'DY',
                                        FREQ_MIN = 0.,
                                        FREQ_MAX = 50.,
                                        PAS = 1.,
                                        AMOR_REDUIT = 0.6,
                                        FREQ_MOY = 5.,
                                        VALE_R = So,
                                        INTERPOL = 'LIN',
                                        PROL_GAUCHE = 'CONSTANT',
                                        PROL_DROITE = 'CONSTANT')
                       )

INTCS=DEFI_INTE_SPEC(  
                         CONSTANT=_F(  NOEUD_I = 'PA11',
                                        NOM_CMP_I = 'DY',
                                        NOEUD_J = 'PB11',
                                        NOM_CMP_J = 'DY',
                                       VALE_C = 1.+1.j,
                                       FREQ_MIN = 0.,
                                       FREQ_MAX = 25.)
                          )



 #*********************************************************************#
# *****TEST DES VARIANCES PAR GENE_FONC_ALEA**********#
#*********************************************************************#                                                
                         
STADE=POST_DYNA_ALEA(INTERSPECTRE=_F(
                          INTE_SPEC=INTKTJ1,
                          NUME_ORDRE_J = 1,
                          NUME_ORDRE_I = 1,
                          DUREE =10.,),
                          INFO=2,
                      )   
                      
STADEJ2=POST_DYNA_ALEA(INTERSPECTRE=_F(
                         INTE_SPEC=INTKTJ2,
                         NOEUD_I = 'PA11',
                         NOM_CMP_I = 'DY',
                         NOEUD_J = 'PA11',
                         NOM_CMP_J = 'DY',
                         DUREE =10.,),
                           INFO=2,
                      )   
                      
STADECS=POST_DYNA_ALEA(INTERSPECTRE=_F(
                         INTE_SPEC=INTCS,
                         NOEUD_I = 'PA11',
                         NOM_CMP_I = 'DY',
                         NOEUD_J = 'PB11',
                         NOM_CMP_J = 'DY',
                         DUREE =10.,),
                          INFO=2,
                      )   
                      
TEST_TABLE(CRITERE='RELATIF',
           VALE_CALC=5.5220842862402,
           NOM_PARA='ECART',
           TABLE=STADE,
           FILTRE=(_F(NOM_PARA='NUME_ORDRE_I',
                      VALE_I=1,),
                   _F(NOM_PARA='NUME_ORDRE_J',
                      VALE_I=1,),
                   ),
           )


TEST_TABLE(CRITERE='RELATIF',
           VALE_CALC=5.5220842862402,
           NOM_PARA='ECART',
           TABLE=STADEJ2,
           FILTRE=(_F(NOM_PARA='NOM_CMP_I',
                      VALE_K='DY',),
                   _F(NOM_PARA='NOM_CMP_J',
                      VALE_K='DY',),
                   _F(NOM_PARA='NOEUD_I',
                      VALE_K='PA11',),
                   _F(NOM_PARA='NOEUD_J',
                      VALE_K='PA11',),
                   ),
           )

TEST_TABLE(CRITERE='RELATIF',
           VALE_CALC=50.0,
           NOM_PARA='LAMBDA_00',
           TABLE=STADECS,
           FILTRE=(_F(NOM_PARA='NOM_CMP_I',
                      VALE_K='DY',),
                   _F(NOM_PARA='NOM_CMP_J',
                      VALE_K='DY',),
                   _F(NOM_PARA='NOEUD_I',
                      VALE_K='PA11',),
                   _F(NOM_PARA='NOEUD_J',
                      VALE_K='PB11',),
                   ),
           )

TEST_TABLE(CRITERE='RELATIF',
           VALE_CALC=3.3761135643154998,
           NOM_PARA='FACT_PIC',
           TABLE=STADE,
           FILTRE=(_F(NOM_PARA='NUME_ORDRE_I',
                      VALE_I=1,),
                   _F(NOM_PARA='NUME_ORDRE_J',
                      VALE_I=1,),
                   ),
           )

TEST_TABLE(CRITERE='RELATIF',
           VALE_CALC=18.643183662068999,
           NOM_PARA='MAX_MOY',
           TABLE=STADE,
           FILTRE=(_F(NOM_PARA='NUME_ORDRE_I',
                      VALE_I=1,),
                   _F(NOM_PARA='NUME_ORDRE_J',
                      VALE_I=1,),
                   ),
           )

IMPR_TABLE(TABLE=STADE,
           UNITE=8,
           TITRE='DSP_RESU ',
           FORMAT='TABLEAU',);    
                                                             
GENE_KT=GENE_FONC_ALEA(INTE_SPEC=INTKTJ1,
                       FREQ_INIT=0.,
                       FREQ_FIN=50.,
                       NB_TIRAGE=20,
                       NB_POIN=2048,
                       INFO=2,);
                         
FONCT1=RECU_FONCTION(INTE_SPEC=GENE_KT,
                     NUME_ORDRE = 1,
                     INTERPOL='LIN',
                     PROL_DROITE='CONSTANT',
                     PROL_GAUCHE='EXCLU',
                    );
                           
test_KT=INFO_FONCTION(ECART_TYPE=_F(FONCTION=FONCT1 ),);    
    
TEST_TABLE(CRITERE='RELATIF',
           REFERENCE='AUTRE_ASTER',
           PRECISION=1.E-2,
           VALE_CALC=5.5198815616958,
           VALE_REFE=5.5220799999999999,
           NOM_PARA='ECART_TYPE ',
           TABLE=test_KT,)

# IMPR_TABLE(TABLE=test_KT,
#            UNITE=8,
#            TITRE='ECART_TYPE ',
#            FORMAT='TABLEAU',
# );                             


#*********************************************************************#
# *****CALCUL D INTERSPECTRE REPONSE: ACCE --> ACCE *****************#
# *****                               MVT ABSOLU    *****************#
# *****  INTERRE1= CALCUL COMPLET ***********************************#
#*********************************************************************#

DYNALEA1=DYNA_ALEA_MODAL(
          BASE_MODALE=_F(
             MODE_MECA = FREQ1,
             BANDE = (0., 35.,),
             AMOR_UNIF = 0.05),
        MODE_STAT=MODESTA1,
           EXCIT=_F(
             DERIVATION = 2,
             INTE_SPEC = INTKTJ1,
             NUME_ORDRE_I = 1,
             NUME_ORDRE_J = 1,
             NOEUD = 'PA1',
             NOM_CMP = 'DY'),
               REPONSE=_F(
             DERIVATION = 2,
             FREQ_MIN = 0.,
             FREQ_MAX = 30.,
             PAS = 5.)
                             )

INTERRE1=REST_SPEC_PHYS(         MODE_MECA=FREQ1,
                                         BANDE=( 0., 35., ),
                              INTE_SPEC_GENE=DYNALEA1,
                                   MODE_STAT=MODESTA1,
                               EXCIT=_F(   NOEUD = 'PA1',
                                        NOM_CMP = 'DY'),
                                   MOUVEMENT='ABSOLU',
                                    NOM_CHAM='ACCE',
                                       NOEUD=( 'PB15', 'PB25', 'PB31', ),
                                     NOM_CMP=('DY', 'DY', 'DY',  ),
                                      OPTION='TOUT_TOUT'   )

#*********************************************************************#
#********DEUXIEME METHODE: ON DECOMPOSE EN DEUX STRUCTURES************#
#*********************************************************************#
#
#*********************************************************************#
# *****CALCUL D INTERSPECTRE REPONSE: ACCE --> ACCE *****************#
# *****                               MVT ABSOLU    *****************#
# *****  INTERRE2= INTERSPECTRE INTERMEDIAIRE  **********************#
#*********************************************************************#
#
#*********************************************************************#
# *****CONDITIONS AUX LIMITES: ON BLOQUE LA STRUCTURE SECONDAIRE******#
#*********************************************************************#
CHARGE2=AFFE_CHAR_MECA(
             MODELE=MO1,DDL_IMPO=(
            _F( TOUT = 'OUI',
                     DZ = 0.0,
                     DRX = 0.0),
            _F( NOEUD = ('PA1',),
                     DX = 0.0,
                     DY = 0.0,
                     DRZ = 0.0),
            _F( GROUP_NO = 'GRNOSEC',
                     DX = 0.0,
                     DY = 0.0))
                                 )

#
MELR2=CALC_MATR_ELEM(  MODELE=MO1,
                    CHAM_MATER=CHMATR1,
                        CHARGE=CHARGE2,
                       OPTION='RIGI_MECA',
                        CARA_ELEM=CARELEM1  )

MELM2=CALC_MATR_ELEM(  MODELE=MO1,
                    CHAM_MATER=CHMATR1,
                        CHARGE=CHARGE2,
                       OPTION='MASS_MECA',
                        CARA_ELEM=CARELEM1  )

#
NUM2=NUME_DDL(  MATR_RIGI=MELR2 )

MATASSR2=ASSE_MATRICE(MATR_ELEM=MELR2,NUME_DDL=NUM2)

MATASSM2=ASSE_MATRICE(MATR_ELEM=MELM2,NUME_DDL=NUM2)

#

FREQ2=CALC_MODES(MATR_RIGI=MATASSR2,
                 OPTION='AJUSTE',
                 CALC_FREQ=_F(NMAX_FREQ=10,
                              FREQ=(0.1,3000.0,),
                              ),
                 MATR_MASS=MATASSM2,
                 SOLVEUR_MODAL=_F(NMAX_ITER_INV=30,
                                  ),
                 )


MODESTA2=MODE_STATIQUE( MATR_RIGI=MATASSR2,
                        MATR_MASS=MATASSM2,
                        MODE_STAT=_F(  NOEUD = 'PA1',
                                  AVEC_CMP = 'DY')
                      )

DYNALEA2=DYNA_ALEA_MODAL(
          BASE_MODALE=_F(
             MODE_MECA = FREQ2,
             BANDE = (0., 35.,),
             AMOR_UNIF = 0.05),
       MODE_STAT=MODESTA2,
           EXCIT=_F(
             DERIVATION = 2,
             INTE_SPEC = INTKTJ1,
             NUME_ORDRE_I = 1,
             NUME_ORDRE_J = 1,
             NOEUD = 'PA1',
             NOM_CMP = 'DY'),
              REPONSE=_F(
             DERIVATION = 2,
             FREQ_MIN = 0.,
             FREQ_MAX = 30.,
             PAS = 5.)
                      )

INTERRE2=REST_SPEC_PHYS(         MODE_MECA=FREQ2,
                                         BANDE=( 0., 35., ),
                              INTE_SPEC_GENE=DYNALEA2,
                                   MODE_STAT=MODESTA2,
                               EXCIT=_F(   NOEUD = 'PA1',
                                        NOM_CMP = 'DY'),
                                   MOUVEMENT='ABSOLU',
                                    NOM_CHAM='ACCE',
                              NOEUD=('PA11', 'PA21', 'PA31', 'PA11', 'PA21', 'PA31',),
                            NOM_CMP=('DY', 'DY', 'DY', 'DX', 'DX', 'DX',),
                                      OPTION='TOUT_TOUT'   )

#
#*********************************************************************#
# *****CALCUL D INTERSPECTRE REPONSE: ACCE --> ACCE *****************#
# *****                               MVT ABSOLU    *****************#
# *****  INTERRE3= INTERSPECTRE RESULTAT DU CALCUL CHAINE ***********#
#*********************************************************************#
#
#
#*********************************************************************#
# *****CONDITIONS AUX LIMITES: ON BLOQUE LA STRUCTURE PRIMAIRE********#
#*********************************************************************#
#
CHARGE3=AFFE_CHAR_MECA(
             MODELE=MO1,DDL_IMPO=(
            _F( TOUT = 'OUI',
                     DZ = 0.0,
                     DRX = 0.0),
            _F( GROUP_NO = 'GRNOPRIM',
                     DX = 0.0,
                     DY = 0.0),
            _F( NOEUD = ('PB11', 'PB21', 'PB31',),
                     DX = 0.0,
                     DY = 0.0))
                                 )

#
MELR3=CALC_MATR_ELEM(  MODELE=MO1,
                    CHAM_MATER=CHMATR1,
                        CHARGE=CHARGE3,
                       OPTION='RIGI_MECA',
                        CARA_ELEM=CARELEM1  )

MELM3=CALC_MATR_ELEM(  MODELE=MO1,
                    CHAM_MATER=CHMATR1,
                        CHARGE=CHARGE3,
                       OPTION='MASS_MECA',
                        CARA_ELEM=CARELEM1  )

#
NUM3=NUME_DDL(  MATR_RIGI=MELR3 )

MATASSR3=ASSE_MATRICE(MATR_ELEM=MELR3,NUME_DDL=NUM3)

MATASSM3=ASSE_MATRICE(MATR_ELEM=MELM3,NUME_DDL=NUM3)

#

FREQ3=CALC_MODES(MATR_RIGI=MATASSR3,
                 OPTION='AJUSTE',
                 CALC_FREQ=_F(NMAX_FREQ=15,
                              FREQ=(0.1,3000.0,),
                              ),
                 MATR_MASS=MATASSM3,
                 SOLVEUR_MODAL=_F(NMAX_ITER_INV=30,
                                  ),
                 )


MODESTA3=MODE_STATIQUE( MATR_RIGI=MATASSR3,
                        MATR_MASS=MATASSM3,
                        MODE_STAT=_F(
                        NOEUD = ('PB11', 'PB21', 'PB31', 'PB11', 'PB21', 'PB31',),
                        AVEC_CMP = ('DY', 'DY', 'DY', 'DX', 'DX', 'DX', )))


DYNALEA3=DYNA_ALEA_MODAL(
          BASE_MODALE=_F(
             MODE_MECA = FREQ3,
             BANDE = (0., 35.,),
             AMOR_UNIF = 0.05),
       MODE_STAT=MODESTA3,
           EXCIT=_F(
             DERIVATION = 2,
             INTE_SPEC = INTERRE2,

             NOEUD_I = ( 'PA11', 'PA21', 'PA31', 'PA11', 'PA21', 'PA31', ),
             NOM_CMP_I = ('DY', 'DY', 'DY', 'DX', 'DX', 'DX',  ),

             NOEUD_J = ( 'PA11', 'PA21', 'PA31', 'PA11', 'PA21', 'PA31', ),
             NOM_CMP_J = ('DY', 'DY', 'DY', 'DX', 'DX', 'DX',  ),

             NOEUD = ( 'PB11', 'PB21', 'PB31', 'PB11', 'PB21', 'PB31', ),
             NOM_CMP = ('DY', 'DY', 'DY', 'DX', 'DX', 'DX',  )),

             REPONSE=_F( DERIVATION = 2,
             FREQ_MIN = 0.,
             FREQ_MAX = 30.,
             PAS = 5.))

INTERRE3=REST_SPEC_PHYS(         MODE_MECA=FREQ3,
                                         BANDE=( 0., 35., ),
                              INTE_SPEC_GENE=DYNALEA3,
                                   MODE_STAT=MODESTA3,
                               EXCIT=_F(
                  NOEUD = ('PB11', 'PB21', 'PB31', 'PB11', 'PB21', 'PB31',),
                  NOM_CMP = ('DY', 'DY', 'DY', 'DX', 'DX', 'DX', )),
                                   MOUVEMENT='ABSOLU',
                                    NOM_CHAM='ACCE',
                                   NOEUD=( 'PB15', 'PB25', 'PB31', ),
                                 NOM_CMP=('DY', 'DY', 'DY',  ),
                                      OPTION='TOUT_TOUT'   )

REP1=RECU_FONCTION(    INTE_SPEC=INTERRE1,
                            NOEUD_I = 'PB25',
                            NOM_CMP_I = 'DY',
                      )

REP3=RECU_FONCTION(    INTE_SPEC=INTERRE3,
                            NOEUD_I = 'PB25',
                            NOM_CMP_I = 'DY',
                      )

TEST_FONCTION(VALEUR=_F(VALE_CALC=3.69133738274,
                        VALE_REFE=3.6913,
                        REFERENCE='AUTRE_ASTER',
                        VALE_PARA=5.0,
                        PRECISION=1.E-2,
                        FONCTION=REP1,),
              )

TEST_FONCTION(VALEUR=_F(VALE_CALC=75.4391373345,
                        VALE_REFE=75.438999999999993,
                        REFERENCE='AUTRE_ASTER',
                        VALE_PARA=10.0,
                        PRECISION=1.E-2,
                        FONCTION=REP1,),
              )

TEST_FONCTION(VALEUR=_F(VALE_CALC=1.67768742802,
                        VALE_REFE=1.6776,
                        REFERENCE='AUTRE_ASTER',
                        VALE_PARA=15.0,
                        PRECISION=1.E-2,
                        FONCTION=REP1,),
              )

TEST_FONCTION(VALEUR=_F(VALE_CALC=1.13666257476,
                        VALE_REFE=1.1367,
                        REFERENCE='AUTRE_ASTER',
                        VALE_PARA=20.0,
                        PRECISION=1.E-2,
                        FONCTION=REP1,),
              )

TEST_FONCTION(VALEUR=_F(VALE_CALC=0.292691263715,
                        VALE_REFE=0.29260000000000003,
                        REFERENCE='AUTRE_ASTER',
                        VALE_PARA=25.0,
                        PRECISION=1.E-2,
                        FONCTION=REP1,),
              )

TEST_FONCTION(VALEUR=_F(VALE_CALC=3.70524134758,
                        VALE_REFE=3.6913,
                        REFERENCE='AUTRE_ASTER',
                        VALE_PARA=5.0,
                        PRECISION=1.E-2,
                        FONCTION=REP3,),
              )

TEST_FONCTION(VALEUR=_F(VALE_CALC=75.7975390778,
                        VALE_REFE=75.438999999999993,
                        REFERENCE='AUTRE_ASTER',
                        VALE_PARA=10.0,
                        PRECISION=1.E-2,
                        FONCTION=REP3,),
              )

TEST_FONCTION(VALEUR=_F(VALE_CALC=1.6928744493,
                        VALE_REFE=1.6776,
                        REFERENCE='AUTRE_ASTER',
                        VALE_PARA=15.0,
                        PRECISION=1.E-2,
                        FONCTION=REP3,),
              )

TEST_FONCTION(VALEUR=_F(VALE_CALC=1.09871332483,
                        VALE_REFE=1.1367,
                        REFERENCE='AUTRE_ASTER',
                        VALE_PARA=20.0,
                        PRECISION=0.04,
                        FONCTION=REP3,),
              )

TEST_FONCTION(VALEUR=_F(VALE_CALC=0.262991181818,
                        VALE_REFE=0.29260000000000003,
                        REFERENCE='AUTRE_ASTER',
                        VALE_PARA=25.0,
                        PRECISION=0.11,
                        FONCTION=REP3,),
              )

FIN( )
#
