# MODIF  DATE 03/04/2012   AUTEUR SELLENET N.SELLENET 

# TITRE  :  REPONSE DYNAMIQUE D UNE POUTRE-TUYAU ENCASTREE LIBRE
#            CONFIGURATION MANAGEMENT OF EDF VERSION
# ======================================================================
# COPYRIGHT (C) 1991 - 2012  EDF R&D                  WWW.CODE-ASTER.ORG
# THIS PROGRAM IS FREE SOFTWARE; YOU CAN REDISTRIBUTE IT AND/OR MODIFY
# IT UNDER THE TERMS OF THE GNU GENERAL PUBLIC LICENSE AS PUBLISHED BY
# THE FREE SOFTWARE FOUNDATION; EITHER VERSION 2 OF THE LICENSE, OR
# (AT YOUR OPTION) ANY LATER VERSION.
#
# THIS PROGRAM IS DISTRIBUTED IN THE HOPE THAT IT WILL BE USEFUL, BUT
# WITHOUT ANY WARRANTY; WITHOUT EVEN THE IMPLIED WARRANTY OF
# MERCHANTABILITY OR FITNESS FOR A PARTICULAR PURPOSE. SEE THE GNU
# GENERAL PUBLIC LICENSE FOR MORE DETAILS.
#
# YOU SHOULD HAVE RECEIVED A COPY OF THE GNU GENERAL PUBLIC LICENSE
# ALONG WITH THIS PROGRAM; IF NOT, WRITE TO EDF R&D CODE_ASTER,
#    1 AVENUE DU GENERAL DE GAULLE, 92141 CLAMART CEDEX, FRANCE.
# ======================================================================
# MODELISATION POU_D_T

DEBUT(CODE=_F(NOM='SDLL135B',
NIV_PUB_WEB='INTERNET',),DEBUG=_F(SDVERI='NON'))
# SDVERI='NON' car la verification est trop couteuse en CPU

MAIL=LIRE_MAILLAGE(FORMAT='MED',);

MODELE=AFFE_MODELE(MAILLAGE=MAIL,
                   AFFE=_F(TOUT='OUI',
                           PHENOMENE='MECANIQUE',
                           MODELISATION='POU_D_T',),);

ACIER=DEFI_MATERIAU(ELAS=_F(E=200000E6,
                            NU=0.29,
                            RHO=7830.0,),);

CHMAT=AFFE_MATERIAU(MAILLAGE=MAIL,
                    AFFE=_F(TOUT='OUI',
                            MATER=ACIER,),);

CARAC=AFFE_CARA_ELEM(MODELE=MODELE,
                     POUTRE=_F(GROUP_MA='TOUT',
                               SECTION='CERCLE',
                               CARA=('R','EP',),
                               VALE=(0.16,0.01,),),);

LISTE=DEFI_LIST_REEL(DEBUT=0.0,
                     INTERVALLE=_F(JUSQU_A=2.E-4,
                                   PAS=1e-07,),);

LISTE2=DEFI_LIST_REEL(DEBUT=0.0,
                      INTERVALLE=_F(JUSQU_A=3.2E-4,
                                    PAS=1e-07,),);

CL=AFFE_CHAR_MECA(MODELE=MODELE,
                  DDL_IMPO=_F(GROUP_NO='A',
                              DX=0.0,
                              DY=0.0,
                              DZ=0.0,
                              DRX=0.0,
                              DRY=0.0,
                              DRZ=0.0,),);

# CHARGEMENT SOUS LA FORME D UNE FORCE ( OU D UN MOMENT ) DE TYPE HEAVYSIDE

CHARFX=AFFE_CHAR_MECA(MODELE=MODELE,
                      FORCE_NODALE=_F(GROUP_NO='B',
                                      FX=1.0,),);

CHARMX=AFFE_CHAR_MECA(MODELE=MODELE,
                      FORCE_NODALE=_F(GROUP_NO='B',
                                      MX=1.0,),);

MACRO_MATR_ASSE(MODELE=MODELE,
                CHAM_MATER=CHMAT,
                CARA_ELEM=CARAC,
                CHARGE=CL,
                NUME_DDL=CO('NUMEDDL'),
                MATR_ASSE=(_F(MATRICE=CO('MASSE'),
                              OPTION='MASS_MECA',),
                           _F(MATRICE=CO('RIGID'),
                              OPTION='RIGI_MECA',),),);

# LISTE DISCRETISE TRES FINEMENT POUR RESPECTER
# LE RAPPORT TAILLE DE MAILLE VITESSE DE L ONDE DE COMPRESSION

DYNATRAF=DYNA_VIBRA(TYPE_CALCUL='TRAN',BASE_CALCUL='PHYS',
                        MODELE=MODELE,
                        CHAM_MATER=CHMAT,
                        CARA_ELEM=CARAC,
                        MATR_MASS=MASSE,
                        MATR_RIGI=RIGID,
                        SCHEMA_TEMPS=_F(SCHEMA='NEWMARK',),
                        EXCIT=(_F(CHARGE=CHARFX,),
                               _F(CHARGE=CL,),),
                        INCREMENT=_F(LIST_INST=LISTE,),
                        ARCHIVAGE=_F(PAS_ARCH=100,),);

DYNATRAF=CALC_ELEM(reuse =DYNATRAF,



                   RESULTAT=DYNATRAF,
                   OPTION=('SIEF_ELGA','SIEF_ELNO',),);

DYNATRAF=CALC_CHAMP(reuse =DYNATRAF,
                    RESULTAT=DYNATRAF,
                    FORCE='REAC_NODA',
                    MODELE=MODELE,
                    CHAM_MATER=CHMAT,
                    CARA_ELEM=CARAC,
                    EXCIT=(_F(CHARGE=CHARFX,),
                           _F(CHARGE=CL,),),);

# TEST DU CHAMP DE DEPLACEMENT SUR LE NOEUD EXTREMITE

TEST_RESU(RESU=_F(RESULTAT=DYNATRAF,
                  NUME_ORDRE=10,
                  NOM_CHAM='DEPL',
                  NOM_CMP='DX',
                  GROUP_NO='B',
                  VALE=2.59473227925e-10,
                  REFERENCE='ANALYTIQUE',),);

TEST_RESU(RESU=_F(RESULTAT=DYNATRAF,
                  NUME_ORDRE=15,
                  NOM_CHAM='DEPL',
                  NOM_CMP='DX',
                  GROUP_NO='B',
                  VALE=3.89209841887e-10,
                  REFERENCE='ANALYTIQUE',),);

TEST_RESU(RESU=_F(RESULTAT=DYNATRAF,
                  NUME_ORDRE=20,
                  NOM_CHAM='DEPL',
                  NOM_CMP='DX',
                  GROUP_NO='B',
                  VALE=5.18946455848e-10,
                  REFERENCE='ANALYTIQUE',),);

# TEST SUR LES REACTIONS NODALES

TEST_RESU(RESU=_F(RESULTAT=DYNATRAF,
                  NUME_ORDRE=10,
                  NOM_CHAM='REAC_NODA',
                  NOM_CMP='DX',
                  GROUP_NO='A',
                  VALE=0.0,
                  CRITERE='ABSOLU',
                  REFERENCE='ANALYTIQUE',),);

TEST_RESU(RESU=_F(RESULTAT=DYNATRAF,
                  NUME_ORDRE=10,
                  NOM_CHAM='REAC_NODA',
                  NOM_CMP='DX',
                  GROUP_NO='B',
                  VALE=0.0,
                  CRITERE='ABSOLU',
                  REFERENCE='ANALYTIQUE',),);

TEST_RESU(RESU=_F(RESULTAT=DYNATRAF,
                  NUME_ORDRE=15,
                  NOM_CHAM='REAC_NODA',
                  NOM_CMP='DX',
                  GROUP_NO='A',
                  VALE=0.0,
                  CRITERE='ABSOLU',
                  REFERENCE='ANALYTIQUE',),);

TEST_RESU(RESU=_F(RESULTAT=DYNATRAF,
                  NUME_ORDRE=20,
                  NOM_CHAM='REAC_NODA',
                  NOM_CMP='DX',
                  GROUP_NO='A',
                  VALE=-1.99999819062,
                  PRECISION=0.05,
                  REFERENCE='ANALYTIQUE',),);

TEST_RESU(RESU=_F(RESULTAT=DYNATRAF,
                  NUME_ORDRE=20,
                  NOM_CHAM='REAC_NODA',
                  NOM_CMP='DX',
                  GROUP_NO='B',
                  VALE=0.0,
                  CRITERE='ABSOLU',
                  REFERENCE='ANALYTIQUE',),);

# RECHERCHE DES MODES PROPRES DE TRACTIONS/COMPRESSIONS

MODE_DX=MODE_ITER_INV(MATR_A=RIGID,
                      MATR_B=MASSE,
                      CALC_FREQ=_F(
                      OPTION='PROCHE',
                      FREQ=(1263.497,3790.49,6317.484,8844.4477,11371.473,),),);

TEST_RESU(RESU=_F(RESULTAT=MODE_DX,
                  NUME_ORDRE=1,
                  PARA='FREQ',
                  VALE=1263.497,
                  CRITERE='RELATIF',
                  REFERENCE='ANALYTIQUE',),);

TEST_RESU(RESU=_F(RESULTAT=MODE_DX,
                  NUME_ORDRE=2,
                  PARA='FREQ',
                  VALE=3790.49,
                  CRITERE='RELATIF',
                  REFERENCE='ANALYTIQUE',),);

TEST_RESU(RESU=_F(RESULTAT=MODE_DX,
                  NUME_ORDRE=3,
                  PARA='FREQ',
                  VALE=6317.484,
                  CRITERE='RELATIF',
                  REFERENCE='ANALYTIQUE',),);

TEST_RESU(RESU=_F(RESULTAT=MODE_DX,
                  NUME_ORDRE=4,
                  PARA='FREQ',
                  VALE=8844.4477,
                  CRITERE='RELATIF',
                  REFERENCE='ANALYTIQUE',),);

TEST_RESU(RESU=_F(RESULTAT=MODE_DX,
                  NUME_ORDRE=5,
                  PARA='FREQ',
                  VALE=11371.473,
                  CRITERE='RELATIF',
                  REFERENCE='ANALYTIQUE',),);

# RECHERCHE DES MODES PROPRES DE FLEXION

MODE_FZ=MODE_ITER_INV(MATR_A=RIGID,
                      MATR_B=MASSE,
                      CALC_FREQ=_F(
                      OPTION='PROCHE',
                      FREQ=(269.932,1077.199,2270.705,3249.207,4649.212,),),);

# REMARQUE : LA COMPARAISON DES VALEURS DES FREQUENCES PAR RAPPORT
# AUX VALEURS ANALYTIQUES SONT PLUS DEFAVORABLES QUE DANS LES AUTRES CAS
# LA RAISON EST LA VALEUR DU COEFFICIENT DE SECTION REDUITE DIFFERENT ENRE LA
# FORMULE ANALYTIQUE CHOISIE ET CODE_ASTER

TEST_RESU(RESU=_F(RESULTAT=MODE_FZ,
                  NUME_ORDRE=1,
                  PARA='FREQ',
                  VALE=269.932,
                  CRITERE='RELATIF',
                  PRECISION=0.01,
                  REFERENCE='ANALYTIQUE',),);

TEST_RESU(RESU=_F(RESULTAT=MODE_FZ,
                  NUME_ORDRE=2,
                  PARA='FREQ',
                  VALE=1077.199,
                  CRITERE='RELATIF',
                  PRECISION=0.02,
                  REFERENCE='ANALYTIQUE',),);

TEST_RESU(RESU=_F(RESULTAT=MODE_FZ,
                  NUME_ORDRE=3,
                  PARA='FREQ',
                  VALE=2270.705,
                  CRITERE='RELATIF',
                  PRECISION=0.02,
                  REFERENCE='ANALYTIQUE',),);

TEST_RESU(RESU=_F(RESULTAT=MODE_FZ,
                  NUME_ORDRE=4,
                  PARA='FREQ',
                  VALE=3249.207,
                  CRITERE='RELATIF',
                  PRECISION=0.03,
                  REFERENCE='ANALYTIQUE',),);

TEST_RESU(RESU=_F(RESULTAT=MODE_FZ,
                  NUME_ORDRE=5,
                  PARA='FREQ',
                  VALE=4649.212,
                  CRITERE='RELATIF',
                  PRECISION=0.03,
                  REFERENCE='ANALYTIQUE',),);

# RECHERCHE DES MODES PROPRES DE TORSION

MODE_DRX=MODE_ITER_INV(MATR_A=RIGID,
                       MATR_B=MASSE,
                       CALC_FREQ=_F(
                       OPTION='PROCHE',
                       FREQ=(786.619,2359.856,3933.094,5506.33,),),);

TEST_RESU(RESU=_F(RESULTAT=MODE_DRX,
                  NUME_ORDRE=1,
                  PARA='FREQ',
                  VALE=786.619,
                  CRITERE='RELATIF',
                  REFERENCE='ANALYTIQUE',),);

TEST_RESU(RESU=_F(RESULTAT=MODE_DRX,
                  NUME_ORDRE=2,
                  PARA='FREQ',
                  VALE=2359.856,
                  CRITERE='RELATIF',
                  REFERENCE='ANALYTIQUE',),);

TEST_RESU(RESU=_F(RESULTAT=MODE_DRX,
                  NUME_ORDRE=3,
                  PARA='FREQ',
                  VALE=3933.094,
                  CRITERE='RELATIF',
                  REFERENCE='ANALYTIQUE',),);

TEST_RESU(RESU=_F(RESULTAT=MODE_DRX,
                  NUME_ORDRE=4,
                  PARA='FREQ',
                  VALE=5506.33,
                  CRITERE='RELATIF',
                  REFERENCE='ANALYTIQUE',),);

# CHARGEMENT DE TYPE TORSION : LA LISTE D INSTANT EST DIFFERENTE CAR
# LA VITESSE DE L ONDE DE TORSION EST INFERIEURE A CELLE DE TRACTION
# D OU UN TEMPS SUPERIEUR POUR ATTEINDRE LE BOUT DE LA POUTRE

DYNATRAM=DYNA_VIBRA(TYPE_CALCUL='TRAN',BASE_CALCUL='PHYS',
                        MODELE=MODELE,
                        CHAM_MATER=CHMAT,
                        CARA_ELEM=CARAC,
                        MATR_MASS=MASSE,
                        MATR_RIGI=RIGID,
                        SCHEMA_TEMPS=_F(SCHEMA='NEWMARK',),
                        EXCIT=(_F(CHARGE=CHARMX,),
                               _F(CHARGE=CL,),),
                        INCREMENT=_F(LIST_INST=LISTE2,),
                        ARCHIVAGE=_F(PAS_ARCH=100,),);

DYNATRAM=CALC_ELEM(reuse =DYNATRAM,



                   RESULTAT=DYNATRAM,
                   OPTION=('SIEF_ELGA','SIEF_ELNO',),);

DYNATRAM=CALC_CHAMP(reuse =DYNATRAM,
                    RESULTAT=DYNATRAM,
                    FORCE='REAC_NODA',
                    MODELE=MODELE,
                    CHAM_MATER=CHMAT,
                    CARA_ELEM=CARAC,
                    EXCIT=(_F(CHARGE=CHARMX,),
                           _F(CHARGE=CL,),),);

# TEST SUR LES DEPLACEMENTS

TEST_RESU(RESU=_F(RESULTAT=DYNATRAM,
                  NUME_ORDRE=5,
                  NOM_CHAM='DEPL',
                  NOM_CMP='DRX',
                  GROUP_NO='B',
                  VALE=8.66477582461e-09,
                  PRECISION=0.0015,
                  REFERENCE='ANALYTIQUE',),);

TEST_RESU(RESU=_F(RESULTAT=DYNATRAM,
                  NUME_ORDRE=10,
                  NOM_CHAM='DEPL',
                  NOM_CMP='DRX',
                  GROUP_NO='B',
                  VALE=1.73295916526e-08,
                  REFERENCE='ANALYTIQUE',),);

TEST_RESU(RESU=_F(RESULTAT=DYNATRAM,
                  NUME_ORDRE=20,
                  NOM_CHAM='DEPL',
                  NOM_CMP='DRX',
                  GROUP_NO='B',
                  VALE=3.46591033075e-08,
                  REFERENCE='ANALYTIQUE',),);

# TEST SUR LES REACTIONS NODALES

TEST_RESU(RESU=_F(RESULTAT=DYNATRAM,
                  NUME_ORDRE=10,
                  NOM_CHAM='REAC_NODA',
                  NOM_CMP='DRX',
                  GROUP_NO='A',
                  VALE=0.0,
                  CRITERE='ABSOLU',
                  REFERENCE='ANALYTIQUE',),);

TEST_RESU(RESU=_F(RESULTAT=DYNATRAM,
                  NUME_ORDRE=10,
                  NOM_CHAM='REAC_NODA',
                  NOM_CMP='DRX',
                  GROUP_NO='B',
                  VALE=0.0,
                  CRITERE='ABSOLU',
                  REFERENCE='ANALYTIQUE',),);

TEST_RESU(RESU=_F(RESULTAT=DYNATRAM,
                  NUME_ORDRE=15,
                  NOM_CHAM='REAC_NODA',
                  NOM_CMP='DRX',
                  GROUP_NO='A',
                  VALE=0.0,
                  CRITERE='ABSOLU',
                  REFERENCE='ANALYTIQUE',),);

TEST_RESU(RESU=_F(RESULTAT=DYNATRAM,
                  NUME_ORDRE=20,
                  NOM_CHAM='REAC_NODA',
                  NOM_CMP='DRX',
                  GROUP_NO='A',
                  VALE=0.0,
                  CRITERE='ABSOLU',
                  PRECISION=1e-08,
                  REFERENCE='ANALYTIQUE',),);

TEST_RESU(RESU=_F(RESULTAT=DYNATRAM,
                  NUME_ORDRE=32,
                  NOM_CHAM='REAC_NODA',
                  NOM_CMP='DRX',
                  GROUP_NO='A',
                  VALE=-2.00000001424,
                  PRECISION=0.05,
                  REFERENCE='ANALYTIQUE',),);

TEST_RESU(RESU=_F(RESULTAT=DYNATRAM,
                  NUME_ORDRE=32,
                  NOM_CHAM='REAC_NODA',
                  NOM_CMP='DRX',
                  GROUP_NO='B',
                  VALE=0.0,
                  CRITERE='ABSOLU',
                  PRECISION=1e-08,
                  REFERENCE='ANALYTIQUE',),);

FIN();
