# ======================================================================
# COPYRIGHT (C) 1991 - 2016  EDF R&D                  WWW.CODE-ASTER.ORG
# THIS PROGRAM IS FREE SOFTWARE; YOU CAN REDISTRIBUTE IT AND/OR MODIFY  
# IT UNDER THE TERMS OF THE GNU GENERAL PUBLIC LICENSE AS PUBLISHED BY  
# THE FREE SOFTWARE FOUNDATION; EITHER VERSION 2 OF THE LICENSE, OR     
# (AT YOUR OPTION) ANY LATER VERSION.                                                    
#                                                                       
# THIS PROGRAM IS DISTRIBUTED IN THE HOPE THAT IT WILL BE USEFUL, BUT   
# WITHOUT ANY WARRANTY; WITHOUT EVEN THE IMPLIED WARRANTY OF            
# MERCHANTABILITY OR FITNESS FOR A PARTICULAR PURPOSE. SEE THE GNU      
# GENERAL PUBLIC LICENSE FOR MORE DETAILS.                              
#                                                                       
# YOU SHOULD HAVE RECEIVED A COPY OF THE GNU GENERAL PUBLIC LICENSE     
# ALONG WITH THIS PROGRAM; IF NOT, WRITE TO EDF R&D CODE_ASTER,         
#    1 AVENUE DU GENERAL DE GAULLE, 92141 CLAMART CEDEX, FRANCE.        
# ======================================================================
# CAS_TEST__:SDLL127B
#

DEBUT(CODE=_F(
              NIV_PUB_WEB='INTERNET',
              VISU_EFICAS='OUI',),
              DEBUG=_F(SDVERI='OUI'),);

MAIL=LIRE_MAILLAGE(FORMAT='MED',)



# DEFINITION DU MODELE ASTER
MO=AFFE_MODELE(MAILLAGE=MAIL,
                   AFFE=_F(GROUP_MA=('POUTRE'),
                           PHENOMENE='MECANIQUE',
                           MODELISATION='POU_D_T',),);

#
# DEFINITION DES MATERIAUX AFFECTES AUX ELEMENTS DE TYPE RAIDEUR
#
KMAT0    = DEFI_MATERIAU(ELAS=_F
           (E=0.2000E+12,
           NU=0.3000E+00,
          RHO=0.7800E+04));

#
# AFFECTATION MATERIAUX AUX ELEMENTS DE MASSE ET DE RAIDEUR
#
MAT=AFFE_MATERIAU( MAILLAGE=MAIL,AFFE=(
        _F(GROUP_MA='POUTRE    ' , MATER = KMAT0    ),
                   ),);
#
# AFFECTATION DES CARACTERISTIQUES ELEMENTAIRES AUX ELEMENTS
#
CAEL=AFFE_CARA_ELEM(MODELE=MO,
# DEFINITION DES ELEMENTS POUTRES  A SECTION CONSTANTE
     POUTRE=(
      _F(MAILLE='M1     ',
        SECTION='CERCLE',
        CARA=('R','EP',),
VALE=(0.100000E+00,0.200000E-01)
         ),
      _F(MAILLE='M2     ',
        SECTION='CERCLE',
        CARA=('R','EP',),
VALE=(0.999750E-01,0.200000E-01)
         ),
      _F(MAILLE='M3     ',
        SECTION='CERCLE',
        CARA=('R','EP',),
VALE=(0.999500E-01,0.200000E-01)
         ),
      _F(MAILLE='M4     ',
        SECTION='CERCLE',
        CARA=('R','EP',),
VALE=(0.999250E-01,0.200000E-01)
         ),
      _F(MAILLE='M5     ',
        SECTION='CERCLE',
        CARA=('R','EP',),
VALE=(0.999000E-01,0.200000E-01)
         ),
      _F(MAILLE='M6     ',
        SECTION='CERCLE',
        CARA=('R','EP',),
VALE=(0.998750E-01,0.200000E-01)
         ),
      _F(MAILLE='M7     ',
        SECTION='CERCLE',
        CARA=('R','EP',),
VALE=(0.998500E-01,0.200000E-01)
         ),
      _F(MAILLE='M8     ',
        SECTION='CERCLE',
        CARA=('R','EP',),
VALE=(0.998250E-01,0.200000E-01)
         ),
      _F(MAILLE='M9     ',
        SECTION='CERCLE',
        CARA=('R','EP',),
VALE=(0.998000E-01,0.200000E-01)
         ),
      _F(MAILLE='M10    ',
        SECTION='CERCLE',
        CARA=('R','EP',),
VALE=(0.997750E-01,0.200000E-01)
         ),
      _F(MAILLE='M11    ',
        SECTION='CERCLE',
        CARA=('R','EP',),
VALE=(0.997500E-01,0.200000E-01)
         ),
      _F(MAILLE='M12    ',
        SECTION='CERCLE',
        CARA=('R','EP',),
VALE=(0.997250E-01,0.200000E-01)
         ),
      _F(MAILLE='M13    ',
        SECTION='CERCLE',
        CARA=('R','EP',),
VALE=(0.997000E-01,0.200000E-01)
         ),
      _F(MAILLE='M14    ',
        SECTION='CERCLE',
        CARA=('R','EP',),
VALE=(0.996750E-01,0.200000E-01)
         ),
      _F(MAILLE='M15    ',
        SECTION='CERCLE',
        CARA=('R','EP',),
VALE=(0.996500E-01,0.200000E-01)
         ),
      _F(MAILLE='M16    ',
        SECTION='CERCLE',
        CARA=('R','EP',),
VALE=(0.996250E-01,0.200000E-01)
         ),
      _F(MAILLE='M17    ',
        SECTION='CERCLE',
        CARA=('R','EP',),
VALE=(0.996000E-01,0.200000E-01)
         ),
      _F(MAILLE='M18    ',
        SECTION='CERCLE',
        CARA=('R','EP',),
VALE=(0.995750E-01,0.200000E-01)
         ),
      _F(MAILLE='M19    ',
        SECTION='CERCLE',
        CARA=('R','EP',),
VALE=(0.995500E-01,0.200000E-01)
         ),
      _F(MAILLE='M20    ',
        SECTION='CERCLE',
        CARA=('R','EP',),
VALE=(0.995250E-01,0.200000E-01)
         ),
      _F(MAILLE='M21    ',
        SECTION='CERCLE',
        CARA=('R','EP',),
VALE=(0.995000E-01,0.200000E-01)
         ),
      _F(MAILLE='M22    ',
        SECTION='CERCLE',
        CARA=('R','EP',),
VALE=(0.994750E-01,0.200000E-01)
         ),
      _F(MAILLE='M23    ',
        SECTION='CERCLE',
        CARA=('R','EP',),
VALE=(0.994500E-01,0.200000E-01)
         ),
      _F(MAILLE='M24    ',
        SECTION='CERCLE',
        CARA=('R','EP',),
VALE=(0.994250E-01,0.200000E-01)
         ),
      _F(MAILLE='M25    ',
        SECTION='CERCLE',
        CARA=('R','EP',),
VALE=(0.994000E-01,0.200000E-01)
         ),
      _F(MAILLE='M26    ',
        SECTION='CERCLE',
        CARA=('R','EP',),
VALE=(0.993750E-01,0.200000E-01)
         ),
      _F(MAILLE='M27    ',
        SECTION='CERCLE',
        CARA=('R','EP',),
VALE=(0.993500E-01,0.200000E-01)
         ),
      _F(MAILLE='M28    ',
        SECTION='CERCLE',
        CARA=('R','EP',),
VALE=(0.993250E-01,0.200000E-01)
         ),
      _F(MAILLE='M29    ',
        SECTION='CERCLE',
        CARA=('R','EP',),
VALE=(0.993000E-01,0.200000E-01)
         ),
      _F(MAILLE='M30    ',
        SECTION='CERCLE',
        CARA=('R','EP',),
VALE=(0.992750E-01,0.200000E-01)
         ),
      _F(MAILLE='M31    ',
        SECTION='CERCLE',
        CARA=('R','EP',),
VALE=(0.992500E-01,0.200000E-01)
         ),
      _F(MAILLE='M32    ',
        SECTION='CERCLE',
        CARA=('R','EP',),
VALE=(0.992250E-01,0.200000E-01)
         ),
      _F(MAILLE='M33    ',
        SECTION='CERCLE',
        CARA=('R','EP',),
VALE=(0.992000E-01,0.200000E-01)
         ),
      _F(MAILLE='M34    ',
        SECTION='CERCLE',
        CARA=('R','EP',),
VALE=(0.991750E-01,0.200000E-01)
         ),
      _F(MAILLE='M35    ',
        SECTION='CERCLE',
        CARA=('R','EP',),
VALE=(0.991500E-01,0.200000E-01)
         ),
      _F(MAILLE='M36    ',
        SECTION='CERCLE',
        CARA=('R','EP',),
VALE=(0.991250E-01,0.200000E-01)
         ),
      _F(MAILLE='M37    ',
        SECTION='CERCLE',
        CARA=('R','EP',),
VALE=(0.991000E-01,0.200000E-01)
         ),
      _F(MAILLE='M38    ',
        SECTION='CERCLE',
        CARA=('R','EP',),
VALE=(0.990750E-01,0.200000E-01)
         ),
      _F(MAILLE='M39    ',
        SECTION='CERCLE',
        CARA=('R','EP',),
VALE=(0.990500E-01,0.200000E-01)
         ),
      _F(MAILLE='M40    ',
        SECTION='CERCLE',
        CARA=('R','EP',),
VALE=(0.990250E-01,0.200000E-01)
         ),
      _F(MAILLE='M41    ',
        SECTION='CERCLE',
        CARA=('R','EP',),
VALE=(0.990000E-01,0.200000E-01)
         ),
      _F(MAILLE='M42    ',
        SECTION='CERCLE',
        CARA=('R','EP',),
VALE=(0.989750E-01,0.200000E-01)
         ),
      _F(MAILLE='M43    ',
        SECTION='CERCLE',
        CARA=('R','EP',),
VALE=(0.989500E-01,0.200000E-01)
         ),
      _F(MAILLE='M44    ',
        SECTION='CERCLE',
        CARA=('R','EP',),
VALE=(0.989250E-01,0.200000E-01)
         ),
      _F(MAILLE='M45    ',
        SECTION='CERCLE',
        CARA=('R','EP',),
VALE=(0.989000E-01,0.200000E-01)
         ),
      _F(MAILLE='M46    ',
        SECTION='CERCLE',
        CARA=('R','EP',),
VALE=(0.988750E-01,0.200000E-01)
         ),
      _F(MAILLE='M47    ',
        SECTION='CERCLE',
        CARA=('R','EP',),
VALE=(0.988500E-01,0.200000E-01)
         ),
      _F(MAILLE='M48    ',
        SECTION='CERCLE',
        CARA=('R','EP',),
VALE=(0.988250E-01,0.200000E-01)
         ),
      _F(MAILLE='M49    ',
        SECTION='CERCLE',
        CARA=('R','EP',),
VALE=(0.988000E-01,0.200000E-01)
         ),
      _F(MAILLE='M50    ',
        SECTION='CERCLE',
        CARA=('R','EP',),
VALE=(0.987750E-01,0.200000E-01)
         ),
      _F(MAILLE='M51    ',
        SECTION='CERCLE',
        CARA=('R','EP',),
VALE=(0.987500E-01,0.200000E-01)
         ),
      _F(MAILLE='M52    ',
        SECTION='CERCLE',
        CARA=('R','EP',),
VALE=(0.987250E-01,0.200000E-01)
         ),
      _F(MAILLE='M53    ',
        SECTION='CERCLE',
        CARA=('R','EP',),
VALE=(0.987000E-01,0.200000E-01)
         ),
      _F(MAILLE='M54    ',
        SECTION='CERCLE',
        CARA=('R','EP',),
VALE=(0.986750E-01,0.200000E-01)
         ),
      _F(MAILLE='M55    ',
        SECTION='CERCLE',
        CARA=('R','EP',),
VALE=(0.986500E-01,0.200000E-01)
         ),
      _F(MAILLE='M56    ',
        SECTION='CERCLE',
        CARA=('R','EP',),
VALE=(0.986250E-01,0.200000E-01)
         ),
      _F(MAILLE='M57    ',
        SECTION='CERCLE',
        CARA=('R','EP',),
VALE=(0.986000E-01,0.200000E-01)
         ),
      _F(MAILLE='M58    ',
        SECTION='CERCLE',
        CARA=('R','EP',),
VALE=(0.985750E-01,0.200000E-01)
         ),
      _F(MAILLE='M59    ',
        SECTION='CERCLE',
        CARA=('R','EP',),
VALE=(0.985500E-01,0.200000E-01)
         ),
      _F(MAILLE='M60    ',
        SECTION='CERCLE',
        CARA=('R','EP',),
VALE=(0.985250E-01,0.200000E-01)
         ),
      _F(MAILLE='M61    ',
        SECTION='CERCLE',
        CARA=('R','EP',),
VALE=(0.985000E-01,0.200000E-01)
         ),
      _F(MAILLE='M62    ',
        SECTION='CERCLE',
        CARA=('R','EP',),
VALE=(0.984750E-01,0.200000E-01)
         ),
      _F(MAILLE='M63    ',
        SECTION='CERCLE',
        CARA=('R','EP',),
VALE=(0.984500E-01,0.200000E-01)
         ),
      _F(MAILLE='M64    ',
        SECTION='CERCLE',
        CARA=('R','EP',),
VALE=(0.984250E-01,0.200000E-01)
         ),
      _F(MAILLE='M65    ',
        SECTION='CERCLE',
        CARA=('R','EP',),
VALE=(0.984000E-01,0.200000E-01)
         ),
      _F(MAILLE='M66    ',
        SECTION='CERCLE',
        CARA=('R','EP',),
VALE=(0.983750E-01,0.200000E-01)
         ),
      _F(MAILLE='M67    ',
        SECTION='CERCLE',
        CARA=('R','EP',),
VALE=(0.983500E-01,0.200000E-01)
         ),
      _F(MAILLE='M68    ',
        SECTION='CERCLE',
        CARA=('R','EP',),
VALE=(0.983250E-01,0.200000E-01)
         ),
      _F(MAILLE='M69    ',
        SECTION='CERCLE',
        CARA=('R','EP',),
VALE=(0.983000E-01,0.200000E-01)
         ),
      _F(MAILLE='M70    ',
        SECTION='CERCLE',
        CARA=('R','EP',),
VALE=(0.982750E-01,0.200000E-01)
         ),
      _F(MAILLE='M71    ',
        SECTION='CERCLE',
        CARA=('R','EP',),
VALE=(0.982500E-01,0.200000E-01)
         ),
      _F(MAILLE='M72    ',
        SECTION='CERCLE',
        CARA=('R','EP',),
VALE=(0.982250E-01,0.200000E-01)
         ),
      _F(MAILLE='M73    ',
        SECTION='CERCLE',
        CARA=('R','EP',),
VALE=(0.982000E-01,0.200000E-01)
         ),
      _F(MAILLE='M74    ',
        SECTION='CERCLE',
        CARA=('R','EP',),
VALE=(0.981750E-01,0.200000E-01)
         ),
      _F(MAILLE='M75    ',
        SECTION='CERCLE',
        CARA=('R','EP',),
VALE=(0.981500E-01,0.200000E-01)
         ),
      _F(MAILLE='M76    ',
        SECTION='CERCLE',
        CARA=('R','EP',),
VALE=(0.981250E-01,0.200000E-01)
         ),
      _F(MAILLE='M77    ',
        SECTION='CERCLE',
        CARA=('R','EP',),
VALE=(0.981000E-01,0.200000E-01)
         ),
      _F(MAILLE='M78    ',
        SECTION='CERCLE',
        CARA=('R','EP',),
VALE=(0.980750E-01,0.200000E-01)
         ),
      _F(MAILLE='M79    ',
        SECTION='CERCLE',
        CARA=('R','EP',),
VALE=(0.980500E-01,0.200000E-01)
         ),
      _F(MAILLE='M80    ',
        SECTION='CERCLE',
        CARA=('R','EP',),
VALE=(0.980250E-01,0.200000E-01)
         ),
      _F(MAILLE='M81    ',
        SECTION='CERCLE',
        CARA=('R','EP',),
VALE=(0.980000E-01,0.200000E-01)
         ),
      _F(MAILLE='M82    ',
        SECTION='CERCLE',
        CARA=('R','EP',),
VALE=(0.979750E-01,0.200000E-01)
         ),
      _F(MAILLE='M83    ',
        SECTION='CERCLE',
        CARA=('R','EP',),
VALE=(0.979500E-01,0.200000E-01)
         ),
      _F(MAILLE='M84    ',
        SECTION='CERCLE',
        CARA=('R','EP',),
VALE=(0.979250E-01,0.200000E-01)
         ),
      _F(MAILLE='M85    ',
        SECTION='CERCLE',
        CARA=('R','EP',),
VALE=(0.979000E-01,0.200000E-01)
         ),
      _F(MAILLE='M86    ',
        SECTION='CERCLE',
        CARA=('R','EP',),
VALE=(0.978750E-01,0.200000E-01)
         ),
      _F(MAILLE='M87    ',
        SECTION='CERCLE',
        CARA=('R','EP',),
VALE=(0.978500E-01,0.200000E-01)
         ),
      _F(MAILLE='M88    ',
        SECTION='CERCLE',
        CARA=('R','EP',),
VALE=(0.978250E-01,0.200000E-01)
         ),
      _F(MAILLE='M89    ',
        SECTION='CERCLE',
        CARA=('R','EP',),
VALE=(0.978000E-01,0.200000E-01)
         ),
      _F(MAILLE='M90    ',
        SECTION='CERCLE',
        CARA=('R','EP',),
VALE=(0.977750E-01,0.200000E-01)
         ),
      _F(MAILLE='M91    ',
        SECTION='CERCLE',
        CARA=('R','EP',),
VALE=(0.977500E-01,0.200000E-01)
         ),
      _F(MAILLE='M92    ',
        SECTION='CERCLE',
        CARA=('R','EP',),
VALE=(0.977250E-01,0.200000E-01)
         ),
      _F(MAILLE='M93    ',
        SECTION='CERCLE',
        CARA=('R','EP',),
VALE=(0.977000E-01,0.200000E-01)
         ),
      _F(MAILLE='M94    ',
        SECTION='CERCLE',
        CARA=('R','EP',),
VALE=(0.976750E-01,0.200000E-01)
         ),
      _F(MAILLE='M95    ',
        SECTION='CERCLE',
        CARA=('R','EP',),
VALE=(0.976500E-01,0.200000E-01)
         ),
      _F(MAILLE='M96    ',
        SECTION='CERCLE',
        CARA=('R','EP',),
VALE=(0.976250E-01,0.200000E-01)
         ),
      _F(MAILLE='M97    ',
        SECTION='CERCLE',
        CARA=('R','EP',),
VALE=(0.976000E-01,0.200000E-01)
         ),
      _F(MAILLE='M98    ',
        SECTION='CERCLE',
        CARA=('R','EP',),
VALE=(0.975750E-01,0.200000E-01)
         ),
      _F(MAILLE='M99    ',
        SECTION='CERCLE',
        CARA=('R','EP',),
VALE=(0.975500E-01,0.200000E-01)
         ),
      _F(MAILLE='M100   ',
        SECTION='CERCLE',
        CARA=('R','EP',),
VALE=(0.975250E-01,0.200000E-01)
         ),
      _F(MAILLE='M101   ',
        SECTION='CERCLE',
        CARA=('R','EP',),
VALE=(0.975000E-01,0.200000E-01)
         ),
      _F(MAILLE='M102   ',
        SECTION='CERCLE',
        CARA=('R','EP',),
VALE=(0.974750E-01,0.200000E-01)
         ),
      _F(MAILLE='M103   ',
        SECTION='CERCLE',
        CARA=('R','EP',),
VALE=(0.974500E-01,0.200000E-01)
         ),
      _F(MAILLE='M104   ',
        SECTION='CERCLE',
        CARA=('R','EP',),
VALE=(0.974250E-01,0.200000E-01)
         ),
      _F(MAILLE='M105   ',
        SECTION='CERCLE',
        CARA=('R','EP',),
VALE=(0.974000E-01,0.200000E-01)
         ),
      _F(MAILLE='M106   ',
        SECTION='CERCLE',
        CARA=('R','EP',),
VALE=(0.973750E-01,0.200000E-01)
         ),
      _F(MAILLE='M107   ',
        SECTION='CERCLE',
        CARA=('R','EP',),
VALE=(0.973500E-01,0.200000E-01)
         ),
      _F(MAILLE='M108   ',
        SECTION='CERCLE',
        CARA=('R','EP',),
VALE=(0.973250E-01,0.200000E-01)
         ),
      _F(MAILLE='M109   ',
        SECTION='CERCLE',
        CARA=('R','EP',),
VALE=(0.973000E-01,0.200000E-01)
         ),
      _F(MAILLE='M110   ',
        SECTION='CERCLE',
        CARA=('R','EP',),
VALE=(0.972750E-01,0.200000E-01)
         ),
      _F(MAILLE='M111   ',
        SECTION='CERCLE',
        CARA=('R','EP',),
VALE=(0.972500E-01,0.200000E-01)
         ),
      _F(MAILLE='M112   ',
        SECTION='CERCLE',
        CARA=('R','EP',),
VALE=(0.972250E-01,0.200000E-01)
         ),
      _F(MAILLE='M113   ',
        SECTION='CERCLE',
        CARA=('R','EP',),
VALE=(0.972000E-01,0.200000E-01)
         ),
      _F(MAILLE='M114   ',
        SECTION='CERCLE',
        CARA=('R','EP',),
VALE=(0.971750E-01,0.200000E-01)
         ),
      _F(MAILLE='M115   ',
        SECTION='CERCLE',
        CARA=('R','EP',),
VALE=(0.971500E-01,0.200000E-01)
         ),
      _F(MAILLE='M116   ',
        SECTION='CERCLE',
        CARA=('R','EP',),
VALE=(0.971250E-01,0.200000E-01)
         ),
      _F(MAILLE='M117   ',
        SECTION='CERCLE',
        CARA=('R','EP',),
VALE=(0.971000E-01,0.200000E-01)
         ),
      _F(MAILLE='M118   ',
        SECTION='CERCLE',
        CARA=('R','EP',),
VALE=(0.970750E-01,0.200000E-01)
         ),
      _F(MAILLE='M119   ',
        SECTION='CERCLE',
        CARA=('R','EP',),
VALE=(0.970500E-01,0.200000E-01)
         ),
      _F(MAILLE='M120   ',
        SECTION='CERCLE',
        CARA=('R','EP',),
VALE=(0.970250E-01,0.200000E-01)
         ),
      _F(MAILLE='M121   ',
        SECTION='CERCLE',
        CARA=('R','EP',),
VALE=(0.970000E-01,0.200000E-01)
         ),
      _F(MAILLE='M122   ',
        SECTION='CERCLE',
        CARA=('R','EP',),
VALE=(0.969750E-01,0.200000E-01)
         ),
      _F(MAILLE='M123   ',
        SECTION='CERCLE',
        CARA=('R','EP',),
VALE=(0.969500E-01,0.200000E-01)
         ),
      _F(MAILLE='M124   ',
        SECTION='CERCLE',
        CARA=('R','EP',),
VALE=(0.969250E-01,0.200000E-01)
         ),
      _F(MAILLE='M125   ',
        SECTION='CERCLE',
        CARA=('R','EP',),
VALE=(0.969000E-01,0.200000E-01)
         ),
      _F(MAILLE='M126   ',
        SECTION='CERCLE',
        CARA=('R','EP',),
VALE=(0.968750E-01,0.200000E-01)
         ),
      _F(MAILLE='M127   ',
        SECTION='CERCLE',
        CARA=('R','EP',),
VALE=(0.968500E-01,0.200000E-01)
         ),
      _F(MAILLE='M128   ',
        SECTION='CERCLE',
        CARA=('R','EP',),
VALE=(0.968250E-01,0.200000E-01)
         ),
      _F(MAILLE='M129   ',
        SECTION='CERCLE',
        CARA=('R','EP',),
VALE=(0.968000E-01,0.200000E-01)
         ),
      _F(MAILLE='M130   ',
        SECTION='CERCLE',
        CARA=('R','EP',),
VALE=(0.967750E-01,0.200000E-01)
         ),
      _F(MAILLE='M131   ',
        SECTION='CERCLE',
        CARA=('R','EP',),
VALE=(0.967500E-01,0.200000E-01)
         ),
      _F(MAILLE='M132   ',
        SECTION='CERCLE',
        CARA=('R','EP',),
VALE=(0.967250E-01,0.200000E-01)
         ),
      _F(MAILLE='M133   ',
        SECTION='CERCLE',
        CARA=('R','EP',),
VALE=(0.967000E-01,0.200000E-01)
         ),
      _F(MAILLE='M134   ',
        SECTION='CERCLE',
        CARA=('R','EP',),
VALE=(0.966750E-01,0.200000E-01)
         ),
      _F(MAILLE='M135   ',
        SECTION='CERCLE',
        CARA=('R','EP',),
VALE=(0.966500E-01,0.200000E-01)
         ),
      _F(MAILLE='M136   ',
        SECTION='CERCLE',
        CARA=('R','EP',),
VALE=(0.966250E-01,0.200000E-01)
         ),
      _F(MAILLE='M137   ',
        SECTION='CERCLE',
        CARA=('R','EP',),
VALE=(0.966000E-01,0.200000E-01)
         ),
      _F(MAILLE='M138   ',
        SECTION='CERCLE',
        CARA=('R','EP',),
VALE=(0.965750E-01,0.200000E-01)
         ),
      _F(MAILLE='M139   ',
        SECTION='CERCLE',
        CARA=('R','EP',),
VALE=(0.965500E-01,0.200000E-01)
         ),
      _F(MAILLE='M140   ',
        SECTION='CERCLE',
        CARA=('R','EP',),
VALE=(0.965250E-01,0.200000E-01)
         ),
      _F(MAILLE='M141   ',
        SECTION='CERCLE',
        CARA=('R','EP',),
VALE=(0.965000E-01,0.200000E-01)
         ),
      _F(MAILLE='M142   ',
        SECTION='CERCLE',
        CARA=('R','EP',),
VALE=(0.964750E-01,0.200000E-01)
         ),
      _F(MAILLE='M143   ',
        SECTION='CERCLE',
        CARA=('R','EP',),
VALE=(0.964500E-01,0.200000E-01)
         ),
      _F(MAILLE='M144   ',
        SECTION='CERCLE',
        CARA=('R','EP',),
VALE=(0.964250E-01,0.200000E-01)
         ),
      _F(MAILLE='M145   ',
        SECTION='CERCLE',
        CARA=('R','EP',),
VALE=(0.964000E-01,0.200000E-01)
         ),
      _F(MAILLE='M146   ',
        SECTION='CERCLE',
        CARA=('R','EP',),
VALE=(0.963750E-01,0.200000E-01)
         ),
      _F(MAILLE='M147   ',
        SECTION='CERCLE',
        CARA=('R','EP',),
VALE=(0.963500E-01,0.200000E-01)
         ),
      _F(MAILLE='M148   ',
        SECTION='CERCLE',
        CARA=('R','EP',),
VALE=(0.963250E-01,0.200000E-01)
         ),
      _F(MAILLE='M149   ',
        SECTION='CERCLE',
        CARA=('R','EP',),
VALE=(0.963000E-01,0.200000E-01)
         ),
      _F(MAILLE='M150   ',
        SECTION='CERCLE',
        CARA=('R','EP',),
VALE=(0.962750E-01,0.200000E-01)
         ),
      _F(MAILLE='M151   ',
        SECTION='CERCLE',
        CARA=('R','EP',),
VALE=(0.962500E-01,0.200000E-01)
         ),
      _F(MAILLE='M152   ',
        SECTION='CERCLE',
        CARA=('R','EP',),
VALE=(0.962250E-01,0.200000E-01)
         ),
      _F(MAILLE='M153   ',
        SECTION='CERCLE',
        CARA=('R','EP',),
VALE=(0.962000E-01,0.200000E-01)
         ),
      _F(MAILLE='M154   ',
        SECTION='CERCLE',
        CARA=('R','EP',),
VALE=(0.961750E-01,0.200000E-01)
         ),
      _F(MAILLE='M155   ',
        SECTION='CERCLE',
        CARA=('R','EP',),
VALE=(0.961500E-01,0.200000E-01)
         ),
      _F(MAILLE='M156   ',
        SECTION='CERCLE',
        CARA=('R','EP',),
VALE=(0.961250E-01,0.200000E-01)
         ),
      _F(MAILLE='M157   ',
        SECTION='CERCLE',
        CARA=('R','EP',),
VALE=(0.961000E-01,0.200000E-01)
         ),
      _F(MAILLE='M158   ',
        SECTION='CERCLE',
        CARA=('R','EP',),
VALE=(0.960750E-01,0.200000E-01)
         ),
      _F(MAILLE='M159   ',
        SECTION='CERCLE',
        CARA=('R','EP',),
VALE=(0.960500E-01,0.200000E-01)
         ),
      _F(MAILLE='M160   ',
        SECTION='CERCLE',
        CARA=('R','EP',),
VALE=(0.960250E-01,0.200000E-01)
         ),
      _F(MAILLE='M161   ',
        SECTION='CERCLE',
        CARA=('R','EP',),
VALE=(0.960000E-01,0.200000E-01)
         ),
      _F(MAILLE='M162   ',
        SECTION='CERCLE',
        CARA=('R','EP',),
VALE=(0.959750E-01,0.200000E-01)
         ),
      _F(MAILLE='M163   ',
        SECTION='CERCLE',
        CARA=('R','EP',),
VALE=(0.959500E-01,0.200000E-01)
         ),
      _F(MAILLE='M164   ',
        SECTION='CERCLE',
        CARA=('R','EP',),
VALE=(0.959250E-01,0.200000E-01)
         ),
      _F(MAILLE='M165   ',
        SECTION='CERCLE',
        CARA=('R','EP',),
VALE=(0.959000E-01,0.200000E-01)
         ),
      _F(MAILLE='M166   ',
        SECTION='CERCLE',
        CARA=('R','EP',),
VALE=(0.958750E-01,0.200000E-01)
         ),
      _F(MAILLE='M167   ',
        SECTION='CERCLE',
        CARA=('R','EP',),
VALE=(0.958500E-01,0.200000E-01)
         ),
      _F(MAILLE='M168   ',
        SECTION='CERCLE',
        CARA=('R','EP',),
VALE=(0.958250E-01,0.200000E-01)
         ),
      _F(MAILLE='M169   ',
        SECTION='CERCLE',
        CARA=('R','EP',),
VALE=(0.958000E-01,0.200000E-01)
         ),
      _F(MAILLE='M170   ',
        SECTION='CERCLE',
        CARA=('R','EP',),
VALE=(0.957750E-01,0.200000E-01)
         ),
      _F(MAILLE='M171   ',
        SECTION='CERCLE',
        CARA=('R','EP',),
VALE=(0.957500E-01,0.200000E-01)
         ),
      _F(MAILLE='M172   ',
        SECTION='CERCLE',
        CARA=('R','EP',),
VALE=(0.957250E-01,0.200000E-01)
         ),
      _F(MAILLE='M173   ',
        SECTION='CERCLE',
        CARA=('R','EP',),
VALE=(0.957000E-01,0.200000E-01)
         ),
      _F(MAILLE='M174   ',
        SECTION='CERCLE',
        CARA=('R','EP',),
VALE=(0.956750E-01,0.200000E-01)
         ),
      _F(MAILLE='M175   ',
        SECTION='CERCLE',
        CARA=('R','EP',),
VALE=(0.956500E-01,0.200000E-01)
         ),
      _F(MAILLE='M176   ',
        SECTION='CERCLE',
        CARA=('R','EP',),
VALE=(0.956250E-01,0.200000E-01)
         ),
      _F(MAILLE='M177   ',
        SECTION='CERCLE',
        CARA=('R','EP',),
VALE=(0.956000E-01,0.200000E-01)
         ),
      _F(MAILLE='M178   ',
        SECTION='CERCLE',
        CARA=('R','EP',),
VALE=(0.955750E-01,0.200000E-01)
         ),
      _F(MAILLE='M179   ',
        SECTION='CERCLE',
        CARA=('R','EP',),
VALE=(0.955500E-01,0.200000E-01)
         ),
      _F(MAILLE='M180   ',
        SECTION='CERCLE',
        CARA=('R','EP',),
VALE=(0.955250E-01,0.200000E-01)
         ),
      _F(MAILLE='M181   ',
        SECTION='CERCLE',
        CARA=('R','EP',),
VALE=(0.955000E-01,0.200000E-01)
         ),
      _F(MAILLE='M182   ',
        SECTION='CERCLE',
        CARA=('R','EP',),
VALE=(0.954750E-01,0.200000E-01)
         ),
      _F(MAILLE='M183   ',
        SECTION='CERCLE',
        CARA=('R','EP',),
VALE=(0.954500E-01,0.200000E-01)
         ),
      _F(MAILLE='M184   ',
        SECTION='CERCLE',
        CARA=('R','EP',),
VALE=(0.954250E-01,0.200000E-01)
         ),
      _F(MAILLE='M185   ',
        SECTION='CERCLE',
        CARA=('R','EP',),
VALE=(0.954000E-01,0.200000E-01)
         ),
      _F(MAILLE='M186   ',
        SECTION='CERCLE',
        CARA=('R','EP',),
VALE=(0.953750E-01,0.200000E-01)
         ),
      _F(MAILLE='M187   ',
        SECTION='CERCLE',
        CARA=('R','EP',),
VALE=(0.953500E-01,0.200000E-01)
         ),
      _F(MAILLE='M188   ',
        SECTION='CERCLE',
        CARA=('R','EP',),
VALE=(0.953250E-01,0.200000E-01)
         ),
      _F(MAILLE='M189   ',
        SECTION='CERCLE',
        CARA=('R','EP',),
VALE=(0.953000E-01,0.200000E-01)
         ),
      _F(MAILLE='M190   ',
        SECTION='CERCLE',
        CARA=('R','EP',),
VALE=(0.952750E-01,0.200000E-01)
         ),
      _F(MAILLE='M191   ',
        SECTION='CERCLE',
        CARA=('R','EP',),
VALE=(0.952500E-01,0.200000E-01)
         ),
      _F(MAILLE='M192   ',
        SECTION='CERCLE',
        CARA=('R','EP',),
VALE=(0.952250E-01,0.200000E-01)
         ),
      _F(MAILLE='M193   ',
        SECTION='CERCLE',
        CARA=('R','EP',),
VALE=(0.952000E-01,0.200000E-01)
         ),
      _F(MAILLE='M194   ',
        SECTION='CERCLE',
        CARA=('R','EP',),
VALE=(0.951750E-01,0.200000E-01)
         ),
      _F(MAILLE='M195   ',
        SECTION='CERCLE',
        CARA=('R','EP',),
VALE=(0.951500E-01,0.200000E-01)
         ),
      _F(MAILLE='M196   ',
        SECTION='CERCLE',
        CARA=('R','EP',),
VALE=(0.951250E-01,0.200000E-01)
         ),
      _F(MAILLE='M197   ',
        SECTION='CERCLE',
        CARA=('R','EP',),
VALE=(0.951000E-01,0.200000E-01)
         ),
      _F(MAILLE='M198   ',
        SECTION='CERCLE',
        CARA=('R','EP',),
VALE=(0.950750E-01,0.200000E-01)
         ),
      _F(MAILLE='M199   ',
        SECTION='CERCLE',
        CARA=('R','EP',),
VALE=(0.950500E-01,0.200000E-01)
         ),
      _F(MAILLE='M200   ',
        SECTION='CERCLE',
        CARA=('R','EP',),
VALE=(0.950250E-01,0.200000E-01)
         ),
      _F(MAILLE='M201   ',
        SECTION='CERCLE',
        CARA=('R','EP',),
VALE=(0.950000E-01,0.200000E-01)
         ),
      _F(MAILLE='M202   ',
        SECTION='CERCLE',
        CARA=('R','EP',),
VALE=(0.949750E-01,0.200000E-01)
         ),
      _F(MAILLE='M203   ',
        SECTION='CERCLE',
        CARA=('R','EP',),
VALE=(0.949500E-01,0.200000E-01)
         ),
      _F(MAILLE='M204   ',
        SECTION='CERCLE',
        CARA=('R','EP',),
VALE=(0.949250E-01,0.200000E-01)
         ),
      _F(MAILLE='M205   ',
        SECTION='CERCLE',
        CARA=('R','EP',),
VALE=(0.949000E-01,0.200000E-01)
         ),
      _F(MAILLE='M206   ',
        SECTION='CERCLE',
        CARA=('R','EP',),
VALE=(0.948750E-01,0.200000E-01)
         ),
      _F(MAILLE='M207   ',
        SECTION='CERCLE',
        CARA=('R','EP',),
VALE=(0.948500E-01,0.200000E-01)
         ),
      _F(MAILLE='M208   ',
        SECTION='CERCLE',
        CARA=('R','EP',),
VALE=(0.948250E-01,0.200000E-01)
         ),
      _F(MAILLE='M209   ',
        SECTION='CERCLE',
        CARA=('R','EP',),
VALE=(0.948000E-01,0.200000E-01)
         ),
      _F(MAILLE='M210   ',
        SECTION='CERCLE',
        CARA=('R','EP',),
VALE=(0.947750E-01,0.200000E-01)
         ),
      _F(MAILLE='M211   ',
        SECTION='CERCLE',
        CARA=('R','EP',),
VALE=(0.947500E-01,0.200000E-01)
         ),
      _F(MAILLE='M212   ',
        SECTION='CERCLE',
        CARA=('R','EP',),
VALE=(0.947250E-01,0.200000E-01)
         ),
      _F(MAILLE='M213   ',
        SECTION='CERCLE',
        CARA=('R','EP',),
VALE=(0.947000E-01,0.200000E-01)
         ),
      _F(MAILLE='M214   ',
        SECTION='CERCLE',
        CARA=('R','EP',),
VALE=(0.946750E-01,0.200000E-01)
         ),
      _F(MAILLE='M215   ',
        SECTION='CERCLE',
        CARA=('R','EP',),
VALE=(0.946500E-01,0.200000E-01)
         ),
      _F(MAILLE='M216   ',
        SECTION='CERCLE',
        CARA=('R','EP',),
VALE=(0.946250E-01,0.200000E-01)
         ),
      _F(MAILLE='M217   ',
        SECTION='CERCLE',
        CARA=('R','EP',),
VALE=(0.946000E-01,0.200000E-01)
         ),
      _F(MAILLE='M218   ',
        SECTION='CERCLE',
        CARA=('R','EP',),
VALE=(0.945750E-01,0.200000E-01)
         ),
      _F(MAILLE='M219   ',
        SECTION='CERCLE',
        CARA=('R','EP',),
VALE=(0.945500E-01,0.200000E-01)
         ),
      _F(MAILLE='M220   ',
        SECTION='CERCLE',
        CARA=('R','EP',),
VALE=(0.945250E-01,0.200000E-01)
         ),
      _F(MAILLE='M221   ',
        SECTION='CERCLE',
        CARA=('R','EP',),
VALE=(0.945000E-01,0.200000E-01)
         ),
      _F(MAILLE='M222   ',
        SECTION='CERCLE',
        CARA=('R','EP',),
VALE=(0.944750E-01,0.200000E-01)
         ),
      _F(MAILLE='M223   ',
        SECTION='CERCLE',
        CARA=('R','EP',),
VALE=(0.944500E-01,0.200000E-01)
         ),
      _F(MAILLE='M224   ',
        SECTION='CERCLE',
        CARA=('R','EP',),
VALE=(0.944250E-01,0.200000E-01)
         ),
      _F(MAILLE='M225   ',
        SECTION='CERCLE',
        CARA=('R','EP',),
VALE=(0.944000E-01,0.200000E-01)
         ),
      _F(MAILLE='M226   ',
        SECTION='CERCLE',
        CARA=('R','EP',),
VALE=(0.943750E-01,0.200000E-01)
         ),
      _F(MAILLE='M227   ',
        SECTION='CERCLE',
        CARA=('R','EP',),
VALE=(0.943500E-01,0.200000E-01)
         ),
      _F(MAILLE='M228   ',
        SECTION='CERCLE',
        CARA=('R','EP',),
VALE=(0.943250E-01,0.200000E-01)
         ),
      _F(MAILLE='M229   ',
        SECTION='CERCLE',
        CARA=('R','EP',),
VALE=(0.943000E-01,0.200000E-01)
         ),
      _F(MAILLE='M230   ',
        SECTION='CERCLE',
        CARA=('R','EP',),
VALE=(0.942750E-01,0.200000E-01)
         ),
      _F(MAILLE='M231   ',
        SECTION='CERCLE',
        CARA=('R','EP',),
VALE=(0.942500E-01,0.200000E-01)
         ),
      _F(MAILLE='M232   ',
        SECTION='CERCLE',
        CARA=('R','EP',),
VALE=(0.942250E-01,0.200000E-01)
         ),
      _F(MAILLE='M233   ',
        SECTION='CERCLE',
        CARA=('R','EP',),
VALE=(0.942000E-01,0.200000E-01)
         ),
      _F(MAILLE='M234   ',
        SECTION='CERCLE',
        CARA=('R','EP',),
VALE=(0.941750E-01,0.200000E-01)
         ),
      _F(MAILLE='M235   ',
        SECTION='CERCLE',
        CARA=('R','EP',),
VALE=(0.941500E-01,0.200000E-01)
         ),
      _F(MAILLE='M236   ',
        SECTION='CERCLE',
        CARA=('R','EP',),
VALE=(0.941250E-01,0.200000E-01)
         ),
      _F(MAILLE='M237   ',
        SECTION='CERCLE',
        CARA=('R','EP',),
VALE=(0.941000E-01,0.200000E-01)
         ),
      _F(MAILLE='M238   ',
        SECTION='CERCLE',
        CARA=('R','EP',),
VALE=(0.940750E-01,0.200000E-01)
         ),
      _F(MAILLE='M239   ',
        SECTION='CERCLE',
        CARA=('R','EP',),
VALE=(0.940500E-01,0.200000E-01)
         ),
      _F(MAILLE='M240   ',
        SECTION='CERCLE',
        CARA=('R','EP',),
VALE=(0.940250E-01,0.200000E-01)
         ),
      _F(MAILLE='M241   ',
        SECTION='CERCLE',
        CARA=('R','EP',),
VALE=(0.940000E-01,0.200000E-01)
         ),
      _F(MAILLE='M242   ',
        SECTION='CERCLE',
        CARA=('R','EP',),
VALE=(0.939750E-01,0.200000E-01)
         ),
      _F(MAILLE='M243   ',
        SECTION='CERCLE',
        CARA=('R','EP',),
VALE=(0.939500E-01,0.200000E-01)
         ),
      _F(MAILLE='M244   ',
        SECTION='CERCLE',
        CARA=('R','EP',),
VALE=(0.939250E-01,0.200000E-01)
         ),
      _F(MAILLE='M245   ',
        SECTION='CERCLE',
        CARA=('R','EP',),
VALE=(0.939000E-01,0.200000E-01)
         ),
      _F(MAILLE='M246   ',
        SECTION='CERCLE',
        CARA=('R','EP',),
VALE=(0.938750E-01,0.200000E-01)
         ),
      _F(MAILLE='M247   ',
        SECTION='CERCLE',
        CARA=('R','EP',),
VALE=(0.938500E-01,0.200000E-01)
         ),
      _F(MAILLE='M248   ',
        SECTION='CERCLE',
        CARA=('R','EP',),
VALE=(0.938250E-01,0.200000E-01)
         ),
      _F(MAILLE='M249   ',
        SECTION='CERCLE',
        CARA=('R','EP',),
VALE=(0.938000E-01,0.200000E-01)
         ),
      _F(MAILLE='M250   ',
        SECTION='CERCLE',
        CARA=('R','EP',),
VALE=(0.937750E-01,0.200000E-01)
         ),
      _F(MAILLE='M251   ',
        SECTION='CERCLE',
        CARA=('R','EP',),
VALE=(0.937500E-01,0.200000E-01)
         ),
      _F(MAILLE='M252   ',
        SECTION='CERCLE',
        CARA=('R','EP',),
VALE=(0.937250E-01,0.200000E-01)
         ),
      _F(MAILLE='M253   ',
        SECTION='CERCLE',
        CARA=('R','EP',),
VALE=(0.937000E-01,0.200000E-01)
         ),
      _F(MAILLE='M254   ',
        SECTION='CERCLE',
        CARA=('R','EP',),
VALE=(0.936750E-01,0.200000E-01)
         ),
      _F(MAILLE='M255   ',
        SECTION='CERCLE',
        CARA=('R','EP',),
VALE=(0.936500E-01,0.200000E-01)
         ),
      _F(MAILLE='M256   ',
        SECTION='CERCLE',
        CARA=('R','EP',),
VALE=(0.936250E-01,0.200000E-01)
         ),
      _F(MAILLE='M257   ',
        SECTION='CERCLE',
        CARA=('R','EP',),
VALE=(0.936000E-01,0.200000E-01)
         ),
      _F(MAILLE='M258   ',
        SECTION='CERCLE',
        CARA=('R','EP',),
VALE=(0.935750E-01,0.200000E-01)
         ),
      _F(MAILLE='M259   ',
        SECTION='CERCLE',
        CARA=('R','EP',),
VALE=(0.935500E-01,0.200000E-01)
         ),
      _F(MAILLE='M260   ',
        SECTION='CERCLE',
        CARA=('R','EP',),
VALE=(0.935250E-01,0.200000E-01)
         ),
      _F(MAILLE='M261   ',
        SECTION='CERCLE',
        CARA=('R','EP',),
VALE=(0.935000E-01,0.200000E-01)
         ),
      _F(MAILLE='M262   ',
        SECTION='CERCLE',
        CARA=('R','EP',),
VALE=(0.934750E-01,0.200000E-01)
         ),
      _F(MAILLE='M263   ',
        SECTION='CERCLE',
        CARA=('R','EP',),
VALE=(0.934500E-01,0.200000E-01)
         ),
      _F(MAILLE='M264   ',
        SECTION='CERCLE',
        CARA=('R','EP',),
VALE=(0.934250E-01,0.200000E-01)
         ),
      _F(MAILLE='M265   ',
        SECTION='CERCLE',
        CARA=('R','EP',),
VALE=(0.934000E-01,0.200000E-01)
         ),
      _F(MAILLE='M266   ',
        SECTION='CERCLE',
        CARA=('R','EP',),
VALE=(0.933750E-01,0.200000E-01)
         ),
      _F(MAILLE='M267   ',
        SECTION='CERCLE',
        CARA=('R','EP',),
VALE=(0.933500E-01,0.200000E-01)
         ),
      _F(MAILLE='M268   ',
        SECTION='CERCLE',
        CARA=('R','EP',),
VALE=(0.933250E-01,0.200000E-01)
         ),
      _F(MAILLE='M269   ',
        SECTION='CERCLE',
        CARA=('R','EP',),
VALE=(0.933000E-01,0.200000E-01)
         ),
      _F(MAILLE='M270   ',
        SECTION='CERCLE',
        CARA=('R','EP',),
VALE=(0.932750E-01,0.200000E-01)
         ),
      _F(MAILLE='M271   ',
        SECTION='CERCLE',
        CARA=('R','EP',),
VALE=(0.932500E-01,0.200000E-01)
         ),
      _F(MAILLE='M272   ',
        SECTION='CERCLE',
        CARA=('R','EP',),
VALE=(0.932250E-01,0.200000E-01)
         ),
      _F(MAILLE='M273   ',
        SECTION='CERCLE',
        CARA=('R','EP',),
VALE=(0.932000E-01,0.200000E-01)
         ),
      _F(MAILLE='M274   ',
        SECTION='CERCLE',
        CARA=('R','EP',),
VALE=(0.931750E-01,0.200000E-01)
         ),
      _F(MAILLE='M275   ',
        SECTION='CERCLE',
        CARA=('R','EP',),
VALE=(0.931500E-01,0.200000E-01)
         ),
      _F(MAILLE='M276   ',
        SECTION='CERCLE',
        CARA=('R','EP',),
VALE=(0.931250E-01,0.200000E-01)
         ),
      _F(MAILLE='M277   ',
        SECTION='CERCLE',
        CARA=('R','EP',),
VALE=(0.931000E-01,0.200000E-01)
         ),
      _F(MAILLE='M278   ',
        SECTION='CERCLE',
        CARA=('R','EP',),
VALE=(0.930750E-01,0.200000E-01)
         ),
      _F(MAILLE='M279   ',
        SECTION='CERCLE',
        CARA=('R','EP',),
VALE=(0.930500E-01,0.200000E-01)
         ),
      _F(MAILLE='M280   ',
        SECTION='CERCLE',
        CARA=('R','EP',),
VALE=(0.930250E-01,0.200000E-01)
         ),
      _F(MAILLE='M281   ',
        SECTION='CERCLE',
        CARA=('R','EP',),
VALE=(0.930000E-01,0.200000E-01)
         ),
      _F(MAILLE='M282   ',
        SECTION='CERCLE',
        CARA=('R','EP',),
VALE=(0.929750E-01,0.200000E-01)
         ),
      _F(MAILLE='M283   ',
        SECTION='CERCLE',
        CARA=('R','EP',),
VALE=(0.929500E-01,0.200000E-01)
         ),
      _F(MAILLE='M284   ',
        SECTION='CERCLE',
        CARA=('R','EP',),
VALE=(0.929250E-01,0.200000E-01)
         ),
      _F(MAILLE='M285   ',
        SECTION='CERCLE',
        CARA=('R','EP',),
VALE=(0.929000E-01,0.200000E-01)
         ),
      _F(MAILLE='M286   ',
        SECTION='CERCLE',
        CARA=('R','EP',),
VALE=(0.928750E-01,0.200000E-01)
         ),
      _F(MAILLE='M287   ',
        SECTION='CERCLE',
        CARA=('R','EP',),
VALE=(0.928500E-01,0.200000E-01)
         ),
      _F(MAILLE='M288   ',
        SECTION='CERCLE',
        CARA=('R','EP',),
VALE=(0.928250E-01,0.200000E-01)
         ),
      _F(MAILLE='M289   ',
        SECTION='CERCLE',
        CARA=('R','EP',),
VALE=(0.928000E-01,0.200000E-01)
         ),
      _F(MAILLE='M290   ',
        SECTION='CERCLE',
        CARA=('R','EP',),
VALE=(0.927750E-01,0.200000E-01)
         ),
      _F(MAILLE='M291   ',
        SECTION='CERCLE',
        CARA=('R','EP',),
VALE=(0.927500E-01,0.200000E-01)
         ),
      _F(MAILLE='M292   ',
        SECTION='CERCLE',
        CARA=('R','EP',),
VALE=(0.927250E-01,0.200000E-01)
         ),
      _F(MAILLE='M293   ',
        SECTION='CERCLE',
        CARA=('R','EP',),
VALE=(0.927000E-01,0.200000E-01)
         ),
      _F(MAILLE='M294   ',
        SECTION='CERCLE',
        CARA=('R','EP',),
VALE=(0.926750E-01,0.200000E-01)
         ),
      _F(MAILLE='M295   ',
        SECTION='CERCLE',
        CARA=('R','EP',),
VALE=(0.926500E-01,0.200000E-01)
         ),
      _F(MAILLE='M296   ',
        SECTION='CERCLE',
        CARA=('R','EP',),
VALE=(0.926250E-01,0.200000E-01)
         ),
      _F(MAILLE='M297   ',
        SECTION='CERCLE',
        CARA=('R','EP',),
VALE=(0.926000E-01,0.200000E-01)
         ),
      _F(MAILLE='M298   ',
        SECTION='CERCLE',
        CARA=('R','EP',),
VALE=(0.925750E-01,0.200000E-01)
         ),
      _F(MAILLE='M299   ',
        SECTION='CERCLE',
        CARA=('R','EP',),
VALE=(0.925500E-01,0.200000E-01)
         ),
      _F(MAILLE='M300   ',
        SECTION='CERCLE',
        CARA=('R','EP',),
VALE=(0.925250E-01,0.200000E-01)
         ),
      _F(MAILLE='M301   ',
        SECTION='CERCLE',
        CARA=('R','EP',),
VALE=(0.925000E-01,0.200000E-01)
         ),
      _F(MAILLE='M302   ',
        SECTION='CERCLE',
        CARA=('R','EP',),
VALE=(0.924750E-01,0.200000E-01)
         ),
      _F(MAILLE='M303   ',
        SECTION='CERCLE',
        CARA=('R','EP',),
VALE=(0.924500E-01,0.200000E-01)
         ),
      _F(MAILLE='M304   ',
        SECTION='CERCLE',
        CARA=('R','EP',),
VALE=(0.924250E-01,0.200000E-01)
         ),
      _F(MAILLE='M305   ',
        SECTION='CERCLE',
        CARA=('R','EP',),
VALE=(0.924000E-01,0.200000E-01)
         ),
      _F(MAILLE='M306   ',
        SECTION='CERCLE',
        CARA=('R','EP',),
VALE=(0.923750E-01,0.200000E-01)
         ),
      _F(MAILLE='M307   ',
        SECTION='CERCLE',
        CARA=('R','EP',),
VALE=(0.923500E-01,0.200000E-01)
         ),
      _F(MAILLE='M308   ',
        SECTION='CERCLE',
        CARA=('R','EP',),
VALE=(0.923250E-01,0.200000E-01)
         ),
      _F(MAILLE='M309   ',
        SECTION='CERCLE',
        CARA=('R','EP',),
VALE=(0.923000E-01,0.200000E-01)
         ),
      _F(MAILLE='M310   ',
        SECTION='CERCLE',
        CARA=('R','EP',),
VALE=(0.922750E-01,0.200000E-01)
         ),
      _F(MAILLE='M311   ',
        SECTION='CERCLE',
        CARA=('R','EP',),
VALE=(0.922500E-01,0.200000E-01)
         ),
      _F(MAILLE='M312   ',
        SECTION='CERCLE',
        CARA=('R','EP',),
VALE=(0.922250E-01,0.200000E-01)
         ),
      _F(MAILLE='M313   ',
        SECTION='CERCLE',
        CARA=('R','EP',),
VALE=(0.922000E-01,0.200000E-01)
         ),
      _F(MAILLE='M314   ',
        SECTION='CERCLE',
        CARA=('R','EP',),
VALE=(0.921750E-01,0.200000E-01)
         ),
      _F(MAILLE='M315   ',
        SECTION='CERCLE',
        CARA=('R','EP',),
VALE=(0.921500E-01,0.200000E-01)
         ),
      _F(MAILLE='M316   ',
        SECTION='CERCLE',
        CARA=('R','EP',),
VALE=(0.921250E-01,0.200000E-01)
         ),
      _F(MAILLE='M317   ',
        SECTION='CERCLE',
        CARA=('R','EP',),
VALE=(0.921000E-01,0.200000E-01)
         ),
      _F(MAILLE='M318   ',
        SECTION='CERCLE',
        CARA=('R','EP',),
VALE=(0.920750E-01,0.200000E-01)
         ),
      _F(MAILLE='M319   ',
        SECTION='CERCLE',
        CARA=('R','EP',),
VALE=(0.920500E-01,0.200000E-01)
         ),
      _F(MAILLE='M320   ',
        SECTION='CERCLE',
        CARA=('R','EP',),
VALE=(0.920250E-01,0.200000E-01)
         ),
      _F(MAILLE='M321   ',
        SECTION='CERCLE',
        CARA=('R','EP',),
VALE=(0.920000E-01,0.200000E-01)
         ),
      _F(MAILLE='M322   ',
        SECTION='CERCLE',
        CARA=('R','EP',),
VALE=(0.919750E-01,0.200000E-01)
         ),
      _F(MAILLE='M323   ',
        SECTION='CERCLE',
        CARA=('R','EP',),
VALE=(0.919500E-01,0.200000E-01)
         ),
      _F(MAILLE='M324   ',
        SECTION='CERCLE',
        CARA=('R','EP',),
VALE=(0.919250E-01,0.200000E-01)
         ),
      _F(MAILLE='M325   ',
        SECTION='CERCLE',
        CARA=('R','EP',),
VALE=(0.919000E-01,0.200000E-01)
         ),
      _F(MAILLE='M326   ',
        SECTION='CERCLE',
        CARA=('R','EP',),
VALE=(0.918750E-01,0.200000E-01)
         ),
      _F(MAILLE='M327   ',
        SECTION='CERCLE',
        CARA=('R','EP',),
VALE=(0.918500E-01,0.200000E-01)
         ),
      _F(MAILLE='M328   ',
        SECTION='CERCLE',
        CARA=('R','EP',),
VALE=(0.918250E-01,0.200000E-01)
         ),
      _F(MAILLE='M329   ',
        SECTION='CERCLE',
        CARA=('R','EP',),
VALE=(0.918000E-01,0.200000E-01)
         ),
      _F(MAILLE='M330   ',
        SECTION='CERCLE',
        CARA=('R','EP',),
VALE=(0.917750E-01,0.200000E-01)
         ),
      _F(MAILLE='M331   ',
        SECTION='CERCLE',
        CARA=('R','EP',),
VALE=(0.917500E-01,0.200000E-01)
         ),
      _F(MAILLE='M332   ',
        SECTION='CERCLE',
        CARA=('R','EP',),
VALE=(0.917250E-01,0.200000E-01)
         ),
      _F(MAILLE='M333   ',
        SECTION='CERCLE',
        CARA=('R','EP',),
VALE=(0.917000E-01,0.200000E-01)
         ),
      _F(MAILLE='M334   ',
        SECTION='CERCLE',
        CARA=('R','EP',),
VALE=(0.916750E-01,0.200000E-01)
         ),
      _F(MAILLE='M335   ',
        SECTION='CERCLE',
        CARA=('R','EP',),
VALE=(0.916500E-01,0.200000E-01)
         ),
      _F(MAILLE='M336   ',
        SECTION='CERCLE',
        CARA=('R','EP',),
VALE=(0.916250E-01,0.200000E-01)
         ),
      _F(MAILLE='M337   ',
        SECTION='CERCLE',
        CARA=('R','EP',),
VALE=(0.916000E-01,0.200000E-01)
         ),
      _F(MAILLE='M338   ',
        SECTION='CERCLE',
        CARA=('R','EP',),
VALE=(0.915750E-01,0.200000E-01)
         ),
      _F(MAILLE='M339   ',
        SECTION='CERCLE',
        CARA=('R','EP',),
VALE=(0.915500E-01,0.200000E-01)
         ),
      _F(MAILLE='M340   ',
        SECTION='CERCLE',
        CARA=('R','EP',),
VALE=(0.915250E-01,0.200000E-01)
         ),
      _F(MAILLE='M341   ',
        SECTION='CERCLE',
        CARA=('R','EP',),
VALE=(0.915000E-01,0.200000E-01)
         ),
      _F(MAILLE='M342   ',
        SECTION='CERCLE',
        CARA=('R','EP',),
VALE=(0.914750E-01,0.200000E-01)
         ),
      _F(MAILLE='M343   ',
        SECTION='CERCLE',
        CARA=('R','EP',),
VALE=(0.914500E-01,0.200000E-01)
         ),
      _F(MAILLE='M344   ',
        SECTION='CERCLE',
        CARA=('R','EP',),
VALE=(0.914250E-01,0.200000E-01)
         ),
      _F(MAILLE='M345   ',
        SECTION='CERCLE',
        CARA=('R','EP',),
VALE=(0.914000E-01,0.200000E-01)
         ),
      _F(MAILLE='M346   ',
        SECTION='CERCLE',
        CARA=('R','EP',),
VALE=(0.913750E-01,0.200000E-01)
         ),
      _F(MAILLE='M347   ',
        SECTION='CERCLE',
        CARA=('R','EP',),
VALE=(0.913500E-01,0.200000E-01)
         ),
      _F(MAILLE='M348   ',
        SECTION='CERCLE',
        CARA=('R','EP',),
VALE=(0.913250E-01,0.200000E-01)
         ),
      _F(MAILLE='M349   ',
        SECTION='CERCLE',
        CARA=('R','EP',),
VALE=(0.913000E-01,0.200000E-01)
         ),
      _F(MAILLE='M350   ',
        SECTION='CERCLE',
        CARA=('R','EP',),
VALE=(0.912750E-01,0.200000E-01)
         ),
      _F(MAILLE='M351   ',
        SECTION='CERCLE',
        CARA=('R','EP',),
VALE=(0.912500E-01,0.200000E-01)
         ),
      _F(MAILLE='M352   ',
        SECTION='CERCLE',
        CARA=('R','EP',),
VALE=(0.912250E-01,0.200000E-01)
         ),
      _F(MAILLE='M353   ',
        SECTION='CERCLE',
        CARA=('R','EP',),
VALE=(0.912000E-01,0.200000E-01)
         ),
      _F(MAILLE='M354   ',
        SECTION='CERCLE',
        CARA=('R','EP',),
VALE=(0.911750E-01,0.200000E-01)
         ),
      _F(MAILLE='M355   ',
        SECTION='CERCLE',
        CARA=('R','EP',),
VALE=(0.911500E-01,0.200000E-01)
         ),
      _F(MAILLE='M356   ',
        SECTION='CERCLE',
        CARA=('R','EP',),
VALE=(0.911250E-01,0.200000E-01)
         ),
      _F(MAILLE='M357   ',
        SECTION='CERCLE',
        CARA=('R','EP',),
VALE=(0.911000E-01,0.200000E-01)
         ),
      _F(MAILLE='M358   ',
        SECTION='CERCLE',
        CARA=('R','EP',),
VALE=(0.910750E-01,0.200000E-01)
         ),
      _F(MAILLE='M359   ',
        SECTION='CERCLE',
        CARA=('R','EP',),
VALE=(0.910500E-01,0.200000E-01)
         ),
      _F(MAILLE='M360   ',
        SECTION='CERCLE',
        CARA=('R','EP',),
VALE=(0.910250E-01,0.200000E-01)
         ),
      _F(MAILLE='M361   ',
        SECTION='CERCLE',
        CARA=('R','EP',),
VALE=(0.910000E-01,0.200000E-01)
         ),
      _F(MAILLE='M362   ',
        SECTION='CERCLE',
        CARA=('R','EP',),
VALE=(0.909750E-01,0.200000E-01)
         ),
      _F(MAILLE='M363   ',
        SECTION='CERCLE',
        CARA=('R','EP',),
VALE=(0.909500E-01,0.200000E-01)
         ),
      _F(MAILLE='M364   ',
        SECTION='CERCLE',
        CARA=('R','EP',),
VALE=(0.909250E-01,0.200000E-01)
         ),
      _F(MAILLE='M365   ',
        SECTION='CERCLE',
        CARA=('R','EP',),
VALE=(0.909000E-01,0.200000E-01)
         ),
      _F(MAILLE='M366   ',
        SECTION='CERCLE',
        CARA=('R','EP',),
VALE=(0.908750E-01,0.200000E-01)
         ),
      _F(MAILLE='M367   ',
        SECTION='CERCLE',
        CARA=('R','EP',),
VALE=(0.908500E-01,0.200000E-01)
         ),
      _F(MAILLE='M368   ',
        SECTION='CERCLE',
        CARA=('R','EP',),
VALE=(0.908250E-01,0.200000E-01)
         ),
      _F(MAILLE='M369   ',
        SECTION='CERCLE',
        CARA=('R','EP',),
VALE=(0.908000E-01,0.200000E-01)
         ),
      _F(MAILLE='M370   ',
        SECTION='CERCLE',
        CARA=('R','EP',),
VALE=(0.907750E-01,0.200000E-01)
         ),
      _F(MAILLE='M371   ',
        SECTION='CERCLE',
        CARA=('R','EP',),
VALE=(0.907500E-01,0.200000E-01)
         ),
      _F(MAILLE='M372   ',
        SECTION='CERCLE',
        CARA=('R','EP',),
VALE=(0.907250E-01,0.200000E-01)
         ),
      _F(MAILLE='M373   ',
        SECTION='CERCLE',
        CARA=('R','EP',),
VALE=(0.907000E-01,0.200000E-01)
         ),
      _F(MAILLE='M374   ',
        SECTION='CERCLE',
        CARA=('R','EP',),
VALE=(0.906750E-01,0.200000E-01)
         ),
      _F(MAILLE='M375   ',
        SECTION='CERCLE',
        CARA=('R','EP',),
VALE=(0.906500E-01,0.200000E-01)
         ),
      _F(MAILLE='M376   ',
        SECTION='CERCLE',
        CARA=('R','EP',),
VALE=(0.906250E-01,0.200000E-01)
         ),
      _F(MAILLE='M377   ',
        SECTION='CERCLE',
        CARA=('R','EP',),
VALE=(0.906000E-01,0.200000E-01)
         ),
      _F(MAILLE='M378   ',
        SECTION='CERCLE',
        CARA=('R','EP',),
VALE=(0.905750E-01,0.200000E-01)
         ),
      _F(MAILLE='M379   ',
        SECTION='CERCLE',
        CARA=('R','EP',),
VALE=(0.905500E-01,0.200000E-01)
         ),
      _F(MAILLE='M380   ',
        SECTION='CERCLE',
        CARA=('R','EP',),
VALE=(0.905250E-01,0.200000E-01)
         ),
      _F(MAILLE='M381   ',
        SECTION='CERCLE',
        CARA=('R','EP',),
VALE=(0.905000E-01,0.200000E-01)
         ),
      _F(MAILLE='M382   ',
        SECTION='CERCLE',
        CARA=('R','EP',),
VALE=(0.904750E-01,0.200000E-01)
         ),
      _F(MAILLE='M383   ',
        SECTION='CERCLE',
        CARA=('R','EP',),
VALE=(0.904500E-01,0.200000E-01)
         ),
      _F(MAILLE='M384   ',
        SECTION='CERCLE',
        CARA=('R','EP',),
VALE=(0.904250E-01,0.200000E-01)
         ),
      _F(MAILLE='M385   ',
        SECTION='CERCLE',
        CARA=('R','EP',),
VALE=(0.904000E-01,0.200000E-01)
         ),
      _F(MAILLE='M386   ',
        SECTION='CERCLE',
        CARA=('R','EP',),
VALE=(0.903750E-01,0.200000E-01)
         ),
      _F(MAILLE='M387   ',
        SECTION='CERCLE',
        CARA=('R','EP',),
VALE=(0.903500E-01,0.200000E-01)
         ),
      _F(MAILLE='M388   ',
        SECTION='CERCLE',
        CARA=('R','EP',),
VALE=(0.903250E-01,0.200000E-01)
         ),
      _F(MAILLE='M389   ',
        SECTION='CERCLE',
        CARA=('R','EP',),
VALE=(0.903000E-01,0.200000E-01)
         ),
      _F(MAILLE='M390   ',
        SECTION='CERCLE',
        CARA=('R','EP',),
VALE=(0.902750E-01,0.200000E-01)
         ),
      _F(MAILLE='M391   ',
        SECTION='CERCLE',
        CARA=('R','EP',),
VALE=(0.902500E-01,0.200000E-01)
         ),
      _F(MAILLE='M392   ',
        SECTION='CERCLE',
        CARA=('R','EP',),
VALE=(0.902250E-01,0.200000E-01)
         ),
      _F(MAILLE='M393   ',
        SECTION='CERCLE',
        CARA=('R','EP',),
VALE=(0.902000E-01,0.200000E-01)
         ),
      _F(MAILLE='M394   ',
        SECTION='CERCLE',
        CARA=('R','EP',),
VALE=(0.901750E-01,0.200000E-01)
         ),
      _F(MAILLE='M395   ',
        SECTION='CERCLE',
        CARA=('R','EP',),
VALE=(0.901500E-01,0.200000E-01)
         ),
      _F(MAILLE='M396   ',
        SECTION='CERCLE',
        CARA=('R','EP',),
VALE=(0.901250E-01,0.200000E-01)
         ),
      _F(MAILLE='M397   ',
        SECTION='CERCLE',
        CARA=('R','EP',),
VALE=(0.901000E-01,0.200000E-01)
         ),
      _F(MAILLE='M398   ',
        SECTION='CERCLE',
        CARA=('R','EP',),
VALE=(0.900750E-01,0.200000E-01)
         ),
      _F(MAILLE='M399   ',
        SECTION='CERCLE',
        CARA=('R','EP',),
VALE=(0.900500E-01,0.200000E-01)
         ),
      _F(MAILLE='M400   ',
        SECTION='CERCLE',
        CARA=('R','EP',),
VALE=(0.900250E-01,0.200000E-01)
         ),
      _F(MAILLE='M401   ',
        SECTION='CERCLE',
        CARA=('R','EP',),
VALE=(0.900000E-01,0.200000E-01)
         ),
      _F(MAILLE='M402   ',
        SECTION='CERCLE',
        CARA=('R','EP',),
VALE=(0.899750E-01,0.200000E-01)
         ),
      _F(MAILLE='M403   ',
        SECTION='CERCLE',
        CARA=('R','EP',),
VALE=(0.899500E-01,0.200000E-01)
         ),
      _F(MAILLE='M404   ',
        SECTION='CERCLE',
        CARA=('R','EP',),
VALE=(0.899250E-01,0.200000E-01)
         ),
      _F(MAILLE='M405   ',
        SECTION='CERCLE',
        CARA=('R','EP',),
VALE=(0.899000E-01,0.200000E-01)
         ),
      _F(MAILLE='M406   ',
        SECTION='CERCLE',
        CARA=('R','EP',),
VALE=(0.898750E-01,0.200000E-01)
         ),
      _F(MAILLE='M407   ',
        SECTION='CERCLE',
        CARA=('R','EP',),
VALE=(0.898500E-01,0.200000E-01)
         ),
      _F(MAILLE='M408   ',
        SECTION='CERCLE',
        CARA=('R','EP',),
VALE=(0.898250E-01,0.200000E-01)
         ),
      _F(MAILLE='M409   ',
        SECTION='CERCLE',
        CARA=('R','EP',),
VALE=(0.898000E-01,0.200000E-01)
         ),
      _F(MAILLE='M410   ',
        SECTION='CERCLE',
        CARA=('R','EP',),
VALE=(0.897750E-01,0.200000E-01)
         ),
      _F(MAILLE='M411   ',
        SECTION='CERCLE',
        CARA=('R','EP',),
VALE=(0.897500E-01,0.200000E-01)
         ),
      _F(MAILLE='M412   ',
        SECTION='CERCLE',
        CARA=('R','EP',),
VALE=(0.897250E-01,0.200000E-01)
         ),
      _F(MAILLE='M413   ',
        SECTION='CERCLE',
        CARA=('R','EP',),
VALE=(0.897000E-01,0.200000E-01)
         ),
      _F(MAILLE='M414   ',
        SECTION='CERCLE',
        CARA=('R','EP',),
VALE=(0.896750E-01,0.200000E-01)
         ),
      _F(MAILLE='M415   ',
        SECTION='CERCLE',
        CARA=('R','EP',),
VALE=(0.896500E-01,0.200000E-01)
         ),
      _F(MAILLE='M416   ',
        SECTION='CERCLE',
        CARA=('R','EP',),
VALE=(0.896250E-01,0.200000E-01)
         ),
      _F(MAILLE='M417   ',
        SECTION='CERCLE',
        CARA=('R','EP',),
VALE=(0.896000E-01,0.200000E-01)
         ),
      _F(MAILLE='M418   ',
        SECTION='CERCLE',
        CARA=('R','EP',),
VALE=(0.895750E-01,0.200000E-01)
         ),
      _F(MAILLE='M419   ',
        SECTION='CERCLE',
        CARA=('R','EP',),
VALE=(0.895500E-01,0.200000E-01)
         ),
      _F(MAILLE='M420   ',
        SECTION='CERCLE',
        CARA=('R','EP',),
VALE=(0.895250E-01,0.200000E-01)
         ),
      _F(MAILLE='M421   ',
        SECTION='CERCLE',
        CARA=('R','EP',),
VALE=(0.895000E-01,0.200000E-01)
         ),
      _F(MAILLE='M422   ',
        SECTION='CERCLE',
        CARA=('R','EP',),
VALE=(0.894750E-01,0.200000E-01)
         ),
      _F(MAILLE='M423   ',
        SECTION='CERCLE',
        CARA=('R','EP',),
VALE=(0.894500E-01,0.200000E-01)
         ),
      _F(MAILLE='M424   ',
        SECTION='CERCLE',
        CARA=('R','EP',),
VALE=(0.894250E-01,0.200000E-01)
         ),
      _F(MAILLE='M425   ',
        SECTION='CERCLE',
        CARA=('R','EP',),
VALE=(0.894000E-01,0.200000E-01)
         ),
      _F(MAILLE='M426   ',
        SECTION='CERCLE',
        CARA=('R','EP',),
VALE=(0.893750E-01,0.200000E-01)
         ),
      _F(MAILLE='M427   ',
        SECTION='CERCLE',
        CARA=('R','EP',),
VALE=(0.893500E-01,0.200000E-01)
         ),
      _F(MAILLE='M428   ',
        SECTION='CERCLE',
        CARA=('R','EP',),
VALE=(0.893250E-01,0.200000E-01)
         ),
      _F(MAILLE='M429   ',
        SECTION='CERCLE',
        CARA=('R','EP',),
VALE=(0.893000E-01,0.200000E-01)
         ),
      _F(MAILLE='M430   ',
        SECTION='CERCLE',
        CARA=('R','EP',),
VALE=(0.892750E-01,0.200000E-01)
         ),
      _F(MAILLE='M431   ',
        SECTION='CERCLE',
        CARA=('R','EP',),
VALE=(0.892500E-01,0.200000E-01)
         ),
      _F(MAILLE='M432   ',
        SECTION='CERCLE',
        CARA=('R','EP',),
VALE=(0.892250E-01,0.200000E-01)
         ),
      _F(MAILLE='M433   ',
        SECTION='CERCLE',
        CARA=('R','EP',),
VALE=(0.892000E-01,0.200000E-01)
         ),
      _F(MAILLE='M434   ',
        SECTION='CERCLE',
        CARA=('R','EP',),
VALE=(0.891750E-01,0.200000E-01)
         ),
      _F(MAILLE='M435   ',
        SECTION='CERCLE',
        CARA=('R','EP',),
VALE=(0.891500E-01,0.200000E-01)
         ),
      _F(MAILLE='M436   ',
        SECTION='CERCLE',
        CARA=('R','EP',),
VALE=(0.891250E-01,0.200000E-01)
         ),
      _F(MAILLE='M437   ',
        SECTION='CERCLE',
        CARA=('R','EP',),
VALE=(0.891000E-01,0.200000E-01)
         ),
      _F(MAILLE='M438   ',
        SECTION='CERCLE',
        CARA=('R','EP',),
VALE=(0.890750E-01,0.200000E-01)
         ),
      _F(MAILLE='M439   ',
        SECTION='CERCLE',
        CARA=('R','EP',),
VALE=(0.890500E-01,0.200000E-01)
         ),
      _F(MAILLE='M440   ',
        SECTION='CERCLE',
        CARA=('R','EP',),
VALE=(0.890250E-01,0.200000E-01)
         ),
      _F(MAILLE='M441   ',
        SECTION='CERCLE',
        CARA=('R','EP',),
VALE=(0.890000E-01,0.200000E-01)
         ),
      _F(MAILLE='M442   ',
        SECTION='CERCLE',
        CARA=('R','EP',),
VALE=(0.889750E-01,0.200000E-01)
         ),
      _F(MAILLE='M443   ',
        SECTION='CERCLE',
        CARA=('R','EP',),
VALE=(0.889500E-01,0.200000E-01)
         ),
      _F(MAILLE='M444   ',
        SECTION='CERCLE',
        CARA=('R','EP',),
VALE=(0.889250E-01,0.200000E-01)
         ),
      _F(MAILLE='M445   ',
        SECTION='CERCLE',
        CARA=('R','EP',),
VALE=(0.889000E-01,0.200000E-01)
         ),
      _F(MAILLE='M446   ',
        SECTION='CERCLE',
        CARA=('R','EP',),
VALE=(0.888750E-01,0.200000E-01)
         ),
      _F(MAILLE='M447   ',
        SECTION='CERCLE',
        CARA=('R','EP',),
VALE=(0.888500E-01,0.200000E-01)
         ),
      _F(MAILLE='M448   ',
        SECTION='CERCLE',
        CARA=('R','EP',),
VALE=(0.888250E-01,0.200000E-01)
         ),
      _F(MAILLE='M449   ',
        SECTION='CERCLE',
        CARA=('R','EP',),
VALE=(0.888000E-01,0.200000E-01)
         ),
      _F(MAILLE='M450   ',
        SECTION='CERCLE',
        CARA=('R','EP',),
VALE=(0.887750E-01,0.200000E-01)
         ),
      _F(MAILLE='M451   ',
        SECTION='CERCLE',
        CARA=('R','EP',),
VALE=(0.887500E-01,0.200000E-01)
         ),
      _F(MAILLE='M452   ',
        SECTION='CERCLE',
        CARA=('R','EP',),
VALE=(0.887250E-01,0.200000E-01)
         ),
      _F(MAILLE='M453   ',
        SECTION='CERCLE',
        CARA=('R','EP',),
VALE=(0.887000E-01,0.200000E-01)
         ),
      _F(MAILLE='M454   ',
        SECTION='CERCLE',
        CARA=('R','EP',),
VALE=(0.886750E-01,0.200000E-01)
         ),
      _F(MAILLE='M455   ',
        SECTION='CERCLE',
        CARA=('R','EP',),
VALE=(0.886500E-01,0.200000E-01)
         ),
      _F(MAILLE='M456   ',
        SECTION='CERCLE',
        CARA=('R','EP',),
VALE=(0.886250E-01,0.200000E-01)
         ),
      _F(MAILLE='M457   ',
        SECTION='CERCLE',
        CARA=('R','EP',),
VALE=(0.886000E-01,0.200000E-01)
         ),
      _F(MAILLE='M458   ',
        SECTION='CERCLE',
        CARA=('R','EP',),
VALE=(0.885750E-01,0.200000E-01)
         ),
      _F(MAILLE='M459   ',
        SECTION='CERCLE',
        CARA=('R','EP',),
VALE=(0.885500E-01,0.200000E-01)
         ),
      _F(MAILLE='M460   ',
        SECTION='CERCLE',
        CARA=('R','EP',),
VALE=(0.885250E-01,0.200000E-01)
         ),
      _F(MAILLE='M461   ',
        SECTION='CERCLE',
        CARA=('R','EP',),
VALE=(0.885000E-01,0.200000E-01)
         ),
      _F(MAILLE='M462   ',
        SECTION='CERCLE',
        CARA=('R','EP',),
VALE=(0.884750E-01,0.200000E-01)
         ),
      _F(MAILLE='M463   ',
        SECTION='CERCLE',
        CARA=('R','EP',),
VALE=(0.884500E-01,0.200000E-01)
         ),
      _F(MAILLE='M464   ',
        SECTION='CERCLE',
        CARA=('R','EP',),
VALE=(0.884250E-01,0.200000E-01)
         ),
      _F(MAILLE='M465   ',
        SECTION='CERCLE',
        CARA=('R','EP',),
VALE=(0.884000E-01,0.200000E-01)
         ),
      _F(MAILLE='M466   ',
        SECTION='CERCLE',
        CARA=('R','EP',),
VALE=(0.883750E-01,0.200000E-01)
         ),
      _F(MAILLE='M467   ',
        SECTION='CERCLE',
        CARA=('R','EP',),
VALE=(0.883500E-01,0.200000E-01)
         ),
      _F(MAILLE='M468   ',
        SECTION='CERCLE',
        CARA=('R','EP',),
VALE=(0.883250E-01,0.200000E-01)
         ),
      _F(MAILLE='M469   ',
        SECTION='CERCLE',
        CARA=('R','EP',),
VALE=(0.883000E-01,0.200000E-01)
         ),
      _F(MAILLE='M470   ',
        SECTION='CERCLE',
        CARA=('R','EP',),
VALE=(0.882750E-01,0.200000E-01)
         ),
      _F(MAILLE='M471   ',
        SECTION='CERCLE',
        CARA=('R','EP',),
VALE=(0.882500E-01,0.200000E-01)
         ),
      _F(MAILLE='M472   ',
        SECTION='CERCLE',
        CARA=('R','EP',),
VALE=(0.882250E-01,0.200000E-01)
         ),
      _F(MAILLE='M473   ',
        SECTION='CERCLE',
        CARA=('R','EP',),
VALE=(0.882000E-01,0.200000E-01)
         ),
      _F(MAILLE='M474   ',
        SECTION='CERCLE',
        CARA=('R','EP',),
VALE=(0.881750E-01,0.200000E-01)
         ),
      _F(MAILLE='M475   ',
        SECTION='CERCLE',
        CARA=('R','EP',),
VALE=(0.881500E-01,0.200000E-01)
         ),
      _F(MAILLE='M476   ',
        SECTION='CERCLE',
        CARA=('R','EP',),
VALE=(0.881250E-01,0.200000E-01)
         ),
      _F(MAILLE='M477   ',
        SECTION='CERCLE',
        CARA=('R','EP',),
VALE=(0.881000E-01,0.200000E-01)
         ),
      _F(MAILLE='M478   ',
        SECTION='CERCLE',
        CARA=('R','EP',),
VALE=(0.880750E-01,0.200000E-01)
         ),
      _F(MAILLE='M479   ',
        SECTION='CERCLE',
        CARA=('R','EP',),
VALE=(0.880500E-01,0.200000E-01)
         ),
      _F(MAILLE='M480   ',
        SECTION='CERCLE',
        CARA=('R','EP',),
VALE=(0.880250E-01,0.200000E-01)
         ),
      _F(MAILLE='M481   ',
        SECTION='CERCLE',
        CARA=('R','EP',),
VALE=(0.880000E-01,0.200000E-01)
         ),
      _F(MAILLE='M482   ',
        SECTION='CERCLE',
        CARA=('R','EP',),
VALE=(0.879750E-01,0.200000E-01)
         ),
      _F(MAILLE='M483   ',
        SECTION='CERCLE',
        CARA=('R','EP',),
VALE=(0.879500E-01,0.200000E-01)
         ),
      _F(MAILLE='M484   ',
        SECTION='CERCLE',
        CARA=('R','EP',),
VALE=(0.879250E-01,0.200000E-01)
         ),
      _F(MAILLE='M485   ',
        SECTION='CERCLE',
        CARA=('R','EP',),
VALE=(0.879000E-01,0.200000E-01)
         ),
      _F(MAILLE='M486   ',
        SECTION='CERCLE',
        CARA=('R','EP',),
VALE=(0.878750E-01,0.200000E-01)
         ),
      _F(MAILLE='M487   ',
        SECTION='CERCLE',
        CARA=('R','EP',),
VALE=(0.878500E-01,0.200000E-01)
         ),
      _F(MAILLE='M488   ',
        SECTION='CERCLE',
        CARA=('R','EP',),
VALE=(0.878250E-01,0.200000E-01)
         ),
      _F(MAILLE='M489   ',
        SECTION='CERCLE',
        CARA=('R','EP',),
VALE=(0.878000E-01,0.200000E-01)
         ),
      _F(MAILLE='M490   ',
        SECTION='CERCLE',
        CARA=('R','EP',),
VALE=(0.877750E-01,0.200000E-01)
         ),
      _F(MAILLE='M491   ',
        SECTION='CERCLE',
        CARA=('R','EP',),
VALE=(0.877500E-01,0.200000E-01)
         ),
      _F(MAILLE='M492   ',
        SECTION='CERCLE',
        CARA=('R','EP',),
VALE=(0.877250E-01,0.200000E-01)
         ),
      _F(MAILLE='M493   ',
        SECTION='CERCLE',
        CARA=('R','EP',),
VALE=(0.877000E-01,0.200000E-01)
         ),
      _F(MAILLE='M494   ',
        SECTION='CERCLE',
        CARA=('R','EP',),
VALE=(0.876750E-01,0.200000E-01)
         ),
      _F(MAILLE='M495   ',
        SECTION='CERCLE',
        CARA=('R','EP',),
VALE=(0.876500E-01,0.200000E-01)
         ),
      _F(MAILLE='M496   ',
        SECTION='CERCLE',
        CARA=('R','EP',),
VALE=(0.876250E-01,0.200000E-01)
         ),
      _F(MAILLE='M497   ',
        SECTION='CERCLE',
        CARA=('R','EP',),
VALE=(0.876000E-01,0.200000E-01)
         ),
      _F(MAILLE='M498   ',
        SECTION='CERCLE',
        CARA=('R','EP',),
VALE=(0.875750E-01,0.200000E-01)
         ),
      _F(MAILLE='M499   ',
        SECTION='CERCLE',
        CARA=('R','EP',),
VALE=(0.875500E-01,0.200000E-01)
         ),
      _F(MAILLE='M500   ',
        SECTION='CERCLE',
        CARA=('R','EP',),
VALE=(0.875250E-01,0.200000E-01)
         ),
      _F(MAILLE='M501   ',
        SECTION='CERCLE',
        CARA=('R','EP',),
VALE=(0.875000E-01,0.200000E-01)
         ),
      _F(MAILLE='M502   ',
        SECTION='CERCLE',
        CARA=('R','EP',),
VALE=(0.874750E-01,0.200000E-01)
         ),
      _F(MAILLE='M503   ',
        SECTION='CERCLE',
        CARA=('R','EP',),
VALE=(0.874500E-01,0.200000E-01)
         ),
      _F(MAILLE='M504   ',
        SECTION='CERCLE',
        CARA=('R','EP',),
VALE=(0.874250E-01,0.200000E-01)
         ),
      _F(MAILLE='M505   ',
        SECTION='CERCLE',
        CARA=('R','EP',),
VALE=(0.874000E-01,0.200000E-01)
         ),
      _F(MAILLE='M506   ',
        SECTION='CERCLE',
        CARA=('R','EP',),
VALE=(0.873750E-01,0.200000E-01)
         ),
      _F(MAILLE='M507   ',
        SECTION='CERCLE',
        CARA=('R','EP',),
VALE=(0.873500E-01,0.200000E-01)
         ),
      _F(MAILLE='M508   ',
        SECTION='CERCLE',
        CARA=('R','EP',),
VALE=(0.873250E-01,0.200000E-01)
         ),
      _F(MAILLE='M509   ',
        SECTION='CERCLE',
        CARA=('R','EP',),
VALE=(0.873000E-01,0.200000E-01)
         ),
      _F(MAILLE='M510   ',
        SECTION='CERCLE',
        CARA=('R','EP',),
VALE=(0.872750E-01,0.200000E-01)
         ),
      _F(MAILLE='M511   ',
        SECTION='CERCLE',
        CARA=('R','EP',),
VALE=(0.872500E-01,0.200000E-01)
         ),
      _F(MAILLE='M512   ',
        SECTION='CERCLE',
        CARA=('R','EP',),
VALE=(0.872250E-01,0.200000E-01)
         ),
      _F(MAILLE='M513   ',
        SECTION='CERCLE',
        CARA=('R','EP',),
VALE=(0.872000E-01,0.200000E-01)
         ),
      _F(MAILLE='M514   ',
        SECTION='CERCLE',
        CARA=('R','EP',),
VALE=(0.871750E-01,0.200000E-01)
         ),
      _F(MAILLE='M515   ',
        SECTION='CERCLE',
        CARA=('R','EP',),
VALE=(0.871500E-01,0.200000E-01)
         ),
      _F(MAILLE='M516   ',
        SECTION='CERCLE',
        CARA=('R','EP',),
VALE=(0.871250E-01,0.200000E-01)
         ),
      _F(MAILLE='M517   ',
        SECTION='CERCLE',
        CARA=('R','EP',),
VALE=(0.871000E-01,0.200000E-01)
         ),
      _F(MAILLE='M518   ',
        SECTION='CERCLE',
        CARA=('R','EP',),
VALE=(0.870750E-01,0.200000E-01)
         ),
      _F(MAILLE='M519   ',
        SECTION='CERCLE',
        CARA=('R','EP',),
VALE=(0.870500E-01,0.200000E-01)
         ),
      _F(MAILLE='M520   ',
        SECTION='CERCLE',
        CARA=('R','EP',),
VALE=(0.870250E-01,0.200000E-01)
         ),
      _F(MAILLE='M521   ',
        SECTION='CERCLE',
        CARA=('R','EP',),
VALE=(0.870000E-01,0.200000E-01)
         ),
      _F(MAILLE='M522   ',
        SECTION='CERCLE',
        CARA=('R','EP',),
VALE=(0.869750E-01,0.200000E-01)
         ),
      _F(MAILLE='M523   ',
        SECTION='CERCLE',
        CARA=('R','EP',),
VALE=(0.869500E-01,0.200000E-01)
         ),
      _F(MAILLE='M524   ',
        SECTION='CERCLE',
        CARA=('R','EP',),
VALE=(0.869250E-01,0.200000E-01)
         ),
      _F(MAILLE='M525   ',
        SECTION='CERCLE',
        CARA=('R','EP',),
VALE=(0.869000E-01,0.200000E-01)
         ),
      _F(MAILLE='M526   ',
        SECTION='CERCLE',
        CARA=('R','EP',),
VALE=(0.868750E-01,0.200000E-01)
         ),
      _F(MAILLE='M527   ',
        SECTION='CERCLE',
        CARA=('R','EP',),
VALE=(0.868500E-01,0.200000E-01)
         ),
      _F(MAILLE='M528   ',
        SECTION='CERCLE',
        CARA=('R','EP',),
VALE=(0.868250E-01,0.200000E-01)
         ),
      _F(MAILLE='M529   ',
        SECTION='CERCLE',
        CARA=('R','EP',),
VALE=(0.868000E-01,0.200000E-01)
         ),
      _F(MAILLE='M530   ',
        SECTION='CERCLE',
        CARA=('R','EP',),
VALE=(0.867750E-01,0.200000E-01)
         ),
      _F(MAILLE='M531   ',
        SECTION='CERCLE',
        CARA=('R','EP',),
VALE=(0.867500E-01,0.200000E-01)
         ),
      _F(MAILLE='M532   ',
        SECTION='CERCLE',
        CARA=('R','EP',),
VALE=(0.867250E-01,0.200000E-01)
         ),
      _F(MAILLE='M533   ',
        SECTION='CERCLE',
        CARA=('R','EP',),
VALE=(0.867000E-01,0.200000E-01)
         ),
      _F(MAILLE='M534   ',
        SECTION='CERCLE',
        CARA=('R','EP',),
VALE=(0.866750E-01,0.200000E-01)
         ),
      _F(MAILLE='M535   ',
        SECTION='CERCLE',
        CARA=('R','EP',),
VALE=(0.866500E-01,0.200000E-01)
         ),
      _F(MAILLE='M536   ',
        SECTION='CERCLE',
        CARA=('R','EP',),
VALE=(0.866250E-01,0.200000E-01)
         ),
      _F(MAILLE='M537   ',
        SECTION='CERCLE',
        CARA=('R','EP',),
VALE=(0.866000E-01,0.200000E-01)
         ),
      _F(MAILLE='M538   ',
        SECTION='CERCLE',
        CARA=('R','EP',),
VALE=(0.865750E-01,0.200000E-01)
         ),
      _F(MAILLE='M539   ',
        SECTION='CERCLE',
        CARA=('R','EP',),
VALE=(0.865500E-01,0.200000E-01)
         ),
      _F(MAILLE='M540   ',
        SECTION='CERCLE',
        CARA=('R','EP',),
VALE=(0.865250E-01,0.200000E-01)
         ),
      _F(MAILLE='M541   ',
        SECTION='CERCLE',
        CARA=('R','EP',),
VALE=(0.865000E-01,0.200000E-01)
         ),
      _F(MAILLE='M542   ',
        SECTION='CERCLE',
        CARA=('R','EP',),
VALE=(0.864750E-01,0.200000E-01)
         ),
      _F(MAILLE='M543   ',
        SECTION='CERCLE',
        CARA=('R','EP',),
VALE=(0.864500E-01,0.200000E-01)
         ),
      _F(MAILLE='M544   ',
        SECTION='CERCLE',
        CARA=('R','EP',),
VALE=(0.864250E-01,0.200000E-01)
         ),
      _F(MAILLE='M545   ',
        SECTION='CERCLE',
        CARA=('R','EP',),
VALE=(0.864000E-01,0.200000E-01)
         ),
      _F(MAILLE='M546   ',
        SECTION='CERCLE',
        CARA=('R','EP',),
VALE=(0.863750E-01,0.200000E-01)
         ),
      _F(MAILLE='M547   ',
        SECTION='CERCLE',
        CARA=('R','EP',),
VALE=(0.863500E-01,0.200000E-01)
         ),
      _F(MAILLE='M548   ',
        SECTION='CERCLE',
        CARA=('R','EP',),
VALE=(0.863250E-01,0.200000E-01)
         ),
      _F(MAILLE='M549   ',
        SECTION='CERCLE',
        CARA=('R','EP',),
VALE=(0.863000E-01,0.200000E-01)
         ),
      _F(MAILLE='M550   ',
        SECTION='CERCLE',
        CARA=('R','EP',),
VALE=(0.862750E-01,0.200000E-01)
         ),
      _F(MAILLE='M551   ',
        SECTION='CERCLE',
        CARA=('R','EP',),
VALE=(0.862500E-01,0.200000E-01)
         ),
      _F(MAILLE='M552   ',
        SECTION='CERCLE',
        CARA=('R','EP',),
VALE=(0.862250E-01,0.200000E-01)
         ),
      _F(MAILLE='M553   ',
        SECTION='CERCLE',
        CARA=('R','EP',),
VALE=(0.862000E-01,0.200000E-01)
         ),
      _F(MAILLE='M554   ',
        SECTION='CERCLE',
        CARA=('R','EP',),
VALE=(0.861750E-01,0.200000E-01)
         ),
      _F(MAILLE='M555   ',
        SECTION='CERCLE',
        CARA=('R','EP',),
VALE=(0.861500E-01,0.200000E-01)
         ),
      _F(MAILLE='M556   ',
        SECTION='CERCLE',
        CARA=('R','EP',),
VALE=(0.861250E-01,0.200000E-01)
         ),
      _F(MAILLE='M557   ',
        SECTION='CERCLE',
        CARA=('R','EP',),
VALE=(0.861000E-01,0.200000E-01)
         ),
      _F(MAILLE='M558   ',
        SECTION='CERCLE',
        CARA=('R','EP',),
VALE=(0.860750E-01,0.200000E-01)
         ),
      _F(MAILLE='M559   ',
        SECTION='CERCLE',
        CARA=('R','EP',),
VALE=(0.860500E-01,0.200000E-01)
         ),
      _F(MAILLE='M560   ',
        SECTION='CERCLE',
        CARA=('R','EP',),
VALE=(0.860250E-01,0.200000E-01)
         ),
      _F(MAILLE='M561   ',
        SECTION='CERCLE',
        CARA=('R','EP',),
VALE=(0.860000E-01,0.200000E-01)
         ),
      _F(MAILLE='M562   ',
        SECTION='CERCLE',
        CARA=('R','EP',),
VALE=(0.859750E-01,0.200000E-01)
         ),
      _F(MAILLE='M563   ',
        SECTION='CERCLE',
        CARA=('R','EP',),
VALE=(0.859500E-01,0.200000E-01)
         ),
      _F(MAILLE='M564   ',
        SECTION='CERCLE',
        CARA=('R','EP',),
VALE=(0.859250E-01,0.200000E-01)
         ),
      _F(MAILLE='M565   ',
        SECTION='CERCLE',
        CARA=('R','EP',),
VALE=(0.859000E-01,0.200000E-01)
         ),
      _F(MAILLE='M566   ',
        SECTION='CERCLE',
        CARA=('R','EP',),
VALE=(0.858750E-01,0.200000E-01)
         ),
      _F(MAILLE='M567   ',
        SECTION='CERCLE',
        CARA=('R','EP',),
VALE=(0.858500E-01,0.200000E-01)
         ),
      _F(MAILLE='M568   ',
        SECTION='CERCLE',
        CARA=('R','EP',),
VALE=(0.858250E-01,0.200000E-01)
         ),
      _F(MAILLE='M569   ',
        SECTION='CERCLE',
        CARA=('R','EP',),
VALE=(0.858000E-01,0.200000E-01)
         ),
      _F(MAILLE='M570   ',
        SECTION='CERCLE',
        CARA=('R','EP',),
VALE=(0.857750E-01,0.200000E-01)
         ),
      _F(MAILLE='M571   ',
        SECTION='CERCLE',
        CARA=('R','EP',),
VALE=(0.857500E-01,0.200000E-01)
         ),
      _F(MAILLE='M572   ',
        SECTION='CERCLE',
        CARA=('R','EP',),
VALE=(0.857250E-01,0.200000E-01)
         ),
      _F(MAILLE='M573   ',
        SECTION='CERCLE',
        CARA=('R','EP',),
VALE=(0.857000E-01,0.200000E-01)
         ),
      _F(MAILLE='M574   ',
        SECTION='CERCLE',
        CARA=('R','EP',),
VALE=(0.856750E-01,0.200000E-01)
         ),
      _F(MAILLE='M575   ',
        SECTION='CERCLE',
        CARA=('R','EP',),
VALE=(0.856500E-01,0.200000E-01)
         ),
      _F(MAILLE='M576   ',
        SECTION='CERCLE',
        CARA=('R','EP',),
VALE=(0.856250E-01,0.200000E-01)
         ),
      _F(MAILLE='M577   ',
        SECTION='CERCLE',
        CARA=('R','EP',),
VALE=(0.856000E-01,0.200000E-01)
         ),
      _F(MAILLE='M578   ',
        SECTION='CERCLE',
        CARA=('R','EP',),
VALE=(0.855750E-01,0.200000E-01)
         ),
      _F(MAILLE='M579   ',
        SECTION='CERCLE',
        CARA=('R','EP',),
VALE=(0.855500E-01,0.200000E-01)
         ),
      _F(MAILLE='M580   ',
        SECTION='CERCLE',
        CARA=('R','EP',),
VALE=(0.855250E-01,0.200000E-01)
         ),
      _F(MAILLE='M581   ',
        SECTION='CERCLE',
        CARA=('R','EP',),
VALE=(0.855000E-01,0.200000E-01)
         ),
      _F(MAILLE='M582   ',
        SECTION='CERCLE',
        CARA=('R','EP',),
VALE=(0.854750E-01,0.200000E-01)
         ),
      _F(MAILLE='M583   ',
        SECTION='CERCLE',
        CARA=('R','EP',),
VALE=(0.854500E-01,0.200000E-01)
         ),
      _F(MAILLE='M584   ',
        SECTION='CERCLE',
        CARA=('R','EP',),
VALE=(0.854250E-01,0.200000E-01)
         ),
      _F(MAILLE='M585   ',
        SECTION='CERCLE',
        CARA=('R','EP',),
VALE=(0.854000E-01,0.200000E-01)
         ),
      _F(MAILLE='M586   ',
        SECTION='CERCLE',
        CARA=('R','EP',),
VALE=(0.853750E-01,0.200000E-01)
         ),
      _F(MAILLE='M587   ',
        SECTION='CERCLE',
        CARA=('R','EP',),
VALE=(0.853500E-01,0.200000E-01)
         ),
      _F(MAILLE='M588   ',
        SECTION='CERCLE',
        CARA=('R','EP',),
VALE=(0.853250E-01,0.200000E-01)
         ),
      _F(MAILLE='M589   ',
        SECTION='CERCLE',
        CARA=('R','EP',),
VALE=(0.853000E-01,0.200000E-01)
         ),
      _F(MAILLE='M590   ',
        SECTION='CERCLE',
        CARA=('R','EP',),
VALE=(0.852750E-01,0.200000E-01)
         ),
      _F(MAILLE='M591   ',
        SECTION='CERCLE',
        CARA=('R','EP',),
VALE=(0.852500E-01,0.200000E-01)
         ),
      _F(MAILLE='M592   ',
        SECTION='CERCLE',
        CARA=('R','EP',),
VALE=(0.852250E-01,0.200000E-01)
         ),
      _F(MAILLE='M593   ',
        SECTION='CERCLE',
        CARA=('R','EP',),
VALE=(0.852000E-01,0.200000E-01)
         ),
      _F(MAILLE='M594   ',
        SECTION='CERCLE',
        CARA=('R','EP',),
VALE=(0.851750E-01,0.200000E-01)
         ),
      _F(MAILLE='M595   ',
        SECTION='CERCLE',
        CARA=('R','EP',),
VALE=(0.851500E-01,0.200000E-01)
         ),
      _F(MAILLE='M596   ',
        SECTION='CERCLE',
        CARA=('R','EP',),
VALE=(0.851250E-01,0.200000E-01)
         ),
      _F(MAILLE='M597   ',
        SECTION='CERCLE',
        CARA=('R','EP',),
VALE=(0.851000E-01,0.200000E-01)
         ),
      _F(MAILLE='M598   ',
        SECTION='CERCLE',
        CARA=('R','EP',),
VALE=(0.850750E-01,0.200000E-01)
         ),
      _F(MAILLE='M599   ',
        SECTION='CERCLE',
        CARA=('R','EP',),
VALE=(0.850500E-01,0.200000E-01)
         ),
      _F(MAILLE='M600   ',
        SECTION='CERCLE',
        CARA=('R','EP',),
VALE=(0.850250E-01,0.200000E-01)
         ),
      _F(MAILLE='M601   ',
        SECTION='CERCLE',
        CARA=('R','EP',),
VALE=(0.850000E-01,0.200000E-01)
         ),
      _F(MAILLE='M602   ',
        SECTION='CERCLE',
        CARA=('R','EP',),
VALE=(0.849750E-01,0.200000E-01)
         ),
      _F(MAILLE='M603   ',
        SECTION='CERCLE',
        CARA=('R','EP',),
VALE=(0.849500E-01,0.200000E-01)
         ),
      _F(MAILLE='M604   ',
        SECTION='CERCLE',
        CARA=('R','EP',),
VALE=(0.849250E-01,0.200000E-01)
         ),
      _F(MAILLE='M605   ',
        SECTION='CERCLE',
        CARA=('R','EP',),
VALE=(0.849000E-01,0.200000E-01)
         ),
      _F(MAILLE='M606   ',
        SECTION='CERCLE',
        CARA=('R','EP',),
VALE=(0.848750E-01,0.200000E-01)
         ),
      _F(MAILLE='M607   ',
        SECTION='CERCLE',
        CARA=('R','EP',),
VALE=(0.848500E-01,0.200000E-01)
         ),
      _F(MAILLE='M608   ',
        SECTION='CERCLE',
        CARA=('R','EP',),
VALE=(0.848250E-01,0.200000E-01)
         ),
      _F(MAILLE='M609   ',
        SECTION='CERCLE',
        CARA=('R','EP',),
VALE=(0.848000E-01,0.200000E-01)
         ),
      _F(MAILLE='M610   ',
        SECTION='CERCLE',
        CARA=('R','EP',),
VALE=(0.847750E-01,0.200000E-01)
         ),
      _F(MAILLE='M611   ',
        SECTION='CERCLE',
        CARA=('R','EP',),
VALE=(0.847500E-01,0.200000E-01)
         ),
      _F(MAILLE='M612   ',
        SECTION='CERCLE',
        CARA=('R','EP',),
VALE=(0.847250E-01,0.200000E-01)
         ),
      _F(MAILLE='M613   ',
        SECTION='CERCLE',
        CARA=('R','EP',),
VALE=(0.847000E-01,0.200000E-01)
         ),
      _F(MAILLE='M614   ',
        SECTION='CERCLE',
        CARA=('R','EP',),
VALE=(0.846750E-01,0.200000E-01)
         ),
      _F(MAILLE='M615   ',
        SECTION='CERCLE',
        CARA=('R','EP',),
VALE=(0.846500E-01,0.200000E-01)
         ),
      _F(MAILLE='M616   ',
        SECTION='CERCLE',
        CARA=('R','EP',),
VALE=(0.846250E-01,0.200000E-01)
         ),
      _F(MAILLE='M617   ',
        SECTION='CERCLE',
        CARA=('R','EP',),
VALE=(0.846000E-01,0.200000E-01)
         ),
      _F(MAILLE='M618   ',
        SECTION='CERCLE',
        CARA=('R','EP',),
VALE=(0.845750E-01,0.200000E-01)
         ),
      _F(MAILLE='M619   ',
        SECTION='CERCLE',
        CARA=('R','EP',),
VALE=(0.845500E-01,0.200000E-01)
         ),
      _F(MAILLE='M620   ',
        SECTION='CERCLE',
        CARA=('R','EP',),
VALE=(0.845250E-01,0.200000E-01)
         ),
      _F(MAILLE='M621   ',
        SECTION='CERCLE',
        CARA=('R','EP',),
VALE=(0.845000E-01,0.200000E-01)
         ),
      _F(MAILLE='M622   ',
        SECTION='CERCLE',
        CARA=('R','EP',),
VALE=(0.844750E-01,0.200000E-01)
         ),
      _F(MAILLE='M623   ',
        SECTION='CERCLE',
        CARA=('R','EP',),
VALE=(0.844500E-01,0.200000E-01)
         ),
      _F(MAILLE='M624   ',
        SECTION='CERCLE',
        CARA=('R','EP',),
VALE=(0.844250E-01,0.200000E-01)
         ),
      _F(MAILLE='M625   ',
        SECTION='CERCLE',
        CARA=('R','EP',),
VALE=(0.844000E-01,0.200000E-01)
         ),
      _F(MAILLE='M626   ',
        SECTION='CERCLE',
        CARA=('R','EP',),
VALE=(0.843750E-01,0.200000E-01)
         ),
      _F(MAILLE='M627   ',
        SECTION='CERCLE',
        CARA=('R','EP',),
VALE=(0.843500E-01,0.200000E-01)
         ),
      _F(MAILLE='M628   ',
        SECTION='CERCLE',
        CARA=('R','EP',),
VALE=(0.843250E-01,0.200000E-01)
         ),
[...]
        CARA=('R','EP',),
VALE=(0.521500E-01,0.200000E-01)
         ),
      _F(MAILLE='M1916  ',
        SECTION='CERCLE',
        CARA=('R','EP',),
VALE=(0.521250E-01,0.200000E-01)
         ),
      _F(MAILLE='M1917  ',
        SECTION='CERCLE',
        CARA=('R','EP',),
VALE=(0.521000E-01,0.200000E-01)
         ),
      _F(MAILLE='M1918  ',
        SECTION='CERCLE',
        CARA=('R','EP',),
VALE=(0.520750E-01,0.200000E-01)
         ),
      _F(MAILLE='M1919  ',
        SECTION='CERCLE',
        CARA=('R','EP',),
VALE=(0.520500E-01,0.200000E-01)
         ),
      _F(MAILLE='M1920  ',
        SECTION='CERCLE',
        CARA=('R','EP',),
VALE=(0.520250E-01,0.200000E-01)
         ),
      _F(MAILLE='M1921  ',
        SECTION='CERCLE',
        CARA=('R','EP',),
VALE=(0.520000E-01,0.200000E-01)
         ),
      _F(MAILLE='M1922  ',
        SECTION='CERCLE',
        CARA=('R','EP',),
VALE=(0.519750E-01,0.200000E-01)
         ),
      _F(MAILLE='M1923  ',
        SECTION='CERCLE',
        CARA=('R','EP',),
VALE=(0.519500E-01,0.200000E-01)
         ),
      _F(MAILLE='M1924  ',
        SECTION='CERCLE',
        CARA=('R','EP',),
VALE=(0.519250E-01,0.200000E-01)
         ),
      _F(MAILLE='M1925  ',
        SECTION='CERCLE',
        CARA=('R','EP',),
VALE=(0.519000E-01,0.200000E-01)
         ),
      _F(MAILLE='M1926  ',
        SECTION='CERCLE',
        CARA=('R','EP',),
VALE=(0.518750E-01,0.200000E-01)
         ),
      _F(MAILLE='M1927  ',
        SECTION='CERCLE',
        CARA=('R','EP',),
VALE=(0.518500E-01,0.200000E-01)
         ),
      _F(MAILLE='M1928  ',
        SECTION='CERCLE',
        CARA=('R','EP',),
VALE=(0.518250E-01,0.200000E-01)
         ),
      _F(MAILLE='M1929  ',
        SECTION='CERCLE',
        CARA=('R','EP',),
VALE=(0.518000E-01,0.200000E-01)
         ),
      _F(MAILLE='M1930  ',
        SECTION='CERCLE',
        CARA=('R','EP',),
VALE=(0.517750E-01,0.200000E-01)
         ),
      _F(MAILLE='M1931  ',
        SECTION='CERCLE',
        CARA=('R','EP',),
VALE=(0.517500E-01,0.200000E-01)
         ),
      _F(MAILLE='M1932  ',
        SECTION='CERCLE',
        CARA=('R','EP',),
VALE=(0.517250E-01,0.200000E-01)
         ),
      _F(MAILLE='M1933  ',
        SECTION='CERCLE',
        CARA=('R','EP',),
VALE=(0.517000E-01,0.200000E-01)
         ),
      _F(MAILLE='M1934  ',
        SECTION='CERCLE',
        CARA=('R','EP',),
VALE=(0.516750E-01,0.200000E-01)
         ),
      _F(MAILLE='M1935  ',
        SECTION='CERCLE',
        CARA=('R','EP',),
VALE=(0.516500E-01,0.200000E-01)
         ),
      _F(MAILLE='M1936  ',
        SECTION='CERCLE',
        CARA=('R','EP',),
VALE=(0.516250E-01,0.200000E-01)
         ),
      _F(MAILLE='M1937  ',
        SECTION='CERCLE',
        CARA=('R','EP',),
VALE=(0.516000E-01,0.200000E-01)
         ),
      _F(MAILLE='M1938  ',
        SECTION='CERCLE',
        CARA=('R','EP',),
VALE=(0.515750E-01,0.200000E-01)
         ),
      _F(MAILLE='M1939  ',
        SECTION='CERCLE',
        CARA=('R','EP',),
VALE=(0.515500E-01,0.200000E-01)
         ),
      _F(MAILLE='M1940  ',
        SECTION='CERCLE',
        CARA=('R','EP',),
VALE=(0.515250E-01,0.200000E-01)
         ),
      _F(MAILLE='M1941  ',
        SECTION='CERCLE',
        CARA=('R','EP',),
VALE=(0.515000E-01,0.200000E-01)
         ),
      _F(MAILLE='M1942  ',
        SECTION='CERCLE',
        CARA=('R','EP',),
VALE=(0.514750E-01,0.200000E-01)
         ),
      _F(MAILLE='M1943  ',
        SECTION='CERCLE',
        CARA=('R','EP',),
VALE=(0.514500E-01,0.200000E-01)
         ),
      _F(MAILLE='M1944  ',
        SECTION='CERCLE',
        CARA=('R','EP',),
VALE=(0.514250E-01,0.200000E-01)
         ),
      _F(MAILLE='M1945  ',
        SECTION='CERCLE',
        CARA=('R','EP',),
VALE=(0.514000E-01,0.200000E-01)
         ),
      _F(MAILLE='M1946  ',
        SECTION='CERCLE',
        CARA=('R','EP',),
VALE=(0.513750E-01,0.200000E-01)
         ),
      _F(MAILLE='M1947  ',
        SECTION='CERCLE',
        CARA=('R','EP',),
VALE=(0.513500E-01,0.200000E-01)
         ),
      _F(MAILLE='M1948  ',
        SECTION='CERCLE',
        CARA=('R','EP',),
VALE=(0.513250E-01,0.200000E-01)
         ),
      _F(MAILLE='M1949  ',
        SECTION='CERCLE',
        CARA=('R','EP',),
VALE=(0.513000E-01,0.200000E-01)
         ),
      _F(MAILLE='M1950  ',
        SECTION='CERCLE',
        CARA=('R','EP',),
VALE=(0.512750E-01,0.200000E-01)
         ),
      _F(MAILLE='M1951  ',
        SECTION='CERCLE',
        CARA=('R','EP',),
VALE=(0.512500E-01,0.200000E-01)
         ),
      _F(MAILLE='M1952  ',
        SECTION='CERCLE',
        CARA=('R','EP',),
VALE=(0.512250E-01,0.200000E-01)
         ),
      _F(MAILLE='M1953  ',
        SECTION='CERCLE',
        CARA=('R','EP',),
VALE=(0.512000E-01,0.200000E-01)
         ),
      _F(MAILLE='M1954  ',
        SECTION='CERCLE',
        CARA=('R','EP',),
VALE=(0.511750E-01,0.200000E-01)
         ),
      _F(MAILLE='M1955  ',
        SECTION='CERCLE',
        CARA=('R','EP',),
VALE=(0.511500E-01,0.200000E-01)
         ),
      _F(MAILLE='M1956  ',
        SECTION='CERCLE',
        CARA=('R','EP',),
VALE=(0.511250E-01,0.200000E-01)
         ),
      _F(MAILLE='M1957  ',
        SECTION='CERCLE',
        CARA=('R','EP',),
VALE=(0.511000E-01,0.200000E-01)
         ),
      _F(MAILLE='M1958  ',
        SECTION='CERCLE',
        CARA=('R','EP',),
VALE=(0.510750E-01,0.200000E-01)
         ),
      _F(MAILLE='M1959  ',
        SECTION='CERCLE',
        CARA=('R','EP',),
VALE=(0.510500E-01,0.200000E-01)
         ),
      _F(MAILLE='M1960  ',
        SECTION='CERCLE',
        CARA=('R','EP',),
VALE=(0.510250E-01,0.200000E-01)
         ),
      _F(MAILLE='M1961  ',
        SECTION='CERCLE',
        CARA=('R','EP',),
VALE=(0.510000E-01,0.200000E-01)
         ),
      _F(MAILLE='M1962  ',
        SECTION='CERCLE',
        CARA=('R','EP',),
VALE=(0.509750E-01,0.200000E-01)
         ),
      _F(MAILLE='M1963  ',
        SECTION='CERCLE',
        CARA=('R','EP',),
VALE=(0.509500E-01,0.200000E-01)
         ),
      _F(MAILLE='M1964  ',
        SECTION='CERCLE',
        CARA=('R','EP',),
VALE=(0.509250E-01,0.200000E-01)
         ),
      _F(MAILLE='M1965  ',
        SECTION='CERCLE',
        CARA=('R','EP',),
VALE=(0.509000E-01,0.200000E-01)
         ),
      _F(MAILLE='M1966  ',
        SECTION='CERCLE',
        CARA=('R','EP',),
VALE=(0.508750E-01,0.200000E-01)
         ),
      _F(MAILLE='M1967  ',
        SECTION='CERCLE',
        CARA=('R','EP',),
VALE=(0.508500E-01,0.200000E-01)
         ),
      _F(MAILLE='M1968  ',
        SECTION='CERCLE',
        CARA=('R','EP',),
VALE=(0.508250E-01,0.200000E-01)
         ),
      _F(MAILLE='M1969  ',
        SECTION='CERCLE',
        CARA=('R','EP',),
VALE=(0.508000E-01,0.200000E-01)
         ),
      _F(MAILLE='M1970  ',
        SECTION='CERCLE',
        CARA=('R','EP',),
VALE=(0.507750E-01,0.200000E-01)
         ),
      _F(MAILLE='M1971  ',
        SECTION='CERCLE',
        CARA=('R','EP',),
VALE=(0.507500E-01,0.200000E-01)
         ),
      _F(MAILLE='M1972  ',
        SECTION='CERCLE',
        CARA=('R','EP',),
VALE=(0.507250E-01,0.200000E-01)
         ),
      _F(MAILLE='M1973  ',
        SECTION='CERCLE',
        CARA=('R','EP',),
VALE=(0.507000E-01,0.200000E-01)
         ),
      _F(MAILLE='M1974  ',
        SECTION='CERCLE',
        CARA=('R','EP',),
VALE=(0.506750E-01,0.200000E-01)
         ),
      _F(MAILLE='M1975  ',
        SECTION='CERCLE',
        CARA=('R','EP',),
VALE=(0.506500E-01,0.200000E-01)
         ),
      _F(MAILLE='M1976  ',
        SECTION='CERCLE',
        CARA=('R','EP',),
VALE=(0.506250E-01,0.200000E-01)
         ),
      _F(MAILLE='M1977  ',
        SECTION='CERCLE',
        CARA=('R','EP',),
VALE=(0.506000E-01,0.200000E-01)
         ),
      _F(MAILLE='M1978  ',
        SECTION='CERCLE',
        CARA=('R','EP',),
VALE=(0.505750E-01,0.200000E-01)
         ),
      _F(MAILLE='M1979  ',
        SECTION='CERCLE',
        CARA=('R','EP',),
VALE=(0.505500E-01,0.200000E-01)
         ),
      _F(MAILLE='M1980  ',
        SECTION='CERCLE',
        CARA=('R','EP',),
VALE=(0.505250E-01,0.200000E-01)
         ),
      _F(MAILLE='M1981  ',
        SECTION='CERCLE',
        CARA=('R','EP',),
VALE=(0.505000E-01,0.200000E-01)
         ),
      _F(MAILLE='M1982  ',
        SECTION='CERCLE',
        CARA=('R','EP',),
VALE=(0.504750E-01,0.200000E-01)
         ),
      _F(MAILLE='M1983  ',
        SECTION='CERCLE',
        CARA=('R','EP',),
VALE=(0.504500E-01,0.200000E-01)
         ),
      _F(MAILLE='M1984  ',
        SECTION='CERCLE',
        CARA=('R','EP',),
VALE=(0.504250E-01,0.200000E-01)
         ),
      _F(MAILLE='M1985  ',
        SECTION='CERCLE',
        CARA=('R','EP',),
VALE=(0.504000E-01,0.200000E-01)
         ),
      _F(MAILLE='M1986  ',
        SECTION='CERCLE',
        CARA=('R','EP',),
VALE=(0.503750E-01,0.200000E-01)
         ),
      _F(MAILLE='M1987  ',
        SECTION='CERCLE',
        CARA=('R','EP',),
VALE=(0.503500E-01,0.200000E-01)
         ),
      _F(MAILLE='M1988  ',
        SECTION='CERCLE',
        CARA=('R','EP',),
VALE=(0.503250E-01,0.200000E-01)
         ),
      _F(MAILLE='M1989  ',
        SECTION='CERCLE',
        CARA=('R','EP',),
VALE=(0.503000E-01,0.200000E-01)
         ),
      _F(MAILLE='M1990  ',
        SECTION='CERCLE',
        CARA=('R','EP',),
VALE=(0.502750E-01,0.200000E-01)
         ),
      _F(MAILLE='M1991  ',
        SECTION='CERCLE',
        CARA=('R','EP',),
VALE=(0.502500E-01,0.200000E-01)
         ),
      _F(MAILLE='M1992  ',
        SECTION='CERCLE',
        CARA=('R','EP',),
VALE=(0.502250E-01,0.200000E-01)
         ),
      _F(MAILLE='M1993  ',
        SECTION='CERCLE',
        CARA=('R','EP',),
VALE=(0.502000E-01,0.200000E-01)
         ),
      _F(MAILLE='M1994  ',
        SECTION='CERCLE',
        CARA=('R','EP',),
VALE=(0.501750E-01,0.200000E-01)
         ),
      _F(MAILLE='M1995  ',
        SECTION='CERCLE',
        CARA=('R','EP',),
VALE=(0.501500E-01,0.200000E-01)
         ),
      _F(MAILLE='M1996  ',
        SECTION='CERCLE',
        CARA=('R','EP',),
VALE=(0.501250E-01,0.200000E-01)
         ),
      _F(MAILLE='M1997  ',
        SECTION='CERCLE',
        CARA=('R','EP',),
VALE=(0.501000E-01,0.200000E-01)
         ),
      _F(MAILLE='M1998  ',
        SECTION='CERCLE',
        CARA=('R','EP',),
VALE=(0.500750E-01,0.200000E-01)
         ),
      _F(MAILLE='M1999  ',
        SECTION='CERCLE',
        CARA=('R','EP',),
VALE=(0.500500E-01,0.200000E-01)
         ),
      _F(MAILLE='M2000  ',
        SECTION='CERCLE',
        CARA=('R','EP',),
VALE=(0.500250E-01,0.200000E-01)
         ),
# FIN DE DEFINITION DES ELEMENTS POUTRES
                ),);


# DEFINITION DES CONDITIONS AUX LIMITES
CON_LIM=AFFE_CHAR_MECA(MODELE=MO,
                        DDL_IMPO=_F(GROUP_NO=('PALIER_A','PALIER_E'),
                                  DRX=0.0,
                                  DX=0.0,
                                  DY=0.0,
                                  DZ=0.0,),
                                  ),


# ASSEMBLAGE DES MATRICES ELEMENTAIRES
ASSEMBLAGE(MODELE=MO,
                CHAM_MATER=MAT,
                CARA_ELEM=CAEL,
                CHARGE=CON_LIM,
                NUME_DDL=CO('NUMEDDL'),
                MATR_ASSE=(_F(MATRICE=CO('RIGIDITE'),
                              OPTION='RIGI_MECA',),
                           _F(MATRICE=CO('MASSE'),
                              OPTION='MASS_MECA',),
                           _F(MATRICE=CO('GYASS'),
                              OPTION='MECA_GYRO',),
                           _F(MATRICE=CO('AMOR'),
                              OPTION='AMOR_MECA',),),);

MODES=CALC_MODES(MATR_RIGI=RIGIDITE,
                 OPTION='BANDE',
                 CALC_FREQ=_F(FREQ=(3.,4750.),
                              ),
                 MATR_MASS=MASSE,
                 )

TEST_RESU(RESU=(_F(NUME_ORDRE=1,
                   PARA='FREQ',
                   REFERENCE='SOURCE_EXTERNE',
                   RESULTAT=MODES,
                   VALE_CALC=332.042675855,
                   VALE_REFE=332.13999999999999,
                   PRECISION=1.E-2,),
                _F(NUME_ORDRE=2,
                   PARA='FREQ',
                   REFERENCE='SOURCE_EXTERNE',
                   RESULTAT=MODES,
                   VALE_CALC=332.042675855,
                   VALE_REFE=332.13999999999999,
                   PRECISION=1.E-2,),
                _F(NUME_ORDRE=3,
                   PARA='FREQ',
                   REFERENCE='SOURCE_EXTERNE',
                   RESULTAT=MODES,
                   VALE_CALC= 1.19074491E+03,
                   VALE_REFE=1193.8099999999999,
                   PRECISION=1.E-2,),
                _F(NUME_ORDRE=4,
                   PARA='FREQ',
                   REFERENCE='SOURCE_EXTERNE',
                   RESULTAT=MODES,
                   VALE_CALC= 1.19074491E+03,
                   VALE_REFE=1193.8099999999999,
                   PRECISION=1.E-2,),
                _F(NUME_ORDRE=5,
                   PARA='FREQ',
                   REFERENCE='SOURCE_EXTERNE',
                   RESULTAT=MODES,
                   VALE_CALC= 1.60717060E+03,
                   VALE_REFE=1607.1900000000001,
                   PRECISION=1.E-2,),
                _F(NUME_ORDRE=6,
                   PARA='FREQ',
                   REFERENCE='SOURCE_EXTERNE',
                   RESULTAT=MODES,
                   VALE_CALC= 2.28072313E+03,
                   VALE_REFE=2291.5100000000002,
                   PRECISION=1.E-2,),
                _F(NUME_ORDRE=7,
                   PARA='FREQ',
                   REFERENCE='SOURCE_EXTERNE',
                   RESULTAT=MODES,
                   VALE_CALC= 2.28072313E+03,
                   VALE_REFE=2291.5100000000002,
                   PRECISION=1.E-2,),
                _F(NUME_ORDRE=8,
                   PARA='FREQ',
                   REFERENCE='SOURCE_EXTERNE',
                   RESULTAT=MODES,
                   VALE_CALC= 2.51159848E+03,
                   VALE_REFE=2512.2199999999998,
                   PRECISION=1.E-2,),
                _F(NUME_ORDRE=9,
                   PARA='FREQ',
                   REFERENCE='SOURCE_EXTERNE',
                   RESULTAT=MODES,
                   VALE_CALC= 3.16038728E+03,
                   VALE_REFE=3160.3899999999999,
                   PRECISION=1.E-2,),
                _F(NUME_ORDRE=10,
                   PARA='FREQ',
                   REFERENCE='SOURCE_EXTERNE',
                   RESULTAT=MODES,
                   VALE_CALC= 3.46202877E+03,
                   VALE_REFE=3520.23,
                   PRECISION=0.02,),
                _F(NUME_ORDRE=11,
                   PARA='FREQ',
                   REFERENCE='SOURCE_EXTERNE',
                   RESULTAT=MODES,
                   VALE_CALC= 3.46202877E+03,
                   VALE_REFE=3520.23,
                   PRECISION=0.02,),
                _F(NUME_ORDRE=12,
                   PARA='FREQ',
                   REFERENCE='SOURCE_EXTERNE',
                   RESULTAT=MODES,
                   VALE_CALC= 4.67173325E+03,
                   VALE_REFE=4724.1400000000003,
                   PRECISION=0.02,),
                ),
          )

OM=4000.*pi/30.

GYOM=COMB_MATR_ASSE(COMB_R=(_F(MATR_ASSE=GYASS, COEF_R=OM,),
                            _F(MATR_ASSE=AMOR, COEF_R=1.,),))

PROJ_BASE(BASE=MODES,
          STOCKAGE='PLEIN',
          MATR_ASSE_GENE=(_F(MATRICE=CO('MAGE'),
                             MATR_ASSE=MASSE,),
                          _F(MATRICE=CO('RIGE'),
                             MATR_ASSE=RIGIDITE,),
                          _F(MATRICE=CO('OMGE'),
                             MATR_ASSE=GYOM,),),);

MOD2ETAG=CALC_MODES(MATR_RIGI=RIGE,
                    OPTION='TOUT',
                    MATR_AMOR=OMGE,
                    MATR_MASS=MAGE,
                    SOLVEUR_MODAL=_F(METHODE='QZ',
                                     ),
                    )

TEST_RESU(RESU=(_F(NUME_ORDRE=1,
                   PARA='FREQ',
                   REFERENCE='NON_DEFINI',
                   RESULTAT=MOD2ETAG,
                   VALE_CALC=330.760379638,
                   VALE_REFE=331.51261443099997,
                   CRITERE='RELATIF',
                   PRECISION=5.0000000000000001E-3,),
                _F(NUME_ORDRE=2,
                   PARA='FREQ',
                   REFERENCE='NON_DEFINI',
                   RESULTAT=MOD2ETAG,
                   VALE_CALC=333.329701129,
                   VALE_REFE=334.10616666300001,
                   CRITERE='RELATIF',
                   PRECISION=5.0000000000000001E-3,),
                _F(NUME_ORDRE=3,
                   PARA='FREQ',
                   REFERENCE='NON_DEFINI',
                   RESULTAT=MOD2ETAG,
                   VALE_CALC= 1.18797666E+03,
                   VALE_REFE=1187.9766588155001,
                   CRITERE='RELATIF',
                   PRECISION=5.0000000000000001E-3,),
                _F(NUME_ORDRE=4,
                   PARA='FREQ',
                   REFERENCE='NON_DEFINI',
                   RESULTAT=MOD2ETAG,
                   VALE_CALC= 1.19352028E+03,
                   VALE_REFE=1193.5202751899999,
                   CRITERE='RELATIF',
                   PRECISION=5.0000000000000001E-3,),
                _F(NUME_ORDRE=5,
                   PARA='FREQ',
                   REFERENCE='NON_DEFINI',
                   RESULTAT=MOD2ETAG,
                   VALE_CALC= 1.60717059E+03,
                   VALE_REFE=1607.1409074200001,
                   CRITERE='RELATIF',
                   PRECISION=5.0000000000000001E-3,),
                _F(NUME_ORDRE=6,
                   PARA='FREQ',
                   REFERENCE='NON_DEFINI',
                   RESULTAT=MOD2ETAG,
                   VALE_CALC= 2.27729088E+03,
                   VALE_REFE=2277.2908821003998,
                   CRITERE='RELATIF',
                   PRECISION=5.0000000000000001E-3,),
                _F(NUME_ORDRE=7,
                   PARA='FREQ',
                   REFERENCE='NON_DEFINI',
                   RESULTAT=MOD2ETAG,
                   VALE_CALC= 2.28416088E+03,
                   VALE_REFE=2284.1608766260001,
                   CRITERE='RELATIF',
                   PRECISION=5.0000000000000001E-3,),
                _F(NUME_ORDRE=8,
                   PARA='FREQ',
                   REFERENCE='NON_DEFINI',
                   RESULTAT=MOD2ETAG,
                   VALE_CALC= 2.51159848E+03,
                   VALE_REFE=2512.22230833,
                   CRITERE='RELATIF',
                   PRECISION=5.0000000000000001E-3,),
                _F(NUME_ORDRE=9,
                   PARA='FREQ',
                   REFERENCE='NON_DEFINI',
                   RESULTAT=MOD2ETAG,
                   VALE_CALC= 3.16038727E+03,
                   VALE_REFE=3162.6802063099999,
                   CRITERE='RELATIF',
                   PRECISION=5.0000000000000001E-3,),
                _F(NUME_ORDRE=10,
                   PARA='FREQ',
                   REFERENCE='NON_DEFINI',
                   RESULTAT=MOD2ETAG,
                   VALE_CALC= 3.45860557E+03,
                   VALE_REFE=3458.6055720130998,
                   CRITERE='RELATIF',
                   PRECISION=5.0000000000000001E-3,),
                _F(NUME_ORDRE=11,
                   PARA='FREQ',
                   REFERENCE='NON_DEFINI',
                   RESULTAT=MOD2ETAG,
                   VALE_CALC= 3.46545540E+03,
                   VALE_REFE=3465.4553953784002,
                   CRITERE='RELATIF',
                   PRECISION=5.0000000000000001E-3,),
                _F(NUME_ORDRE=12,
                   PARA='FREQ',
                   REFERENCE='NON_DEFINI',
                   RESULTAT=MOD2ETAG,
                   VALE_CALC= 4.66859869E+03,
                   VALE_REFE=4668.5986936475001,
                   CRITERE='RELATIF',
                   PRECISION=5.0000000000000001E-3,),
                ),
          )

FIN()
