# MODIF  DATE 25/01/2011   AUTEUR PELLET J.PELLET 
# TITRE POUTRE ENCASTREE-LIBRE: REPONSE SPECTRALE
# sdll23c.para = tps_job 60 mem_job 270Mo ncpus 1 liste_test S
#            CONFIGURATION MANAGEMENT OF EDF VERSION
# ======================================================================
# COPYRIGHT (C) 1991 - 2011  EDF R&D                  WWW.CODE-ASTER.ORG
# THIS PROGRAM IS FREE SOFTWARE; YOU CAN REDISTRIBUTE IT AND/OR MODIFY
# IT UNDER THE TERMS OF THE GNU GENERAL PUBLIC LICENSE AS PUBLISHED BY
# THE FREE SOFTWARE FOUNDATION; EITHER VERSION 2 OF THE LICENSE, OR
# (AT YOUR OPTION) ANY LATER VERSION.
#
# THIS PROGRAM IS DISTRIBUTED IN THE HOPE THAT IT WILL BE USEFUL, BUT
# WITHOUT ANY WARRANTY; WITHOUT EVEN THE IMPLIED WARRANTY OF
# MERCHANTABILITY OR FITNESS FOR A PARTICULAR PURPOSE. SEE THE GNU
# GENERAL PUBLIC LICENSE FOR MORE DETAILS.
#
# YOU SHOULD HAVE RECEIVED A COPY OF THE GNU GENERAL PUBLIC LICENSE
# ALONG WITH THIS PROGRAM; IF NOT, WRITE TO EDF R&D CODE_ASTER,
#    1 AVENUE DU GENERAL DE GAULLE, 92141 CLAMART CEDEX, FRANCE.
# ======================================================================
# RESPONSABLE AUDEBERT S.AUDEBERT
# ----------------------------------------------------------------------
# POUTRE ENCASTREE-LIBRE SOUMIS A UN SEISME
# CORRECTION STATIQUE DE L'EFFET DES MODES PROPRES D'ORDRE ELEVE
#                                                  REF: SFM.VPCS SDLL23
# ----------------------------------------------------------------------


DEBUT( CODE=_F(  NOM = 'SDLL23C',NIV_PUB_WEB='INTERNET'),DEBUG=_F(SDVERI='OUI'))

MAILLAGE=LIRE_MAILLAGE( )

MAILLAGE=DEFI_GROUP( reuse=MAILLAGE,   MAILLAGE=MAILLAGE,
                           CREA_GROUP_MA=_F(  NOM = 'MAILLAGE',
                                           MAILLE = ( 'E01', 'E02', ))
                        )

MAT=DEFI_MATERIAU( ELAS=_F(  E = 2.E+11,  NU = 0.3,  RHO = 0.) )

CH_MATE=AFFE_MATERIAU(  MAILLAGE=MAILLAGE,
                            AFFE=_F(  GROUP_MA = 'M_POUT',  MATER = MAT) )

MODELE=AFFE_MODELE(  MAILLAGE=MAILLAGE,AFFE=(
                        _F(  GROUP_MA = 'M_POUT', PHENOMENE = 'MECANIQUE',
                               MODELISATION = 'POU_D_TG'),
                             _F(  GROUP_NO = 'MASSE',  PHENOMENE = 'MECANIQUE',
                               MODELISATION = 'DIS_T')) )

CARA_ELE=AFFE_CARA_ELEM(  MODELE=MODELE,
                POUTRE=_F(  GROUP_MA = 'M_POUT',  SECTION = 'GENERALE',
                         CARA = (   'A',     'IY',      'IZ',      'JX',   'AY', 'AZ'),
                         VALE = ( 78.1E-4, 5696.E-8, 2003.E-8, 7699.E-8, 1.2, 1.2)),DISCRET=(
                _F(  NOEUD = 'B',  CARA = 'M_T_D_N', VALE = 50000.),
                        _F(  NOEUD = 'C',  CARA = 'M_T_D_N', VALE = 5000.)) )

COND_LIM=AFFE_CHAR_MECA(  MODELE=MODELE,
                  DDL_IMPO=_F(  NOEUD = 'A',   DX = 0.,  DY = 0.,  DZ = 0.,
                                         DRX = 0., DRY = 0., DRZ = 0.) )

RIGI_ELE=CALC_MATR_ELEM(  MODELE=MODELE,   OPTION='RIGI_MECA',
                              CHAM_MATER=CH_MATE,   CARA_ELEM=CARA_ELE,
                              CHARGE=COND_LIM                        )

MASS_ELE=CALC_MATR_ELEM(  MODELE=MODELE,   OPTION='MASS_MECA',
                              CHAM_MATER=CH_MATE,   CARA_ELEM=CARA_ELE,
                              CHARGE=COND_LIM                        )

NUME1=NUME_DDL(  MATR_RIGI=RIGI_ELE)

RIGIDITE=ASSE_MATRICE(  MATR_ELEM=RIGI_ELE,  NUME_DDL=NUME1      )

MASSE=ASSE_MATRICE(  MATR_ELEM=MASS_ELE,  NUME_DDL=NUME1      )

TABL_MAS=POST_ELEM(  MODELE=MODELE,
                         CHAM_MATER=CH_MATE,   CARA_ELEM=CARA_ELE,
                        MASS_INER=_F(  TOUT = 'OUI',
                                    GROUP_MA = 'MAILLAGE')
                      )

IMPR_TABLE(   TABLE=TABL_MAS )

MODE_MEC=MODE_ITER_SIMULT(  MATR_A=RIGIDITE,   MATR_B=MASSE,
                  CALC_FREQ=_F(  OPTION = 'PLUS_PETITE',  NMAX_FREQ = 6,
                              DIM_SOUS_ESPACE = 6) )

MODE_MEC=NORM_MODE(reuse=MODE_MEC,   MODE=MODE_MEC,   NORME='MASS_GENE',)

MODE_MEC=CALC_ELEM(reuse=MODE_MEC,  RESULTAT=MODE_MEC,
                       OPTION=('SIEF_ELGA',
                         'EFGE_ELNO_DEPL', 'SIPO_ELNO'),
                         )

MODE_MEC=CALC_NO(reuse=MODE_MEC,  RESULTAT=MODE_MEC,
                   OPTION='REAC_NODA',
                      TOUT_ORDRE='OUI' )

TEST_RESU(RESU=( _F(  RESULTAT = MODE_MEC,  PARA = 'FREQ',
                     CRITERE = 'RELATIF',  PRECISION = 0.01,
                     NUME_MODE = 1,       VALE = 0.247),
                   _F(  RESULTAT = MODE_MEC,  PARA = 'FREQ',
                     CRITERE = 'RELATIF',  PRECISION = 0.01,
                     NUME_MODE = 2,       VALE = 0.416),
                   _F(  RESULTAT = MODE_MEC,  PARA = 'FREQ',
                     CRITERE = 'RELATIF',  PRECISION = 0.01,
                     NUME_MODE = 3,       VALE = 7.0269),
                   _F(  RESULTAT = MODE_MEC,  PARA = 'FREQ',
                     CRITERE = 'RELATIF',  PRECISION = 0.01,
                     NUME_MODE = 4,       VALE = 10.9171),
                   _F(  RESULTAT = MODE_MEC,  PARA = 'FREQ',
                     CRITERE = 'RELATIF',  PRECISION = 0.01,
                     NUME_MODE = 5,       VALE = 27.507),
                   _F(  RESULTAT = MODE_MEC,  PARA = 'FREQ',
                     CRITERE = 'RELATIF',  PRECISION = 0.01,
                     NUME_MODE = 6,       VALE = 41.740))   )

#

TEST_RESU(RESU=( _F(  RESULTAT = MODE_MEC,  PARA = 'FACT_PARTICI_DY',
                     CRITERE = 'RELATIF',  PRECISION = 0.01,
                     NUME_MODE = 1,       VALE = 73.322),
                   _F(  RESULTAT = MODE_MEC,  PARA = 'FACT_PARTICI_DZ',
                     CRITERE = 'RELATIF',  PRECISION = 0.01,
                     NUME_MODE = 2,       VALE = 73.332),
                   _F(  RESULTAT = MODE_MEC,  PARA = 'FACT_PARTICI_DY',
                     CRITERE = 'RELATIF',  PRECISION = 0.01,
                     NUME_MODE = 3,       VALE = 222.764),
                   _F(  RESULTAT = MODE_MEC,  PARA = 'FACT_PARTICI_DZ',
                     CRITERE = 'RELATIF',  PRECISION = 0.01,
                     NUME_MODE = 4,       VALE = 222.761),
                   _F(  RESULTAT = MODE_MEC,  PARA = 'FACT_PARTICI_DX',
                     CRITERE = 'RELATIF',  PRECISION = 0.01,
                     NUME_MODE = 5,       VALE = 130.137),
                   _F(  RESULTAT = MODE_MEC,  PARA = 'FACT_PARTICI_DX',
                     CRITERE = 'RELATIF',  PRECISION = 0.01,
                     NUME_MODE = 6,       VALE = 195.101))      )

MODE_STA=MODE_STATIQUE(  MATR_RIGI=RIGIDITE,   MATR_MASS=MASSE,
                         SOLVEUR=_F(METHODE='MULT_FRONT'),
                          PSEUDO_MODE=(
                                       _F(  AXE = ( 'X',  'Y', )),
                                       _F(  DIRECTION = ( 0., 0., 1., ),
                                         NOM_DIR = 'Z')) )

MODE_STA=CALC_ELEM(reuse=MODE_STA,  RESULTAT=MODE_STA,
                      OPTION='SIEF_ELGA',
                         )

MODE_STA=CALC_NO(reuse=MODE_STA,  RESULTAT=MODE_STA,
                  OPTION='REAC_NODA',
                      NOEUD_CMP=('ACCE', 'X',))

MODE_STA=CALC_NO(reuse=MODE_STA,  RESULTAT=MODE_STA,
                  OPTION='REAC_NODA',
                      NOEUD_CMP=('ACCE', 'Y',))

MODE_STA=CALC_NO(reuse=MODE_STA,  RESULTAT=MODE_STA,
                   OPTION='REAC_NODA',
                      NOEUD_CMP=('ACCE', 'Z',))

ACCE_X=DEFI_FONCTION(  NOM_PARA='FREQ',        INTERPOL='LOG',
                          VALE=( 0.2,            2.4,
                                 2.0,           25.,
                                 7.70,          25.,
                                 20.0,          10.,
                                 100.0,         10.,  ) )

SPECT=DEFI_NAPPE(  NOM_PARA='AMOR',
                         INTERPOL=( 'LIN', 'LOG', ),
                       PARA=(     0.005,   0.01,    0.015,  ),
                       FONCTION=( ACCE_X,  ACCE_X,  ACCE_X, )        )

# ----------------------------------------------------------------------
#                  COMBINAISON SRSS
# ----------------------------------------------------------------------

SISM_SP3=COMB_SISM_MODAL(  MODE_MECA=MODE_MEC,
                           NUME_MODE=( 1,  2,  3, ),
                           AMOR_REDUIT=0.01,
                           MASS_INER=TABL_MAS,
                           CORR_FREQ='NON',
                           MONO_APPUI = 'OUI',
                           EXCIT=_F(TRI_AXE = ( 1.,  1.,  1., ),
                                    SPEC_OSCI = SPECT),
                           COMB_MODE=_F(  TYPE = 'DPC'),
                           COMB_DIRECTION=_F(  TYPE = 'QUAD'),
                           OPTION=( 'DEPL',  'REAC_NODA',
                                      'EFGE_ELNO_DEPL',
                                      'SIPO_ELNO',  )
                            )


TEST_RESU(RESU=( _F(  RESULTAT = SISM_SP3,  NOM_CHAM = 'DEPL',
                     NOEUD_CMP = ( 'COMBI',  'QUAD', ),
                     NOEUD = 'B',     NOM_CMP = 'DY',    VALE = 0.013629557646925),
                   _F(  RESULTAT = SISM_SP3,  NOM_CHAM = 'DEPL',
                     NOEUD_CMP = ( 'COMBI',  'QUAD', ),
                     NOEUD = 'C',     NOM_CMP = 'DY',    VALE = 1.2823319955938),
                   _F(  RESULTAT = SISM_SP3,  NOM_CHAM = 'DEPL',
                     NOEUD_CMP = ( 'COMBI',  'QUAD', ),
                     NOEUD = 'B',     NOM_CMP = 'DZ',    VALE = 2.8597672021264E-03),
                   _F(  RESULTAT = SISM_SP3,  NOM_CHAM = 'DEPL',
                     NOEUD_CMP = ( 'COMBI',  'QUAD', ),
                     NOEUD = 'C',     NOM_CMP = 'DZ',    VALE = 0.76782573063606))
              )

#

TEST_RESU(RESU=( _F(  RESULTAT = SISM_SP3,  NOM_CHAM = 'REAC_NODA',
                     NOEUD_CMP = ( 'COMBI',  'QUAD', ),
                     CRITERE = 'ABSOLU', PRECISION = 1.E-8,
                     NOEUD = 'A',     NOM_CMP = 'DX',    VALE = 0.),
                   _F(  RESULTAT = SISM_SP3,  NOM_CHAM = 'REAC_NODA',
                     NOEUD_CMP = ( 'COMBI',  'QUAD', ),
                     NOEUD = 'A',     NOM_CMP = 'DY',    VALE = 1.786596370118E+06),
                   _F(  RESULTAT = SISM_SP3,  NOM_CHAM = 'REAC_NODA',
                     NOEUD_CMP = ( 'COMBI',  'QUAD', ),
                     NOEUD = 'A',     NOM_CMP = 'DZ',    VALE =39162.572803515 ),
                   _F(  RESULTAT = SISM_SP3,  NOM_CHAM = 'REAC_NODA',
                     NOEUD_CMP = ( 'COMBI',  'QUAD', ),
                     NOEUD = 'A',     NOM_CMP = 'DRY',    VALE = 2.6191880163205E+05),
                   _F(  RESULTAT = SISM_SP3,  NOM_CHAM = 'REAC_NODA',
                     NOEUD_CMP = ( 'COMBI',  'QUAD', ),
                     NOEUD = 'A',     NOM_CMP = 'DRZ',    VALE = 5.6297469517745E+05))
                   )
#
TEST_RESU(RESU=(_F( RESULTAT= SISM_SP3 , NOM_CHAM= 'SIPO_ELNO',
                   NOEUD_CMP= ( 'COMBI' , 'QUAD', ),
                   MAILLE = 'E01',
                   NOEUD= 'A'    , NOM_CMP= 'SMFY'   , VALE=  4.6117462564375E+09),
                _F( RESULTAT= SISM_SP3 , NOM_CHAM= 'SIPO_ELNO',
                   NOEUD_CMP= ( 'COMBI' , 'QUAD', ),
                   MAILLE = 'E01',
                   NOEUD= 'A'    , NOM_CMP= 'SMFZ'   , VALE=   2.9794825166173E+10),
                 _F( RESULTAT= SISM_SP3 , NOM_CHAM= 'SIPO_ELNO',
                   NOEUD_CMP= ( 'COMBI' , 'QUAD', ),
                   MAILLE = 'E01',
                   NOEUD= 'A'    , NOM_CMP= 'SVY'   , VALE= 1.9063128148933E+08),
                 _F( RESULTAT= SISM_SP3 , NOM_CHAM= 'SIPO_ELNO',
                   NOEUD_CMP= ( 'COMBI' , 'QUAD', ),
                   MAILLE = 'E01',
                   NOEUD= 'A'    , NOM_CMP= 'SVZ'   , VALE=  4.1786782760899E+06)),
                 )
#

#

SISM_SP6=COMB_SISM_MODAL(  MODE_MECA=MODE_MEC,
                           AMOR_REDUIT=0.01,
                           MASS_INER=TABL_MAS,
                           CORR_FREQ='NON',
                           MONO_APPUI = 'OUI',
                           EXCIT=_F(  TRI_AXE = ( 1.,  1.,  1., ),
                                      SPEC_OSCI = SPECT),
                           COMB_MODE=_F(  TYPE = 'DPC'),
                           COMB_DIRECTION=_F(  TYPE = 'QUAD'),
                           OPTION=( 'DEPL',  'REAC_NODA',
                                         'VITE',  'ACCE_ABSOLU', )
                            )

TEST_RESU(RESU=( _F(  RESULTAT = SISM_SP6,  NOM_CHAM = 'DEPL',
                     NOEUD_CMP = ( 'COMBI',  'QUAD', ),
                     NOEUD = 'B',     NOM_CMP = 'DX',    VALE = 1.3336076981359E-04),
                   _F(  RESULTAT = SISM_SP6,  NOM_CHAM = 'DEPL',
                     NOEUD_CMP = ( 'COMBI',  'QUAD', ),
                     NOEUD = 'C',     NOM_CMP = 'DX',    VALE = 6.0220836855299E-04),
                   _F(  RESULTAT = SISM_SP6,  NOM_CHAM = 'DEPL',
                     NOEUD_CMP = ( 'COMBI',  'QUAD', ),
                     NOEUD = 'B',     NOM_CMP = 'DY',    VALE = 0.013629557646925),
                   _F(  RESULTAT = SISM_SP6,  NOM_CHAM = 'DEPL',
                     NOEUD_CMP = ( 'COMBI',  'QUAD', ),
                     NOEUD = 'C',     NOM_CMP = 'DY',    VALE = 1.2823319955938),
                   _F(  RESULTAT = SISM_SP6,  NOM_CHAM = 'DEPL',
                     NOEUD_CMP = ( 'COMBI',  'QUAD', ),
                     NOEUD = 'B',     NOM_CMP = 'DZ',    VALE = 4.7444232405363E-03),
                   _F(  RESULTAT = SISM_SP6,  NOM_CHAM = 'DEPL',
                     NOEUD_CMP = ( 'COMBI',  'QUAD', ),
                     NOEUD = 'C',     NOM_CMP = 'DZ',    VALE = 0.76782574358185))
                     )

#

TEST_RESU(RESU=( _F(  RESULTAT = SISM_SP6,  NOM_CHAM = 'REAC_NODA',
                     NOEUD_CMP = ( 'COMBI',  'QUAD', ),
                     NOEUD = 'A',     NOM_CMP = 'DX',    VALE = 4.1661904489765E+05),
                   _F(  RESULTAT = SISM_SP6,  NOM_CHAM = 'REAC_NODA',
                     NOEUD_CMP = ( 'COMBI',  'QUAD', ),
                     NOEUD = 'A',     NOM_CMP = 'DY',    VALE = 1.786596370118E+06),
                   _F(  RESULTAT = SISM_SP6,  NOM_CHAM = 'REAC_NODA',
                     NOEUD_CMP = ( 'COMBI',  'QUAD', ),
                     NOEUD = 'A',     NOM_CMP = 'DZ',    VALE = 1.2782936753791E+06),
                   _F(  RESULTAT = SISM_SP6,  NOM_CHAM = 'REAC_NODA',
                     NOEUD_CMP = ( 'COMBI',  'QUAD', ),
                     NOEUD = 'A',     NOM_CMP = 'DRY',   VALE = 4.6741049214649E+05),
                   _F(  RESULTAT = SISM_SP6,  NOM_CHAM = 'REAC_NODA',
                     NOEUD_CMP = ( 'COMBI',  'QUAD', ),
                     NOEUD = 'A',     NOM_CMP = 'DRZ',   VALE = 5.6297469517745E+05))
                   )

SISM_3ST=COMB_SISM_MODAL(  MODE_MECA=MODE_MEC,
                           NUME_MODE=( 1,  2,  3, ),
                           MODE_CORR=MODE_STA,
                           AMOR_REDUIT=0.01,
                           MASS_INER=TABL_MAS,
                           CORR_FREQ='NON',
                           MONO_APPUI = 'OUI',
                           EXCIT=_F(  TRI_AXE = ( 1.,  1.,  1., ),
                                      SPEC_OSCI = SPECT),
                           COMB_MODE=_F(  TYPE = 'SRSS'),
                           COMB_DIRECTION=_F(  TYPE = 'QUAD'),
                           OPTION=( 'DEPL',  'REAC_NODA', )
                            )

TEST_RESU(RESU=( _F(  RESULTAT = SISM_3ST,  NOM_CHAM = 'DEPL',
                     NOEUD_CMP = ( 'COMBI',  'QUAD', ),
                     NOEUD = 'B',     NOM_CMP = 'DX',    VALE = 4.4014084507042E-04),
                   _F(  RESULTAT = SISM_3ST,  NOM_CHAM = 'DEPL',
                     NOEUD_CMP = ( 'COMBI',  'QUAD', ),
                     NOEUD = 'C',     NOM_CMP = 'DX',    VALE = 1.2003841229193E-03),
                   _F(  RESULTAT = SISM_3ST,  NOM_CHAM = 'DEPL',
                     NOEUD_CMP = ( 'COMBI',  'QUAD', ),
                     NOEUD = 'B',     NOM_CMP = 'DY',    VALE = 0.013629557646925),
                   _F(  RESULTAT = SISM_3ST,  NOM_CHAM = 'DEPL',
                     NOEUD_CMP = ( 'COMBI',  'QUAD', ),
                     NOEUD = 'C',     NOM_CMP = 'DY',    VALE = 1.2823319955938),
                   _F(  RESULTAT = SISM_3ST,  NOM_CHAM = 'DEPL',
                     NOEUD_CMP = ( 'COMBI',  'QUAD', ),
                     NOEUD = 'B',     NOM_CMP = 'DZ',    VALE = 6.0159947697715E-03),
                   _F(  RESULTAT = SISM_3ST,  NOM_CHAM = 'DEPL',
                     NOEUD_CMP = ( 'COMBI',  'QUAD', ),
                     NOEUD = 'C',     NOM_CMP = 'DZ',    VALE = 0.76782575594170))
                   )

#

TEST_RESU(RESU=( _F(  RESULTAT = SISM_3ST,  NOM_CHAM = 'REAC_NODA',
                     CRITERE = 'RELATIF',  PRECISION = 0.02,
                     NOEUD_CMP = ( 'COMBI',  'QUAD', ),
                     NOEUD = 'A',     NOM_CMP = 'DX',    VALE = 1.375E+06),
                   _F(  RESULTAT = SISM_3ST,  NOM_CHAM = 'REAC_NODA',
                     CRITERE = 'RELATIF',  PRECISION = 0.02,
                     NOEUD_CMP = ( 'COMBI',  'QUAD', ),
                     NOEUD = 'A',     NOM_CMP = 'DY',    VALE = 1.786596370118E+06),
                   _F(  RESULTAT = SISM_3ST,  NOM_CHAM = 'REAC_NODA',
                     CRITERE = 'RELATIF',  PRECISION = 0.02,
                     NOEUD_CMP = ( 'COMBI',  'QUAD', ),
                     NOEUD = 'A',     NOM_CMP = 'DZ',    VALE = 1.7867981938393E+06),
                   _F(  RESULTAT = SISM_3ST,  NOM_CHAM = 'REAC_NODA',
                     CRITERE = 'RELATIF',  PRECISION = 0.02,
                     NOEUD_CMP = ( 'COMBI',  'QUAD', ),
                     NOEUD = 'A',     NOM_CMP = 'DRY',   VALE = 6.0129894713356E+05),
                   _F(  RESULTAT = SISM_3ST,  NOM_CHAM = 'REAC_NODA',
                     CRITERE = 'RELATIF',  PRECISION = 0.02,
                     NOEUD_CMP = ( 'COMBI',  'QUAD', ),
                     NOEUD = 'A',     NOM_CMP = 'DRZ',   VALE = 5.6297469517745E+05))
                   )

# ----------------------------------------------------------------------
#                  COMBINAISON CQC
# ----------------------------------------------------------------------

SISM_CQC=COMB_SISM_MODAL(  MODE_MECA=MODE_MEC,
                           AMOR_REDUIT=0.01,
                           MASS_INER=TABL_MAS,
                           CORR_FREQ='NON',
                           MONO_APPUI = 'OUI',
                           EXCIT=_F(  TRI_AXE = ( 1.,  1.,  1., ),
                                      SPEC_OSCI = SPECT),
                           COMB_MODE=_F(  TYPE = 'CQC'),
                           COMB_DIRECTION=_F(  TYPE = 'QUAD'),
                           OPTION=( 'DEPL',  'REAC_NODA', )
                            )

TEST_RESU(RESU=( _F(  RESULTAT = SISM_CQC,  NOM_CHAM = 'DEPL',
                     NOEUD_CMP = ( 'COMBI',  'QUAD', ),
                     NOEUD = 'B',     NOM_CMP = 'DX',    VALE = 1.3347037350315E-04),
                   _F(  RESULTAT = SISM_CQC,  NOM_CHAM = 'DEPL',
                     NOEUD_CMP = ( 'COMBI',  'QUAD', ),
                     NOEUD = 'C',     NOM_CMP = 'DX',    VALE = 6.0196549932473E-04),
                   _F(  RESULTAT = SISM_CQC,  NOM_CHAM = 'DEPL',
                     NOEUD_CMP = ( 'COMBI',  'QUAD', ),
                     NOEUD = 'B',     NOM_CMP = 'DY',    VALE = 0.013629581953265),
                   _F(  RESULTAT = SISM_CQC,  NOM_CHAM = 'DEPL',
                     NOEUD_CMP = ( 'COMBI',  'QUAD', ),
                     NOEUD = 'C',     NOM_CMP = 'DY',    VALE = 1.2823319930104),
                   _F(  RESULTAT = SISM_CQC,  NOM_CHAM = 'DEPL',
                     NOEUD_CMP = ( 'COMBI',  'QUAD', ),
                     NOEUD = 'B',     NOM_CMP = 'DZ',    VALE = 4.7444373736942E-03),
                   _F(  RESULTAT = SISM_CQC,  NOM_CHAM = 'DEPL',
                     NOEUD_CMP = ( 'COMBI',  'QUAD', ),
                     NOEUD = 'C',     NOM_CMP = 'DZ',    VALE = 0.76782574270855))
                     )

#

TEST_RESU(RESU=( _F(  RESULTAT = SISM_CQC,  NOM_CHAM = 'REAC_NODA',
                     NOEUD_CMP = ( 'COMBI',  'QUAD', ),
                     NOEUD = 'A',     NOM_CMP = 'DX',   VALE = 4.1696144682385E+05),
                   _F(  RESULTAT = SISM_CQC,  NOM_CHAM = 'REAC_NODA',
                     NOEUD_CMP = ( 'COMBI',  'QUAD', ),
                     NOEUD = 'A',     NOM_CMP = 'DY',   VALE = 1.7865964957309E+06),
                   _F(  RESULTAT = SISM_CQC,  NOM_CHAM = 'REAC_NODA',
                     NOEUD_CMP = ( 'COMBI',  'QUAD', ),
                     NOEUD = 'A',     NOM_CMP = 'DZ',   VALE = 1.2782939178264E+06),
                   _F(  RESULTAT = SISM_CQC,  NOM_CHAM = 'REAC_NODA',
                     NOEUD_CMP = ( 'COMBI',  'QUAD', ),
                     NOEUD = 'A',     NOM_CMP = 'DRY',  VALE = 4.6741183576697E+05),
                   _F(  RESULTAT = SISM_CQC,  NOM_CHAM = 'REAC_NODA',
                     NOEUD_CMP = ( 'COMBI',  'QUAD', ),
                     NOEUD = 'A',     NOM_CMP = 'DRZ',  VALE = 5.629755035049E+05))
                   )

# ----------------------------------------------------------------------
#                  COMBINAISON DSC
# ----------------------------------------------------------------------

SISM_DPC=COMB_SISM_MODAL(  MODE_MECA=MODE_MEC,
                           AMOR_REDUIT=0.01,
                           MASS_INER=TABL_MAS,
                           CORR_FREQ='NON',
                           MONO_APPUI = 'OUI',
                           EXCIT=_F(  TRI_AXE = ( 1.,  1.,  1., ),
                                      SPEC_OSCI = SPECT),
                           COMB_MODE=_F(  TYPE = 'DSC',
                                       DUREE = 5.),
                           COMB_DIRECTION=_F(  TYPE = 'QUAD'),
                           OPTION=( 'DEPL',  'REAC_NODA', )
                            )

TEST_RESU(RESU=( _F(  RESULTAT = SISM_DPC,  NOM_CHAM = 'DEPL',
                     NOEUD_CMP = ( 'COMBI',  'QUAD', ),
                     NOEUD = 'B',     NOM_CMP = 'DX',    VALE = 1.3352446950636E-04),
                   _F(  RESULTAT = SISM_DPC,  NOM_CHAM = 'DEPL',
                     NOEUD_CMP = ( 'COMBI',  'QUAD', ),
                     NOEUD = 'C',     NOM_CMP = 'DX',    VALE = 6.0184551908145E-04),
                   _F(  RESULTAT = SISM_DPC,  NOM_CHAM = 'DEPL',
                     NOEUD_CMP = ( 'COMBI',  'QUAD', ),
                     NOEUD = 'B',     NOM_CMP = 'DY',    VALE = 0.013633420210604),
                   _F(  RESULTAT = SISM_DPC,  NOM_CHAM = 'DEPL',
                     NOEUD_CMP = ( 'COMBI',  'QUAD', ),
                     NOEUD = 'C',     NOM_CMP = 'DY',    VALE = 1.2823315849942),
                   _F(  RESULTAT = SISM_DPC,  NOM_CHAM = 'DEPL',
                     NOEUD_CMP = ( 'COMBI',  'QUAD', ),
                     NOEUD = 'B',     NOM_CMP = 'DZ',    VALE = 4.7456199055417E-03),
                   _F(  RESULTAT = SISM_DPC,  NOM_CHAM = 'DEPL',
                     NOEUD_CMP = ( 'COMBI',  'QUAD', ),
                     NOEUD = 'C',     NOM_CMP = 'DZ',    VALE = 0.76782566963015))
                    )

#

TEST_RESU(RESU=( _F(  RESULTAT = SISM_DPC,  NOM_CHAM = 'REAC_NODA',
                     NOEUD_CMP = ( 'COMBI',  'QUAD', ),
                     NOEUD = 'A',     NOM_CMP = 'DX',   VALE = 4.1713044273788E+05),
                   _F(  RESULTAT = SISM_DPC,  NOM_CHAM = 'REAC_NODA',
                     NOEUD_CMP = ( 'COMBI',  'QUAD', ),
                     NOEUD = 'A',     NOM_CMP = 'DY',   VALE = 1.7866163341938E+06),
                   _F(  RESULTAT = SISM_DPC,  NOM_CHAM = 'REAC_NODA',
                     NOEUD_CMP = ( 'COMBI',  'QUAD', ),
                     NOEUD = 'A',     NOM_CMP = 'DZ',   VALE = 1.2783142059665E+06),
                   _F(  RESULTAT = SISM_DPC,  NOM_CHAM = 'REAC_NODA',
                     NOEUD_CMP = ( 'COMBI',  'QUAD', ),
                     NOEUD = 'A',     NOM_CMP = 'DRY',  VALE = 4.6752425798924E+05),
                   _F(  RESULTAT = SISM_DPC,  NOM_CHAM = 'REAC_NODA',
                     NOEUD_CMP = ( 'COMBI',  'QUAD', ),
                     NOEUD = 'A',     NOM_CMP = 'DRZ',  VALE = 5.6310315145429E+05))
                   )

FIN( )
#
