
# TITRE  :  REPONSE DYNAMIQUE D UNE POUTRE-TUYAU ENCASTREE LIBRE
# ======================================================================
# COPYRIGHT (C) 1991 - 2012  EDF R&D                  WWW.CODE-ASTER.ORG
# THIS PROGRAM IS FREE SOFTWARE; YOU CAN REDISTRIBUTE IT AND/OR MODIFY
# IT UNDER THE TERMS OF THE GNU GENERAL PUBLIC LICENSE AS PUBLISHED BY
# THE FREE SOFTWARE FOUNDATION; EITHER VERSION 2 OF THE LICENSE, OR
# (AT YOUR OPTION) ANY LATER VERSION.
#
# THIS PROGRAM IS DISTRIBUTED IN THE HOPE THAT IT WILL BE USEFUL, BUT
# WITHOUT ANY WARRANTY; WITHOUT EVEN THE IMPLIED WARRANTY OF
# MERCHANTABILITY OR FITNESS FOR A PARTICULAR PURPOSE. SEE THE GNU
# GENERAL PUBLIC LICENSE FOR MORE DETAILS.
#
# YOU SHOULD HAVE RECEIVED A COPY OF THE GNU GENERAL PUBLIC LICENSE
# ALONG WITH THIS PROGRAM; IF NOT, WRITE TO EDF R&D CODE_ASTER,
#    1 AVENUE DU GENERAL DE GAULLE, 92141 CLAMART CEDEX, FRANCE.
# ======================================================================
# MODELISATION POU_D_T

DEBUT(CODE=_F(NOM='SDLL135B',
NIV_PUB_WEB='INTERNET',),DEBUG=_F(SDVERI='NON'))
# SDVERI='NON' car la verification est trop couteuse en CPU

MAIL=LIRE_MAILLAGE(FORMAT='MED',);

MODELE=AFFE_MODELE(MAILLAGE=MAIL,
                   AFFE=_F(TOUT='OUI',
                           PHENOMENE='MECANIQUE',
                           MODELISATION='POU_D_T',),);

ACIER=DEFI_MATERIAU(ELAS=_F(E=200000E6,
                            NU=0.29,
                            RHO=7830.0,),);

CHMAT=AFFE_MATERIAU(MAILLAGE=MAIL,
                    AFFE=_F(TOUT='OUI',
                            MATER=ACIER,),);

CARAC=AFFE_CARA_ELEM(MODELE=MODELE,
                     POUTRE=_F(GROUP_MA='TOUT',
                               SECTION='CERCLE',
                               CARA=('R','EP',),
                               VALE=(0.16,0.01,),),);

LISTE=DEFI_LIST_REEL(DEBUT=0.0,
                     INTERVALLE=_F(JUSQU_A=2.E-4,
                                   PAS=1e-07,),);

LISTE2=DEFI_LIST_REEL(DEBUT=0.0,
                      INTERVALLE=_F(JUSQU_A=3.2E-4,
                                    PAS=1e-07,),);

CL=AFFE_CHAR_MECA(MODELE=MODELE,
                  DDL_IMPO=_F(GROUP_NO='A',
                              DX=0.0,
                              DY=0.0,
                              DZ=0.0,
                              DRX=0.0,
                              DRY=0.0,
                              DRZ=0.0,),);

# CHARGEMENT SOUS LA FORME D UNE FORCE ( OU D UN MOMENT ) DE TYPE HEAVYSIDE

CHARFX=AFFE_CHAR_MECA(MODELE=MODELE,
                      FORCE_NODALE=_F(GROUP_NO='B',
                                      FX=1.0,),);

CHARMX=AFFE_CHAR_MECA(MODELE=MODELE,
                      FORCE_NODALE=_F(GROUP_NO='B',
                                      MX=1.0,),);

ASSEMBLAGE(MODELE=MODELE,
                CHAM_MATER=CHMAT,
                CARA_ELEM=CARAC,
                CHARGE=CL,
                NUME_DDL=CO('NUMEDDL'),
                MATR_ASSE=(_F(MATRICE=CO('MASSE'),
                              OPTION='MASS_MECA',),
                           _F(MATRICE=CO('RIGID'),
                              OPTION='RIGI_MECA',),),);

# LISTE DISCRETISE TRES FINEMENT POUR RESPECTER
# LE RAPPORT TAILLE DE MAILLE VITESSE DE L ONDE DE COMPRESSION

DYNATRAF=DYNA_VIBRA(TYPE_CALCUL='TRAN',BASE_CALCUL='PHYS',
                        MODELE=MODELE,
                        CHAM_MATER=CHMAT,
                        CARA_ELEM=CARAC,
                        MATR_MASS=MASSE,
                        MATR_RIGI=RIGID,
                        SCHEMA_TEMPS=_F(SCHEMA='NEWMARK',),
                        EXCIT=(_F(CHARGE=CHARFX,),
                               _F(CHARGE=CL,),),
                        INCREMENT=_F(LIST_INST=LISTE,),
                        ARCHIVAGE=_F(PAS_ARCH=100,),);

DYNATRAF=CALC_CHAMP(reuse=DYNATRAF,RESULTAT=DYNATRAF,CONTRAINTE=('SIEF_ELGA','SIEF_ELNO'))


DYNATRAF=CALC_CHAMP(reuse =DYNATRAF,
                    RESULTAT=DYNATRAF,
                    FORCE='REAC_NODA',
                    MODELE=MODELE,
                    CHAM_MATER=CHMAT,
                    CARA_ELEM=CARAC,
                    EXCIT=(_F(CHARGE=CHARFX,),
                           _F(CHARGE=CL,),),);

# TEST DU CHAMP DE DEPLACEMENT SUR LE NOEUD EXTREMITE

TEST_RESU(RESU=_F(NUME_ORDRE=10,
                  GROUP_NO='B',
                  REFERENCE='ANALYTIQUE',
                  RESULTAT=DYNATRAF,
                  NOM_CHAM='DEPL',
                  NOM_CMP='DX',
                  VALE_CALC= 2.59345308E-10,
                  VALE_REFE=2.5947322792500001E-10,),
          )

TEST_RESU(RESU=_F(NUME_ORDRE=15,
                  GROUP_NO='B',
                  REFERENCE='ANALYTIQUE',
                  RESULTAT=DYNATRAF,
                  NOM_CHAM='DEPL',
                  NOM_CMP='DX',
                  VALE_CALC= 3.89078070E-10,
                  VALE_REFE=3.8920984188699999E-10,),
          )

TEST_RESU(RESU=_F(NUME_ORDRE=20,
                  GROUP_NO='B',
                  REFERENCE='ANALYTIQUE',
                  RESULTAT=DYNATRAF,
                  NOM_CHAM='DEPL',
                  NOM_CMP='DX',
                  VALE_CALC= 5.18818706E-10,
                  VALE_REFE=5.18946455848E-10,),
          )

# TEST SUR LES REACTIONS NODALES

TEST_RESU(RESU=_F(NUME_ORDRE=10,
                  GROUP_NO='A',
                  REFERENCE='ANALYTIQUE',
                  RESULTAT=DYNATRAF,
                  NOM_CHAM='REAC_NODA',
                  NOM_CMP='DX',
                  VALE_CALC=-8.45037407E-192,
                  VALE_REFE=0.0,
                  CRITERE='ABSOLU',),
          )

TEST_RESU(RESU=_F(NUME_ORDRE=10,
                  GROUP_NO='B',
                  REFERENCE='ANALYTIQUE',
                  RESULTAT=DYNATRAF,
                  NOM_CHAM='REAC_NODA',
                  NOM_CMP='DX',
                  VALE_CALC= 7.45277104E-13,
                  VALE_REFE=0.0,
                  CRITERE='ABSOLU',),
          )

TEST_RESU(RESU=_F(NUME_ORDRE=15,
                  GROUP_NO='A',
                  REFERENCE='ANALYTIQUE',
                  RESULTAT=DYNATRAF,
                  NOM_CHAM='REAC_NODA',
                  NOM_CMP='DX',
                  VALE_CALC= 1.18304926E-49,
                  VALE_REFE=0.0,
                  CRITERE='ABSOLU',),
          )

TEST_RESU(RESU=_F(NUME_ORDRE=20,
                  GROUP_NO='A',
                  REFERENCE='ANALYTIQUE',
                  RESULTAT=DYNATRAF,
                  NOM_CHAM='REAC_NODA',
                  NOM_CMP='DX',
                  VALE_CALC=-1.976284880,
                  VALE_REFE=-1.9999981906199999,
                  PRECISION=0.050000000000000003,),
          )

TEST_RESU(RESU=_F(NUME_ORDRE=20,
                  GROUP_NO='B',
                  REFERENCE='ANALYTIQUE',
                  RESULTAT=DYNATRAF,
                  NOM_CHAM='REAC_NODA',
                  NOM_CMP='DX',
                  VALE_CALC=-3.21440791E-13,
                  VALE_REFE=0.0,
                  CRITERE='ABSOLU',),
          )

# RECHERCHE DES MODES PROPRES DE TRACTIONS/COMPRESSIONS

MODE_DX=MODE_ITER_INV(MATR_RIGI=RIGID,
                      MATR_MASS=MASSE,
                      CALC_FREQ=_F(
                      OPTION='PROCHE',
                      FREQ=(1263.497,3790.49,6317.484,8844.4477,11371.473,),),);

TEST_RESU(RESU=_F(NUME_ORDRE=1,
                  PARA='FREQ',
                  REFERENCE='ANALYTIQUE',
                  RESULTAT=MODE_DX,
                  VALE_CALC= 1.26349687E+03,
                  VALE_REFE=1263.4970000000001,
                  CRITERE='RELATIF',),
          )

TEST_RESU(RESU=_F(NUME_ORDRE=2,
                  PARA='FREQ',
                  REFERENCE='ANALYTIQUE',
                  RESULTAT=MODE_DX,
                  VALE_CALC= 3.79049373E+03,
                  VALE_REFE=3790.4899999999998,
                  CRITERE='RELATIF',),
          )

TEST_RESU(RESU=_F(NUME_ORDRE=3,
                  PARA='FREQ',
                  REFERENCE='ANALYTIQUE',
                  RESULTAT=MODE_DX,
                  VALE_CALC= 6.31749993E+03,
                  VALE_REFE=6317.4840000000004,
                  CRITERE='RELATIF',),
          )

TEST_RESU(RESU=_F(NUME_ORDRE=4,
                  PARA='FREQ',
                  REFERENCE='ANALYTIQUE',
                  RESULTAT=MODE_DX,
                  VALE_CALC= 8.84452173E+03,
                  VALE_REFE=8844.4477000000006,
                  CRITERE='RELATIF',),
          )

TEST_RESU(RESU=_F(NUME_ORDRE=5,
                  PARA='FREQ',
                  REFERENCE='ANALYTIQUE',
                  RESULTAT=MODE_DX,
                  VALE_CALC= 1.13715653E+04,
                  VALE_REFE=1.1371473E4,
                  CRITERE='RELATIF',),
          )

# RECHERCHE DES MODES PROPRES DE FLEXION

MODE_FZ=MODE_ITER_INV(MATR_RIGI=RIGID,
                      MATR_MASS=MASSE,
                      CALC_FREQ=_F(
                      OPTION='PROCHE',
                      FREQ=(269.932,1077.199,2270.705,3249.207,4649.212,),),);

# REMARQUE : LA COMPARAISON DES VALEURS DES FREQUENCES PAR RAPPORT
# AUX VALEURS ANALYTIQUES SONT PLUS DEFAVORABLES QUE DANS LES AUTRES CAS
# LA RAISON EST LA VALEUR DU COEFFICIENT DE SECTION REDUITE DIFFERENT ENRE LA
# FORMULE ANALYTIQUE CHOISIE ET CODE_ASTER

TEST_RESU(RESU=_F(NUME_ORDRE=1,
                  PARA='FREQ',
                  REFERENCE='ANALYTIQUE',
                  RESULTAT=MODE_FZ,
                  VALE_CALC=268.318129593,
                  VALE_REFE=269.93200000000002,
                  CRITERE='RELATIF',
                  PRECISION=1.E-2,),
          )

TEST_RESU(RESU=_F(NUME_ORDRE=2,
                  PARA='FREQ',
                  REFERENCE='ANALYTIQUE',
                  RESULTAT=MODE_FZ,
                  VALE_CALC= 1.05990101E+03,
                  VALE_REFE=1077.1990000000001,
                  CRITERE='RELATIF',
                  PRECISION=0.02,),
          )

TEST_RESU(RESU=_F(NUME_ORDRE=3,
                  PARA='FREQ',
                  REFERENCE='ANALYTIQUE',
                  RESULTAT=MODE_FZ,
                  VALE_CALC= 2.22816286E+03,
                  VALE_REFE=2270.7049999999999,
                  CRITERE='RELATIF',
                  PRECISION=0.02,),
          )

TEST_RESU(RESU=_F(NUME_ORDRE=4,
                  PARA='FREQ',
                  REFERENCE='ANALYTIQUE',
                  RESULTAT=MODE_FZ,
                  VALE_CALC= 3.17576203E+03,
                  VALE_REFE=3249.2069999999999,
                  CRITERE='RELATIF',
                  PRECISION=0.029999999999999999,),
          )

TEST_RESU(RESU=_F(NUME_ORDRE=5,
                  PARA='FREQ',
                  REFERENCE='ANALYTIQUE',
                  RESULTAT=MODE_FZ,
                  VALE_CALC= 4.55762294E+03,
                  VALE_REFE=4649.2120000000004,
                  CRITERE='RELATIF',
                  PRECISION=0.029999999999999999,),
          )

# RECHERCHE DES MODES PROPRES DE TORSION

MODE_DRX=MODE_ITER_INV(MATR_RIGI=RIGID,
                       MATR_MASS=MASSE,
                       CALC_FREQ=_F(
                       OPTION='PROCHE',
                       FREQ=(786.619,2359.856,3933.094,5506.33,),),);

TEST_RESU(RESU=_F(NUME_ORDRE=1,
                  PARA='FREQ',
                  REFERENCE='ANALYTIQUE',
                  RESULTAT=MODE_DRX,
                  VALE_CALC=786.618791723,
                  VALE_REFE=786.61900000000003,
                  CRITERE='RELATIF',),
          )

TEST_RESU(RESU=_F(NUME_ORDRE=2,
                  PARA='FREQ',
                  REFERENCE='ANALYTIQUE',
                  RESULTAT=MODE_DRX,
                  VALE_CALC= 2.35985832E+03,
                  VALE_REFE=2359.8560000000002,
                  CRITERE='RELATIF',),
          )

TEST_RESU(RESU=_F(NUME_ORDRE=3,
                  PARA='FREQ',
                  REFERENCE='ANALYTIQUE',
                  RESULTAT=MODE_DRX,
                  VALE_CALC= 3.93310366E+03,
                  VALE_REFE=3933.0940000000001,
                  CRITERE='RELATIF',),
          )

TEST_RESU(RESU=_F(NUME_ORDRE=4,
                  PARA='FREQ',
                  REFERENCE='ANALYTIQUE',
                  RESULTAT=MODE_DRX,
                  VALE_CALC= 5.50635871E+03,
                  VALE_REFE=5506.3299999999999,
                  CRITERE='RELATIF',),
          )

# CHARGEMENT DE TYPE TORSION : LA LISTE D INSTANT EST DIFFERENTE CAR
# LA VITESSE DE L ONDE DE TORSION EST INFERIEURE A CELLE DE TRACTION
# D OU UN TEMPS SUPERIEUR POUR ATTEINDRE LE BOUT DE LA POUTRE

DYNATRAM=DYNA_VIBRA(TYPE_CALCUL='TRAN',BASE_CALCUL='PHYS',
                        MODELE=MODELE,
                        CHAM_MATER=CHMAT,
                        CARA_ELEM=CARAC,
                        MATR_MASS=MASSE,
                        MATR_RIGI=RIGID,
                        SCHEMA_TEMPS=_F(SCHEMA='NEWMARK',),
                        EXCIT=(_F(CHARGE=CHARMX,),
                               _F(CHARGE=CL,),),
                        INCREMENT=_F(LIST_INST=LISTE2,),
                        ARCHIVAGE=_F(PAS_ARCH=100,),);

DYNATRAM=CALC_CHAMP(reuse=DYNATRAM,RESULTAT=DYNATRAM,CONTRAINTE=('SIEF_ELGA','SIEF_ELNO'))


DYNATRAM=CALC_CHAMP(reuse =DYNATRAM,
                    RESULTAT=DYNATRAM,
                    FORCE='REAC_NODA',
                    MODELE=MODELE,
                    CHAM_MATER=CHMAT,
                    CARA_ELEM=CARAC,
                    EXCIT=(_F(CHARGE=CHARMX,),
                           _F(CHARGE=CL,),),);

# TEST SUR LES DEPLACEMENTS

TEST_RESU(RESU=_F(NUME_ORDRE=5,
                  GROUP_NO='B',
                  REFERENCE='ANALYTIQUE',
                  RESULTAT=DYNATRAM,
                  NOM_CHAM='DEPL',
                  NOM_CMP='DRX',
                  VALE_CALC= 8.65597957E-09,
                  VALE_REFE=8.6647758246099995E-09,
                  PRECISION=1.5E-3,),
          )

TEST_RESU(RESU=_F(NUME_ORDRE=10,
                  GROUP_NO='B',
                  REFERENCE='ANALYTIQUE',
                  RESULTAT=DYNATRAM,
                  NOM_CHAM='DEPL',
                  NOM_CMP='DRX',
                  VALE_CALC= 1.73211547E-08,
                  VALE_REFE=1.7329591652600001E-08,),
          )

TEST_RESU(RESU=_F(NUME_ORDRE=20,
                  GROUP_NO='B',
                  REFERENCE='ANALYTIQUE',
                  RESULTAT=DYNATRAM,
                  NOM_CHAM='DEPL',
                  NOM_CMP='DRX',
                  VALE_CALC= 3.46507014E-08,
                  VALE_REFE=3.4659103307500001E-08,),
          )

# TEST SUR LES REACTIONS NODALES

TEST_RESU(RESU=_F(NUME_ORDRE=10,
                  GROUP_NO='A',
                  REFERENCE='ANALYTIQUE',
                  RESULTAT=DYNATRAM,
                  NOM_CHAM='REAC_NODA',
                  NOM_CMP='DRX',
                  VALE_CALC=-2.93279703E-242,
                  VALE_REFE=0.0,
                  CRITERE='ABSOLU',),
          )

TEST_RESU(RESU=_F(NUME_ORDRE=10,
                  GROUP_NO='B',
                  REFERENCE='ANALYTIQUE',
                  RESULTAT=DYNATRAM,
                  NOM_CHAM='REAC_NODA',
                  NOM_CMP='DRX',
                  VALE_CALC= 3.72242168E-13,
                  VALE_REFE=0.0,
                  CRITERE='ABSOLU',),
          )

TEST_RESU(RESU=_F(NUME_ORDRE=15,
                  GROUP_NO='A',
                  REFERENCE='ANALYTIQUE',
                  RESULTAT=DYNATRAM,
                  NOM_CHAM='REAC_NODA',
                  NOM_CMP='DRX',
                  VALE_CALC=2.36489832E-133,
                  VALE_REFE=0.0,
                  CRITERE='ABSOLU',),
          )

TEST_RESU(RESU=_F(NUME_ORDRE=20,
                  GROUP_NO='A',
                  REFERENCE='ANALYTIQUE',
                  RESULTAT=DYNATRAM,
                  NOM_CHAM='REAC_NODA',
                  NOM_CMP='DRX',
                  VALE_CALC=-6.10030583E-52,
                  VALE_REFE=0.0,
                  CRITERE='ABSOLU',
                  PRECISION=1.E-08,),
          )

TEST_RESU(RESU=_F(NUME_ORDRE=32,
                  GROUP_NO='A',
                  REFERENCE='ANALYTIQUE',
                  RESULTAT=DYNATRAM,
                  NOM_CHAM='REAC_NODA',
                  NOM_CMP='DRX',
                  VALE_CALC=-1.903014564,
                  VALE_REFE=-2.0000000142399998,
                  PRECISION=0.050000000000000003,),
          )

TEST_RESU(RESU=_F(NUME_ORDRE=32,
                  GROUP_NO='B',
                  REFERENCE='ANALYTIQUE',
                  RESULTAT=DYNATRAM,
                  NOM_CHAM='REAC_NODA',
                  NOM_CMP='DRX',
                  VALE_CALC= 4.39645629E-12,
                  VALE_REFE=0.0,
                  CRITERE='ABSOLU',
                  PRECISION=1.E-08,),
          )

FIN();
