# MODIF  DATE 28/01/2010   AUTEUR BODEL C.BODEL 
# TITRE MODIFICATION STRUCTURALE D UNE POUTRE AVEC AMORTISSEMENT (LMME)
# sdll137d.para = tps_job 60 mem_job 256Mo mem_aster 40 ncpus 1 liste_test S
#            CONFIGURATION MANAGEMENT OF EDF VERSION
# ======================================================================
# COPYRIGHT (C) 1991 - 2008  EDF R&D                  WWW.CODE-ASTER.ORG
# THIS PROGRAM IS FREE SOFTWARE; YOU CAN REDISTRIBUTE IT AND/OR MODIFY  
# IT UNDER THE TERMS OF THE GNU GENERAL PUBLIC LICENSE AS PUBLISHED BY  
# THE FREE SOFTWARE FOUNDATION; EITHER VERSION 2 OF THE LICENSE, OR     
# (AT YOUR OPTION) ANY LATER VERSION.                                                    
#                                                                       
# THIS PROGRAM IS DISTRIBUTED IN THE HOPE THAT IT WILL BE USEFUL, BUT   
# WITHOUT ANY WARRANTY; WITHOUT EVEN THE IMPLIED WARRANTY OF            
# MERCHANTABILITY OR FITNESS FOR A PARTICULAR PURPOSE. SEE THE GNU      
# GENERAL PUBLIC LICENSE FOR MORE DETAILS.                              
#                                                                       
# YOU SHOULD HAVE RECEIVED A COPY OF THE GNU GENERAL PUBLIC LICENSE     
# ALONG WITH THIS PROGRAM; IF NOT, WRITE TO EDF R&D CODE_ASTER,         
#    1 AVENUE DU GENERAL DE GAULLE, 92141 CLAMART CEDEX, FRANCE.        
# ======================================================================

DEBUT(CODE=_F(NOM = 'SDLL137D',NIV_PUB_WEB='INTERNET'),
       DEBUG=_F(SDVERI='OUI'),
       IMPR_MACRO='OUI',
         )

#**********************************
# CREATION DU MODELE EXPERIMENTAL
#**********************************

PRE_IDEAS( UNITE_IDEAS = 21, UNITE_MAILLAGE = 22 );

MAILEXP=LIRE_MAILLAGE(UNITE=22);

MODLEXP=AFFE_MODELE(MAILLAGE=MAILEXP,
                   AFFE=_F(TOUT='OUI',
                           PHENOMENE='MECANIQUE',
                           MODELISATION='DIS_TR',),);

CHCAREXP=AFFE_CARA_ELEM(MODELE=MODLEXP,
                     DISCRET=_F(GROUP_MA='POUTRE',
                                 REPERE='GLOBAL',
                                 CARA='K_TR_D_L',
                                 VALE=(1.e+12,1.e+12,1.e+12,1.e+12,1.e+12,1.e+12,),
                                ),);

KELEXP=CALC_MATR_ELEM(OPTION='RIGI_MECA',
                     MODELE=MODLEXP,
                     CARA_ELEM=CHCAREXP,
                     );

MELEXP=CALC_MATR_ELEM(OPTION='MASS_MECA',
                      MODELE=MODLEXP,
                      CARA_ELEM=CHCAREXP,
                      );

AELEXP=CALC_MATR_ELEM(OPTION='AMOR_MECA',
                      MODELE=MODLEXP,
                      CARA_ELEM=CHCAREXP,
                      );

NUMEXP=NUME_DDL( MATR_RIGI=KELEXP,);

KASSEXP=ASSE_MATRICE(MATR_ELEM=KELEXP, NUME_DDL=NUMEXP,);

MASSEXP=ASSE_MATRICE(MATR_ELEM=MELEXP,
                  NUME_DDL=NUMEXP,);

AASSEXP=ASSE_MATRICE(MATR_ELEM=AELEXP,
                  NUME_DDL=NUMEXP,);

# LECTURE DES MODES IDENTIFIES
MODMESU=LIRE_RESU(TYPE_RESU='MODE_MECA',
                 FORMAT='IDEAS',
                 MODELE=MODLEXP,
                 UNITE=21,
                 NOM_CHAM='DEPL',
                 MATR_A =KASSEXP,
                 MATR_B =MASSEXP,
                 FORMAT_IDEAS=_F(NOM_CHAM='DEPL',
                                 NUME_DATASET=55,
                                 RECORD_6=(1,2,3,8,2,6,),
                                 POSI_ORDRE=(7,4,),
                                 POSI_NUME_MODE=(7,4),
                                 POSI_FREQ=(8,1,),
                                 POSI_MASS_GENE=(8,2),
                                 POSI_AMOR_GENE=(8,3),
                                 NOM_CMP=('DX','DY','DZ','DRX','DRY','DRZ'),),
                 TOUT_ORDRE='OUI',);

# TRI EVENTUEL

_nume_mode=(1,2,3,4,5)


MODEIDE=EXTR_MODE(FILTRE_MODE=_F(MODE=MODMESU,
                                  NUME_MODE=_nume_mode,
                                  ),);

#********************************
# CREATION MODELE SUPPORT
#********************************

MAILSUP=LIRE_MAILLAGE(UNITE=20);

MODLSUP=AFFE_MODELE(MAILLAGE=MAILSUP,
                    AFFE=(_F(GROUP_MA=('POUTRE','VISUAL',),
                             PHENOMENE='MECANIQUE',
                             MODELISATION='POU_D_E',),),)

MATSUP=DEFI_MATERIAU(ELAS=_F(E=2.1E11,
                             NU=0.3,
                             AMOR_ALPHA=1.E-4,AMOR_BETA=1.,
                             RHO=7800.,),);

CHMATSUP=AFFE_MATERIAU(MAILLAGE=MAILSUP,
                       MODELE=MODLSUP,
                       AFFE=(_F(GROUP_MA='POUTRE',
                                MATER=MATSUP,),),);

CHCARSUP=AFFE_CARA_ELEM(MODELE=MODLSUP,
                        POUTRE=(_F(GROUP_MA='POUTRE',
                                   SECTION='RECTANGLE',
                                   CARA=('HY','HZ',),
                                   VALE=(9.E-3,38.E-3,),),),
                        ORIENTATION=(_F(GROUP_MA='POUTRE',
                                        CARA='VECT_Y',
                                        VALE=(0.,0.,1.),),),
                       )

CONDLSUP=AFFE_CHAR_MECA(MODELE=MODLSUP,
                      DDL_IMPO=( _F(GROUP_NO=('FIXE',),
                                   DX=0.0,
                                   DY=0.0,
                                   DZ=0.0,
                                   DRX=0.0,
                                   DRY=0.0,
                                   DRZ=0.0,),
                               ),);


KELSUP=CALC_MATR_ELEM(OPTION='RIGI_MECA',
                        MODELE=MODLSUP,
                        CHAM_MATER=CHMATSUP,
                        CARA_ELEM=CHCARSUP,
                        CHARGE=CONDLSUP,);

MELSUP=CALC_MATR_ELEM(OPTION='MASS_MECA',
                        MODELE=MODLSUP,
                        CHAM_MATER=CHMATSUP,
                        CARA_ELEM=CHCARSUP,
                        CHARGE=CONDLSUP,);

AELSUP=CALC_MATR_ELEM(OPTION='AMOR_MECA',
                        MODELE=MODLSUP,
                        RIGI_MECA=KELSUP,MASS_MECA=MELSUP,
                        CHAM_MATER=CHMATSUP,
                        CARA_ELEM=CHCARSUP,
                        CHARGE=CONDLSUP,);

NUMSUP=NUME_DDL(MATR_RIGI=KELSUP,);

KASSUP=ASSE_MATRICE(MATR_ELEM=KELSUP,
                      NUME_DDL=NUMSUP,);

MASSUP=ASSE_MATRICE(MATR_ELEM=MELSUP,
                      NUME_DDL=NUMSUP,);

AASSUP=ASSE_MATRICE(MATR_ELEM=AELSUP,
                      NUME_DDL=NUMSUP,);

MODESUP=MODE_ITER_SIMULT(MATR_A=KASSUP,
                         MATR_B=MASSUP,
                         METHODE='TRI_DIAG', MATR_C=AASSUP,
                         VERI_MODE=_F(SEUIL=1.E-05,STOP_ERREUR='OUI',),
                         CALC_FREQ=_F(OPTION='PLUS_PETITE',
                                      NMAX_FREQ=20,
                                      SEUIL_FREQ=1.E-4,),);

# Maillage modification
MAILX=LIRE_MAILLAGE(UNITE=24);

#********************************
# CREATION MODELE NUMERIQUE COMPLET : SUPPORT + MODIF
#********************************

MODLDIR=AFFE_MODELE(MAILLAGE=MAILSUP,
                   AFFE=(_F(GROUP_MA=('SIMPLE','VISUAL',),
                            PHENOMENE='MECANIQUE',
                            MODELISATION='POU_D_E',),),)

MATDBL=DEFI_MATERIAU(ELAS=_F(E=4.2E11,
                             NU=0.3,
                             RHO=15600.,
                             AMOR_ALPHA=1.E-4,AMOR_BETA=1.,
                        ),);

CHMATDIR=AFFE_MATERIAU(MAILLAGE=MAILSUP,
                       MODELE=MODLDIR,
                       AFFE=(_F(GROUP_MA='SIMPLE',
                                MATER=MATSUP,),
                             _F(GROUP_MA='VISUAL',
                                MATER=MATDBL,),),);

CHCARDIR=AFFE_CARA_ELEM(MODELE=MODLDIR,
                        POUTRE=(_F(GROUP_MA=('SIMPLE','VISUAL',),
                                   SECTION='RECTANGLE',
                                   CARA=('HY','HZ',),
                                   VALE=(9.E-3,38.E-3,),),),
                        ORIENTATION=(_F(GROUP_MA=('SIMPLE','VISUAL',),
                                        CARA='VECT_Y',
                                        VALE=(0.,0.,1.),),),
                       )

CONDLDIR=AFFE_CHAR_MECA(MODELE=MODLDIR,
                      DDL_IMPO=( _F(GROUP_NO=('FIXE',),
                                   DX=0.0,
                                   DY=0.0,
                                   DZ=0.0,
                                   DRX=0.0,
                                   DRY=0.0,
                                   DRZ=0.0,),
                               ),
                       );

KELDIR=CALC_MATR_ELEM(OPTION='RIGI_MECA',
                        MODELE=MODLDIR,
                        CHAM_MATER=CHMATDIR,
                        CARA_ELEM=CHCARDIR,
                        CHARGE=CONDLDIR,);

NUMDIR=NUME_DDL(MATR_RIGI=KELDIR,);

KASDIR=ASSE_MATRICE(MATR_ELEM=KELDIR,
                      NUME_DDL=NUMDIR,);

MODSTDIR=MODE_STATIQUE(MATR_RIGI=KASDIR,
                     FORCE_NODALE=(
                      _F(GROUP_NO=('CAPTEUR',),AVEC_CMP=('DY','DZ',),),
                      _F(GROUP_NO=('EXTERNE',),AVEC_CMP=('DX','DY','DZ',
                                                         'DRX','DRY','DRZ',),),
                      ),);

MOSTSUP=PROJ_CHAMP(METHODE='ELEM',
               RESULTAT=MODSTDIR,
               MODELE_1=MODLDIR,
               MODELE_2=MODLSUP,
               NOM_CHAM='DEPL',
               TOUT_ORDRE='OUI',
               NUME_DDL=NUMSUP,
              );

BASEMOST=DEFI_BASE_MODALE(RITZ=(
                             _F(MODE_MECA=MODESUP,NMAX_MODE=0,),
                             _F(MODE_INTF=MOSTSUP,),
                             ),
                       NUME_REF=NUMSUP,);

NUMGEN=NUME_DDL_GENE(BASE=BASEMOST,STOCKAGE='PLEIN',);

KPROJ=PROJ_MATR_BASE(BASE=BASEMOST,
                     NUME_DDL_GENE=NUMGEN,
                     MATR_ASSE=KASSUP,);

MPROJ=PROJ_MATR_BASE(BASE=BASEMOST,
                     NUME_DDL_GENE=NUMGEN,
                     MATR_ASSE=MASSUP,);

MODESGEN=MODE_ITER_SIMULT(MATR_A=KPROJ,
                       MATR_B=MPROJ,
                       VERI_MODE=_F(SEUIL=1.E-05,STOP_ERREUR='OUI',),
                       CALC_FREQ=_F(OPTION='PLUS_PETITE',
                                    NMAX_FREQ=12,
                                    SEUIL_FREQ=1.E-4,),);

BASGEN=REST_GENE_PHYS(RESU_GENE=MODESGEN,
                   TOUT_ORDRE='OUI',
                   NOM_CHAM   ='DEPL');

# TRI EVENTUEL
_nume_mo=(1,2,3,4,5,6,7,8)

BASEMO=EXTR_MODE(FILTRE_MODE=_F(MODE=BASGEN,
                                  NUME_MODE=_nume_mo,
                                  ),);

PROJ=PROJ_MESU_MODAL(MODELE_CALCUL=_F(MODELE=MODLSUP,
                                      BASE=BASEMO,),
                     MODELE_MESURE=_F(MODELE=MODLEXP,
                                      MESURE=MODEIDE,
                                      NOM_CHAM='DEPL',),
                     RESOLUTION=_F(METHODE='SVD',
                                   EPS=1.E-5),
                     );

# CREATION SUPER MAILLE
SSEXP = MACR_ELEM_STAT(
               DEFINITION=_F(MODELE=MODLSUP,
                             PROJ_MESU=PROJ,MODE_MESURE=MODEIDE,
                             CARA_ELEM =CHCARSUP,CHAM_MATER=CHMATSUP,
                            ),
               EXTERIEUR=_F(GROUP_NO = ('EXTERNE',),),
               RIGI_MECA=_F(),
               MASS_MECA=_F(),
               AMOR_MECA=_F(),
           )

#  IMPR_CO(CONCEPT=_F(NOM=SSEXP))

MAILCOND=DEFI_MAILLAGE(
         DEFI_SUPER_MAILLE=_F( MACR_ELEM = SSEXP,SUPER_MAILLE='SUMAIL',),
         DEFI_NOEUD=_F( TOUT = 'OUI', INDEX = (1,0,1,8,),),
         DEFI_GROUP_NO=_F( SUPER_MAILLE = 'SUMAIL', INDEX = (1,0,1,8,),),
        )

#**********************************
# CREATION DU MODELE COUPLE (MESURE + MODIFICATION)
#**********************************

MAILCPL=ASSE_MAILLAGE(
            MAILLAGE_1=MAILCOND,
            MAILLAGE_2=MAILX,
            OPERATION='SOUS_STR'
                 )

MODLCPL=AFFE_MODELE(INFO=2,
          MAILLAGE=MAILCPL,
          AFFE=(_F(GROUP_MA=('POUTRE',),
                            PHENOMENE='MECANIQUE',
                            MODELISATION='POU_D_E',),
              ),
          AFFE_SOUS_STRUC=_F( SUPER_MAILLE = 'SUMAIL',
                            PHENOMENE='MECANIQUE',),
              )

CHCARCPL=AFFE_CARA_ELEM(MODELE=MODLCPL,
                        POUTRE=(_F(GROUP_MA='POUTRE',
                                   SECTION='RECTANGLE',
                                   CARA=('HY','HZ',),
                                   VALE=(9.E-3,38.E-3,),),),
                        ORIENTATION=(_F(GROUP_MA='POUTRE',
                                        CARA='VECT_Y',
                                        VALE=(0.,0.,1.),),),
                     )

MATERX=DEFI_MATERIAU(ELAS=_F(E=2.1E11,
                             NU=0.3,
                             AMOR_ALPHA=1.E-4,AMOR_BETA=1.,
                             RHO=7800.,),);

CHMATCPL=AFFE_MATERIAU(  MAILLAGE=MAILCPL,
                         AFFE=(_F(GROUP_MA=('POUTRE',),
                                  MATER=MATERX,),),);

CONDLCPL=AFFE_CHAR_MECA(MODELE=MODLCPL,
                      DDL_IMPO=( _F(GROUP_NO=('EXTERNE',),
                                   DX=0.0,
                                   DRX=0.0,
                                ),),);

KELCPL=CALC_MATR_ELEM(MODELE=MODLCPL,OPTION='RIGI_MECA',
                     CARA_ELEM=CHCARCPL,CHAM_MATER=CHMATCPL,
                     CHARGE=CONDLCPL,
                     )

MELCPL=CALC_MATR_ELEM(MODELE=MODLCPL,OPTION='MASS_MECA',
                     CARA_ELEM=CHCARCPL,CHAM_MATER=CHMATCPL,
                     CHARGE=CONDLCPL,
                    )

AELCPL=CALC_MATR_ELEM(MODELE=MODLCPL,OPTION='MASS_MECA',
                     CARA_ELEM=CHCARCPL,CHAM_MATER=CHMATCPL,
                     CHARGE=CONDLCPL,
                    )

NUMCPL=NUME_DDL(MATR_RIGI=KELCPL,)

KASCPL=ASSE_MATRICE(MATR_ELEM=KELCPL,NUME_DDL=NUMCPL)

MASCPL=ASSE_MATRICE(MATR_ELEM=MELCPL,NUME_DDL=NUMCPL)

AASCPL=ASSE_MATRICE(MATR_ELEM=AELCPL,NUME_DDL=NUMCPL)
# CALCUL MODAL SUR LE MODELE COUPLE

MODECPL=MODE_ITER_SIMULT(MATR_A=KASCPL,MATR_B=MASCPL,
                       MATR_C=AASCPL,METHODE='TRI_DIAG',
                       VERI_MODE=_F(SEUIL=1.E-05,STOP_ERREUR='OUI',),
                       CALC_FREQ=_F(OPTION='PLUS_PETITE',
                                    NMAX_FREQ=2,
                                    SEUIL_FREQ=1.E-4,),);

# RETROPROJECTION SUR LE MODELE EXPERIMENTAL (INTERFACE -> DDL MESURE)
# La supermaille creee par CALC_ESSAI se nomme SUMAIL

MODERETR=DEPL_INTERNE(DEPL_GLOBAL=MODECPL,SUPER_MAILLE='SUMAIL')


#**********************************
# INDICATEUR SUR CHOIX DE BASE DE PROJECTION
# COMPARAISON CHAMP INTERFACE <> CHAMP OBTENU PAR EXPANSION STATIQUE AUX INTERFACES
#**********************************

# CREATION MODELE FICTIF DE L INTERFACE

MODLINT=AFFE_MODELE(MAILLAGE=MAILCPL,
                   AFFE=_F(GROUP_MA='VISUAL',
                           PHENOMENE='MECANIQUE',
                           MODELISATION='DIS_TR',),
          AFFE_SOUS_STRUC=_F( SUPER_MAILLE = 'SUMAIL',
                            PHENOMENE='MECANIQUE',),
              )

CHCARINT=AFFE_CARA_ELEM(MODELE=MODLINT,
                     DISCRET=_F(GROUP_MA='VISUAL',
                                 REPERE='GLOBAL',
                                 CARA='K_TR_D_L',
                                 VALE=(0.e+0,0.e+0,0.e+0,0.e+0,0.e+0,0.e+0,),
                                ),);

KELINT=CALC_MATR_ELEM(OPTION='RIGI_MECA',
                    MODELE=MODLINT,
                     CARA_ELEM=CHCARINT,
                     );

MELINT=CALC_MATR_ELEM(OPTION='MASS_MECA',
                      MODELE=MODLINT,
                     CARA_ELEM=CHCARINT,
                     );

NUMINT=NUME_DDL( MATR_RIGI=KELINT,);

KASMAC=ASSE_MATRICE(MATR_ELEM=KELINT,NUME_DDL=NUMINT)

MASMAC=ASSE_MATRICE(MATR_ELEM=MELINT,NUME_DDL=NUMINT)

# EXPANSION STATIQUE DU CHAMP DE DEPL AUX INTERFACES

MODSTINT=MODE_STATIQUE(MATR_RIGI=KASSUP,
                      FORCE_NODALE=( _F(GROUP_NO='CAPTEUR',AVEC_CMP=('DY','DZ',),),
                      ),);

BASEINT=DEFI_BASE_MODALE(RITZ=(
                             _F(MODE_MECA=MODESUP,NMAX_MODE=0,),
                             _F(MODE_INTF=MODSTINT,NMAX_MODE=8,),
                             ),
                       NUME_REF=NUMSUP,);

PROJMS=PROJ_MESU_MODAL(MODELE_CALCUL=_F(MODELE=MODLSUP,
                                      BASE=BASEINT,),
                     MODELE_MESURE=_F(MODELE=MODLEXP,
                                      MESURE=MODERETR,
                                      NOM_CHAM='DEPL',),
                     RESOLUTION=_F(METHODE='SVD',
                                   EPS=1.E-5),
                     );

DEPLPR=REST_GENE_PHYS(RESU_GENE=PROJMS,
                   TOUT_ORDRE='OUI',
                   NOM_CHAM   ='DEPL');

DEPLINT=PROJ_CHAMP(METHODE='ELEM',
               RESULTAT=DEPLPR,
               MODELE_1=MODLSUP,
               MODELE_2=MODLINT,
               NOM_CHAM='DEPL',
               #TOUT_ORDRE='OUI',
               NUME_ORDRE=(1,2,),
               NUME_DDL=NUMINT,
              );

# CHAMP DE DEPL AUX INTERFACES SUR LE MODELE COUPLE

DEPLXINT=PROJ_CHAMP(METHODE='ELEM',
               RESULTAT=MODECPL,
               MODELE_1=MODLCPL,
               MODELE_2=MODLINT,
               NOM_CHAM='DEPL',
               #TOUT_ORDRE='OUI',
               NUME_ORDRE=(1,2,),
               NUME_DDL=NUMINT,
              );

# INDICATEUR DE PROXIMITE DES MODES
# LA BASE DE PROJECTION CHOISIE EST CORRECTE SI DEPLINT == DEPLXINT

# LES MODES SONT PROCHES SI LES TERMES DIAG DU MAC PROCHE DE 1
# ATTENTION, ON CONTROLE ICI EN RELATIF
# L IDEAL SERAIT DE CONTROLER L ECART ENTRE LES DEUX VECTEURS EN ABSOLU

MACINT=MAC_MODES(BASE_1=DEPLINT,
               BASE_2=DEPLXINT,
               INFO  =2,
              );

TEST_TABLE(TABLE=MACINT, REFERENCE='ANALYTIQUE',
           NOM_PARA = 'MAC',
           TYPE_TEST='SOMM',
           CRITERE='ABSOLU',
           VALE = 2., # 2 modes projetes
           PRECISION = 0.01)

# TEST IERI : CRITERE ENERGETIQUE (ON FAIT INTERVENIR K OU M)
IERIK=MAC_MODES(BASE_1=DEPLINT,
               BASE_2=DEPLXINT,
               MATR_ASSE=KASMAC,
               IERI='OUI',
               INFO  =2,
              );

IERIM=MAC_MODES(BASE_1=DEPLINT,
               BASE_2=DEPLXINT,
               MATR_ASSE=MASMAC,
               IERI='OUI',
               INFO  =2,
              );

TEST_TABLE(      TABLE=IERIK,
       FILTRE=(
               _F(NOM_PARA='NUME_MODE_1',VALE_I=1),
               _F(NOM_PARA='NUME_MODE_2',VALE_I=1),),
           NOM_PARA='IERI',
           CRITERE='ABSOLU',
           REFERENCE='ANALYTIQUE',
           VALE=0. ,
           PRECISION=5.E-4)

TEST_TABLE(      TABLE=IERIM,
       FILTRE=(
               _F(NOM_PARA='NUME_MODE_1',VALE_I=2),
               _F(NOM_PARA='NUME_MODE_2',VALE_I=2),),
           NOM_PARA='IERI',
           CRITERE='ABSOLU',
           REFERENCE='ANALYTIQUE',
           VALE=0. ,
           PRECISION=1.E-5)

nmodes=2

# controle recuperation matrices rigidite - masse 
MODECPL3=MODE_ITER_SIMULT(MATR_A=KASCPL,
                       MATR_B=MASCPL,
                       MATR_C=AASCPL,METHODE='TRI_DIAG',
                       VERI_MODE=_F(SEUIL=1.E-05,STOP_ERREUR='OUI',),
                       CALC_FREQ=_F(OPTION='PLUS_PETITE',
                                    NMAX_FREQ=nmodes,
                                    SEUIL_FREQ=1.E-4,),);


I_DEBUT = 5.
I_FIN = 20.
LIFREQ=DEFI_LIST_REEL(DEBUT=I_DEBUT, INTERVALLE=_F( JUSQU_A = I_FIN, NOMBRE = 4))

CH=AFFE_CHAR_MECA(MODELE=MODLCPL,
                  FORCE_NODALE=(_F(NOEUD='NO7',
                                   FY=1.0))
                                   );

# controle recuperation modele et super-maille par calcul de reponse harmonique

DYH=DYNA_LINE_HARM( MODELE=MODLCPL,
                        MATR_MASS=MASCPL,MATR_RIGI=KASCPL,
                        MATR_AMOR=AASCPL,
                        LIST_FREQ=LIFREQ,
                        TOUT_CHAM='OUI',
                        EXCIT=(_F(COEF_MULT_C=('RI',1.,0.),CHARGE=CH,),),
                      )

DYHRETRO=DEPL_INTERNE(DEPL_GLOBAL=DYH,SUPER_MAILLE='SUMAIL')


#**********************************
# COMPARAISON AVEC CALCUL DIRECT : structure initiale + modification
#**********************************

MELDIR=CALC_MATR_ELEM(OPTION='MASS_MECA',
                        MODELE=MODLDIR,
                        CHAM_MATER=CHMATDIR,
                        CARA_ELEM=CHCARDIR,
                        CHARGE=CONDLDIR,);

AELDIR=CALC_MATR_ELEM(OPTION='AMOR_MECA',
                        MODELE=MODLDIR,
                        CHAM_MATER=CHMATDIR,RIGI_MECA=KELDIR,MASS_MECA=MELDIR,
                        CARA_ELEM=CHCARDIR,
                        CHARGE=CONDLDIR,);

MASDIR=ASSE_MATRICE(MATR_ELEM=MELDIR,
                      NUME_DDL=NUMDIR,);

AASDIR=ASSE_MATRICE(MATR_ELEM=AELDIR,
                      NUME_DDL=NUMDIR,);

MODEDIR=MODE_ITER_SIMULT(MATR_A=KASDIR,
                       MATR_B=MASDIR,
                       MATR_C=AASDIR,METHODE='TRI_DIAG',
                       VERI_MODE=_F(SEUIL=1.E-05,STOP_ERREUR='OUI',),
                       CALC_FREQ=_F(OPTION='PLUS_PETITE',
                                    NMAX_FREQ=nmodes,
                                    SEUIL_FREQ=1.E-4,),);

#tmodes = aster.getvectjev("MODEDIR            .FREQ        ")
#print 'tmodes : ',tmodes
tmodes0=7.78074
tmodes1=32.8520

TEST_RESU(RESU=(
                _F(RESULTAT=MODERETR, NUME_ORDRE=1, PARA='FREQ',
                   VALE=tmodes0, CRITERE='RELATIF', PRECISION=1.E-2,
                   REFERENCE='AUTRE_ASTER',),
                _F(RESULTAT=MODERETR, NUME_ORDRE=2, PARA='FREQ',
                   VALE=tmodes1, CRITERE='RELATIF', PRECISION=1.E-2,
                   REFERENCE='AUTRE_ASTER',),
                _F(RESULTAT=MODECPL, NUME_ORDRE=1, PARA='FREQ',
                   VALE=tmodes0, CRITERE='RELATIF', PRECISION=1.E-2,
                   REFERENCE='AUTRE_ASTER',),
                _F(RESULTAT=MODECPL, NUME_ORDRE=2, PARA='FREQ',
                   VALE=tmodes1, CRITERE='RELATIF', PRECISION=1.E-2,
                   REFERENCE='AUTRE_ASTER',),
                _F(RESULTAT=MODECPL3, NUME_ORDRE=1, PARA='FREQ',
                   VALE=tmodes0, CRITERE='RELATIF', PRECISION=1.E-2,
                   REFERENCE='AUTRE_ASTER',),
                _F(RESULTAT=MODECPL3, NUME_ORDRE=2, PARA='FREQ',
                   VALE=tmodes1, CRITERE='RELATIF', PRECISION=1.E-2,
                   REFERENCE='AUTRE_ASTER',),
                ),);


DY_PB=RECU_FONCTION(RESULTAT=DYHRETRO,
                     NOM_CHAM='DEPL',
                     NOM_CMP='DY',
                #     NOM_CMP='D1',
                     NOEUD='N3',
                     INTERPOL='LIN',);

IMPR_FONCTION(FORMAT='AGRAF',
            UNITE = 25,
            COURBE=(_F(FONCTION=DY_PB,),
                    ),);

# Appliquer le chargement sur le modele direct et comparer avec dyhretro

CHDIR=AFFE_CHAR_MECA(MODELE=MODLDIR,
                  FORCE_NODALE=(_F(NOEUD='NO7',
                                   FY=1.0))
                                   );

DYHDIR=DYNA_LINE_HARM( MODELE=MODLDIR,
                        MATR_MASS=MASDIR,MATR_RIGI=KASDIR,MATR_AMOR=AASDIR,
                        LIST_FREQ=LIFREQ,
                        TOUT_CHAM='OUI',
                        EXCIT=(_F(COEF_MULT_C=('RI',1.,0.),CHARGE=CHDIR,),),
                      )

DY_PA=RECU_FONCTION(RESULTAT=DYHDIR,
                     NOM_CHAM='DEPL',
                     NOM_CMP='DY',
                     NOEUD='NO3',
                     INTERPOL='LIN',);

IMPR_FONCTION(FORMAT='AGRAF',
            UNITE = 25,
            COURBE=(_F(FONCTION=DY_PA,),
                    ),);

# comparaison reponses harmoniques (direct - modele couple)

T_DIR=POST_RELEVE_T(ACTION=_F(INTITULE='DIRECT',
                      NOEUD=('NO3'),
                      RESULTAT=DYHDIR,
                      NOM_CHAM='DEPL',
                      TOUT_ORDRE='OUI',
                      NOM_CMP='DY',
                      OPERATION='EXTRACTION',
                      ),);

T_RETRO=POST_RELEVE_T(ACTION=_F(INTITULE='RETRO',
                      NOEUD=('N3'),
                      RESULTAT=DYHRETRO,
                      NOM_CHAM='DEPL',
                      TOUT_ORDRE='OUI',
                      NOM_CMP='DY',
                      OPERATION='EXTRACTION',
                      ),);

F1=FORMULE(NOM_PARA=('DY_DIR', 'DY_RETRO',),
                VALE='abs (DY_DIR - DY_RETRO)')
                
T1=CALC_TABLE(TABLE=T_DIR,
              ACTION=(_F(OPERATION='RENOMME',
                                  NOM_PARA=('DY', 'DY_DIR'),),
                               _F(OPERATION='COMB',
                                  TABLE=T_RETRO,
                                  NOM_PARA=('NUME_ORDRE',),),
                               _F(OPERATION='RENOMME',
                                  NOM_PARA=('DY', 'DY_RETRO'),),
                               _F(OPERATION='OPER',
                                  NOM_PARA='DIFF',
                                  FORMULE=F1),
                      ),
              TITRE='Comparaison calcul direct / calcul retro')


TEST_TABLE(
     TABLE     = T1,
     NOM_PARA  = 'DIFF',
     TYPE_TEST = 'SOMM',
     VALE      = 0.,
     CRITERE   = 'ABSOLU',
     PRECISION = 1.E-6,
     REFERENCE = 'AUTRE_ASTER',)


FIN();

