# TITRE POUTRE DE SECTION RECTANGULAIRE VARIABLE (POSEE-POSEE)
# ======================================================================
# COPYRIGHT (C) 1991 - 2015  EDF R&D                  WWW.CODE-ASTER.ORG
# THIS PROGRAM IS FREE SOFTWARE; YOU CAN REDISTRIBUTE IT AND/OR MODIFY
# IT UNDER THE TERMS OF THE GNU GENERAL PUBLIC LICENSE AS PUBLISHED BY
# THE FREE SOFTWARE FOUNDATION; EITHER VERSION 2 OF THE LICENSE, OR
# (AT YOUR OPTION) ANY LATER VERSION.
#
# THIS PROGRAM IS DISTRIBUTED IN THE HOPE THAT IT WILL BE USEFUL, BUT
# WITHOUT ANY WARRANTY; WITHOUT EVEN THE IMPLIED WARRANTY OF
# MERCHANTABILITY OR FITNESS FOR A PARTICULAR PURPOSE. SEE THE GNU
# GENERAL PUBLIC LICENSE FOR MORE DETAILS.
#
# YOU SHOULD HAVE RECEIVED A COPY OF THE GNU GENERAL PUBLIC LICENSE
# ALONG WITH THIS PROGRAM; IF NOT, WRITE TO EDF R&D CODE_ASTER,
#    1 AVENUE DU GENERAL DE GAULLE, 92141 CLAMART CEDEX, FRANCE.
# ======================================================================
#CAS_TEST__: SDLL114A
# SDLL114/A
#    MODES DE DEFORMATION EN FLEXION
#    POUTRE ELANCEE L=2M, H0=0.06M, H1=0.03M
#    LARGEUR CONSTANTE B=0.05M
#    ORIENTEE SELON L'AXE Z, AFFINITE D'AXE PARALLELE A X OU Y
#    MODELISATION POU_D_E, 11 NOEUDS, 10 SEG2
#    REF: R.D.BLEVINS(8.21, 8.22) ET VALIDATION POUX EANV1/A

DEBUT(  CODE=_F(NIV_PUB_WEB='INTERNET'),DEBUG=_F(SDVERI='OUI'))

#
#12.01

MAPOU=LIRE_MAILLAGE()

MAPOU=DEFI_GROUP( reuse=MAPOU,   MAILLAGE=MAPOU,
  CREA_GROUP_MA=_F(  NOM = 'TOUT', TOUT = 'OUI'))

#
#22.01

MOPOU=AFFE_MODELE(  MAILLAGE=MAPOU,
                      AFFE=_F(  TOUT = 'OUI', PHENOMENE = 'MECANIQUE',
                             MODELISATION = 'POU_D_E')
                    )

#
#23.01 MATER

MTPOU=DEFI_MATERIAU( ELAS=_F(  E = 2.E11,  NU = 0.3,  RHO = 7800.) )

#
#23.02 CHAM_MATER

AMPOU=AFFE_MATERIAU(  MAILLAGE=MAPOU,
                        AFFE=_F(  TOUT = 'OUI', MATER = MTPOU)
                      )

#25.01 CHAR_MECA

CHPOU=AFFE_CHAR_MECA(
               MODELE=MOPOU,DDL_IMPO=(

                   _F(  GROUP_NO = 'PA',   DX = 0.,  DY = 0., DZ = 0., DRZ = 0.),
                   _F(  GROUP_NO = 'PB',   DY = 0.,  DX = 0.))
                       )

#
#24.01 CARA_ELEM
#
# AFFINITE PARALLELE A Y
CARELX=AFFE_CARA_ELEM(    MODELE=MOPOU, INFO=2,
                          POUTRE=(

     _F(  MAILLE = 'M1', SECTION = 'RECTANGLE', VARI_SECT = 'AFFINE',
          CARA = ( 'HY',  'HZ1',    'HZ2',   ),
          VALE = (  0.05,  0.0600,   0.0570, )),
     _F(  MAILLE = 'M2', SECTION = 'RECTANGLE', VARI_SECT = 'AFFINE',
          CARA = ( 'HY',  'HZ1',    'HZ2',   ),
          VALE = (  0.05,  0.0570,   0.0540, )),
     _F(  MAILLE = 'M3', SECTION = 'RECTANGLE', VARI_SECT = 'AFFINE',
          CARA = ( 'HY',  'HZ1',    'HZ2',   ),
          VALE = (  0.05,  0.0540,   0.0510, )),
     _F(  MAILLE = 'M4', SECTION = 'RECTANGLE', VARI_SECT = 'AFFINE',
          CARA = ( 'HY',  'HZ1',    'HZ2',   ),
          VALE = (  0.05,  0.0510,   0.0480, )),
     _F(  MAILLE = 'M5', SECTION = 'RECTANGLE', VARI_SECT = 'AFFINE',
          CARA = ( 'HY',  'HZ1',    'HZ2',   ),
          VALE = (  0.05,  0.0480,   0.0450, )),
     _F(  MAILLE = 'M6', SECTION = 'RECTANGLE', VARI_SECT = 'AFFINE',
          CARA = ( 'HY',  'HZ1',    'HZ2',   ),
          VALE = (  0.05,  0.0450,   0.0420, )),
     _F(  MAILLE = 'M7', SECTION = 'RECTANGLE', VARI_SECT = 'AFFINE',
          CARA = ( 'HY',  'HZ1',    'HZ2',   ),
          VALE = (  0.05,  0.0420,   0.0390, )),
     _F(  MAILLE = 'M8', SECTION = 'RECTANGLE', VARI_SECT = 'AFFINE',
          CARA = ( 'HY',  'HZ1',    'HZ2',   ),
          VALE = (  0.05,  0.0390,   0.0360, )),
     _F(  MAILLE = 'M9', SECTION = 'RECTANGLE', VARI_SECT = 'AFFINE',
          CARA = ( 'HY',  'HZ1',    'HZ2',   ),
          VALE = (  0.05,  0.0360,   0.0330, )),
     _F(  MAILLE = 'M10', SECTION = 'RECTANGLE', VARI_SECT = 'AFFINE',
          CARA = ( 'HY',  'HZ1',    'HZ2',   ),
          VALE = (  0.05,  0.0330,   0.0300, )))

                        )

#
# AFFINITE PARALLELE A Z PAR ROTATION ET CALCUL PAR HOMOTHETIQUE
CARELY=AFFE_CARA_ELEM(    MODELE=MOPOU, INFO=2,

   ORIENTATION=_F( GROUP_MA = 'TOUT', CARA = 'ANGL_VRIL', VALE = 90., ),

   POUTRE=(

     _F(  MAILLE = 'M1', SECTION = 'RECTANGLE', VARI_SECT = 'AFFINE',
          CARA = ( 'HY',   'HZ1',     'HZ2',   ),
          VALE = (  0.05,   0.0600,    0.0570, )),
     _F(  MAILLE = 'M2', SECTION = 'RECTANGLE', VARI_SECT = 'AFFINE',
          CARA = ( 'HY',  'HZ1',     'HZ2',   ),
          VALE = (  0.05,  0.0570,     0.0540, )),
     _F(  MAILLE = 'M3', SECTION = 'RECTANGLE', VARI_SECT = 'AFFINE',
          CARA = ( 'HY',  'HZ1',     'HZ2',   ),
          VALE = (  0.05,  0.0540,    0.0510, )),
     _F(  MAILLE = 'M4', SECTION = 'RECTANGLE', VARI_SECT = 'AFFINE',
          CARA = ( 'HY',  'HZ1',     'HZ2',   ),
          VALE = (  0.05,  0.0510,    0.0480, )),
     _F(  MAILLE = 'M5', SECTION = 'RECTANGLE', VARI_SECT = 'AFFINE',
          CARA = ( 'HY',  'HZ1',     'HZ2',   ),
          VALE = (  0.05,  0.0480,    0.0450, )),
     _F(  MAILLE = 'M6', SECTION = 'RECTANGLE', VARI_SECT = 'AFFINE',
          CARA = ( 'HY',  'HZ1',     'HZ2',   ),
          VALE = (  0.05,  0.0450,    0.0420, )),
     _F(  MAILLE = 'M7', SECTION = 'RECTANGLE', VARI_SECT = 'AFFINE',
          CARA = ( 'HY',  'HZ1',     'HZ2',   ),
          VALE = (  0.05,  0.0420,    0.0390, )),
     _F(  MAILLE = 'M8', SECTION = 'RECTANGLE', VARI_SECT = 'AFFINE',
          CARA = ( 'HY',  'HZ1',     'HZ2',   ),
          VALE = (  0.05,  0.0390,    0.0360, )),
     _F(  MAILLE = 'M9', SECTION = 'RECTANGLE', VARI_SECT = 'AFFINE',
          CARA = ( 'HY',  'HZ1',     'HZ2',   ),
          VALE = (  0.05,  0.0360,    0.0330, )),
     _F(  MAILLE = 'M10', SECTION = 'RECTANGLE', VARI_SECT = 'AFFINE',
          CARA = ( 'HY',  'HZ1',     'HZ2',   ),
          VALE = (  0.05,  0.0330,    0.0300, )))
                        )

#
#61.04 TABL_MASS_INER
MASSX=POST_ELEM(    MODELE=MOPOU,
                      CHAM_MATER=AMPOU,
                      CARA_ELEM=CARELX,
                      MASS_INER=(_F(  GROUP_MA = 'POU', ),
                      _F( MAILLE = 'M1'),),
                      TITRE=( 'POUTRE AFFINE  ',)
                  )

MASSY=POST_ELEM(    MODELE=MOPOU,
                      CHAM_MATER=AMPOU,
                      CARA_ELEM=CARELY,
                      MASS_INER=(_F(  GROUP_MA = 'POU', ),
                      _F( MAILLE = 'M1'),),
                      TITRE=( 'POUTRE AFFINE ROTATION 90',)
                  )

TEST_TABLE(VALE_CALC=35.1,
           NOM_PARA='MASSE',
           TABLE=MASSX,
           FILTRE=_F(NOM_PARA='LIEU',
                     VALE_K='POU',),
           )

TEST_TABLE(CRITERE='ABSOLU',
           VALE_CALC=0.0E+00,
           NOM_PARA='CDG_X',
           TABLE=MASSX,
           FILTRE=_F(NOM_PARA='LIEU',
                     VALE_K='POU',),
           )

TEST_TABLE(CRITERE='ABSOLU',
           VALE_CALC=0.0E+00,
           NOM_PARA='CDG_Y',
           TABLE=MASSX,
           FILTRE=_F(NOM_PARA='LIEU',
                     VALE_K='POU',),
           )

TEST_TABLE(VALE_CALC=0.88888888888889,
           NOM_PARA='CDG_Z',
           TABLE=MASSX,
           FILTRE=_F(NOM_PARA='LIEU',
                     VALE_K='POU',),
           )

TEST_TABLE(VALE_CALC=11.273979166667,
           NOM_PARA='IX_G',
           TABLE=MASSX,
           FILTRE=_F(NOM_PARA='LIEU',
                     VALE_K='POU',),
           )

TEST_TABLE(VALE_CALC=11.273247916667,
           NOM_PARA='IY_G',
           TABLE=MASSX,
           FILTRE=_F(NOM_PARA='LIEU',
                     VALE_K='POU',),
           )

TEST_TABLE(VALE_CALC=0.013893750000000,
           NOM_PARA='IZ_G',
           TABLE=MASSX,
           FILTRE=_F(NOM_PARA='LIEU',
                     VALE_K='POU',),
           )

TEST_TABLE(VALE_CALC=0.013893750000000,
           NOM_PARA='IX_PRIN_G',
           TABLE=MASSX,
           FILTRE=_F(NOM_PARA='LIEU',
                     VALE_K='POU',),
           )

TEST_TABLE(VALE_CALC=11.273247916667,
           NOM_PARA='IY_PRIN_G',
           TABLE=MASSX,
           FILTRE=_F(NOM_PARA='LIEU',
                     VALE_K='POU',),
           )

TEST_TABLE(VALE_CALC=11.273979166667,
           NOM_PARA='IZ_PRIN_G',
           TABLE=MASSX,
           FILTRE=_F(NOM_PARA='LIEU',
                     VALE_K='POU',),
           )

TEST_TABLE(VALE_CALC=35.1,

           NOM_PARA='MASSE',
           TABLE=MASSY,
           FILTRE=_F(NOM_PARA='LIEU',
                     VALE_K='POU',),
           )

TEST_TABLE(CRITERE='ABSOLU',
           VALE_CALC=0.0E+00,
           NOM_PARA='CDG_X',
           TABLE=MASSY,
           FILTRE=_F(NOM_PARA='LIEU',
                     VALE_K='POU',),
           )

TEST_TABLE(CRITERE='ABSOLU',
           VALE_CALC=0.0E+00,
           NOM_PARA='CDG_Y',
           TABLE=MASSY,
           FILTRE=_F(NOM_PARA='LIEU',
                     VALE_K='POU',),
           )

TEST_TABLE(VALE_CALC=0.88888888888889,
           NOM_PARA='CDG_Z',
           TABLE=MASSY,
           FILTRE=_F(NOM_PARA='LIEU',
                     VALE_K='POU',),
           )

TEST_TABLE(VALE_CALC=11.273247916667,
           NOM_PARA='IX_G',
           TABLE=MASSY,
           FILTRE=_F(NOM_PARA='LIEU',
                     VALE_K='POU',),
           )

TEST_TABLE(VALE_CALC=11.273979166667,
           NOM_PARA='IY_G',
           TABLE=MASSY,
           FILTRE=_F(NOM_PARA='LIEU',
                     VALE_K='POU',),
           )

TEST_TABLE(VALE_CALC=0.013893750000000,
           NOM_PARA='IZ_G',
           TABLE=MASSY,
           FILTRE=_F(NOM_PARA='LIEU',
                     VALE_K='POU',),
           )

TEST_TABLE(VALE_CALC=0.013893750000000,
           NOM_PARA='IX_PRIN_G',
           TABLE=MASSY,
           FILTRE=_F(NOM_PARA='LIEU',
                     VALE_K='POU',),
           )

TEST_TABLE(VALE_CALC=11.273247916667,
           NOM_PARA='IY_PRIN_G',
           TABLE=MASSY,
           FILTRE=_F(NOM_PARA='LIEU',
                     VALE_K='POU',),
           )

TEST_TABLE(VALE_CALC=11.273979166667,
           NOM_PARA='IZ_PRIN_G',
           TABLE=MASSY,
           FILTRE=_F(NOM_PARA='LIEU',
                     VALE_K='POU',),
           )

# --------------------------------------------------------------------
# ====================================
#
#41.01 MATR_ELEM_DEPL_R
RIGIDX=CALC_MATR_ELEM(
                          OPTION='RIGI_MECA',
                          MODELE=MOPOU,
                          CHARGE=CHPOU,
                          CARA_ELEM=CARELX,
                          CHAM_MATER=AMPOU
                        )

#
RIGIDY=CALC_MATR_ELEM(
                          OPTION='RIGI_MECA',
                          MODELE=MOPOU,
                          CHARGE=CHPOU,
                          CARA_ELEM=CARELY,
                          CHAM_MATER=AMPOU
                        )

#
#41.01 MATR_ELEM_DEPL_R
MASSEX=CALC_MATR_ELEM(
                           OPTION='MASS_MECA',
                           MODELE=MOPOU,
                           CHARGE=CHPOU,
                           CARA_ELEM=CARELX,
                           CHAM_MATER=AMPOU
                         )

#
MASSEY=CALC_MATR_ELEM(
                           OPTION='MASS_MECA',
                           MODELE=MOPOU,
                           CHARGE=CHPOU,
                           CARA_ELEM=CARELY,
                           CHAM_MATER=AMPOU
                         )

#
#42.01 NUME_DDL
NURX=NUME_DDL(    MATR_RIGI=RIGIDX )

NURY=NUME_DDL(    MATR_RIGI=RIGIDY )

#
#42.02 MATR_ASSE_DEPL_R
RIGIDXX=ASSE_MATRICE(
                         MATR_ELEM=RIGIDX,
                          NUME_DDL=NURX
                      )

RIGIDXY=ASSE_MATRICE(
                         MATR_ELEM=RIGIDY,
                          NUME_DDL=NURY
                      )

#42.02 MATR_ASSE_DEPL_R
MASSEXX=ASSE_MATRICE(
                         MATR_ELEM=MASSEX,
                          NUME_DDL=NURX
                      )

MASSEXY=ASSE_MATRICE(
                         MATR_ELEM=MASSEY,
                          NUME_DDL=NURY
                      )

#52.01 MODE_MECA
MODPOUX=CALC_MODES(MATR_RIGI=RIGIDXX,
                   OPTION='AJUSTE',
                   CALC_FREQ=_F(FREQ=(0.,300.,),
                                ),
                   MATR_MASS=MASSEXX,
                   )

MODPOUY=CALC_MODES(MATR_RIGI=RIGIDXY,
                   OPTION='AJUSTE',
                   CALC_FREQ=_F(FREQ=(0.,300.,),
                                ),
                   MATR_MASS=MASSEXY,
                   )

#72.01

TEST_RESU(RESU=(_F(PARA='FREQ',
                   NUME_MODE=1,
                   RESULTAT=MODPOUX,
                   VALE_CALC=24.883719438588,
                   VALE_REFE=24.883719438589999,
                   REFERENCE='NON_DEFINI',
                   CRITERE='RELATIF',
                   PRECISION=0.042999999999999997,),
                _F(PARA='FREQ',
                   NUME_MODE=3,
                   RESULTAT=MODPOUX,
                   VALE_CALC=101.1716665603,
                   VALE_REFE=101.17166656029001,
                   REFERENCE='NON_DEFINI',
                   CRITERE='RELATIF',
                   PRECISION=0.010999999999999999,),
                _F(PARA='FREQ',
                   NUME_MODE=5,
                   RESULTAT=MODPOUX,
                   VALE_CALC=227.17436461294,
                   VALE_REFE=227.17436461294,
                   REFERENCE='NON_DEFINI',
                   CRITERE='RELATIF',
                   PRECISION=0.016,),
                _F(PARA='FREQ',
                   NUME_MODE=1,
                   RESULTAT=MODPOUY,
                   VALE_CALC=24.883721494876,
                   VALE_REFE=24.883721494877999,
                   REFERENCE='NON_DEFINI',
                   CRITERE='RELATIF',
                   PRECISION=0.042999999999999997,),
                _F(PARA='FREQ',
                   NUME_MODE=3,
                   RESULTAT=MODPOUY,
                   VALE_CALC=101.1716665603,
                   VALE_REFE=101.17166656029001,
                   REFERENCE='NON_DEFINI',
                   CRITERE='RELATIF',
                   PRECISION=0.010999999999999999,),
                _F(PARA='FREQ',
                   NUME_MODE=5,
                   RESULTAT=MODPOUY,
                   VALE_CALC=227.17436461294,
                   VALE_REFE=227.17436461294,
                   REFERENCE='NON_DEFINI',
                   CRITERE='RELATIF',
                   PRECISION=0.016,),
                ),
          )

#
FIN( )
#
