# TITRE CALCUL DES FREQUENCES PROPRES D'UN ANNEAU CIRCULAIRE MINCE
#            CONFIGURATION MANAGEMENT OF EDF VERSION
# ======================================================================
# COPYRIGHT (C) 1991 - 2012  EDF R&D                  WWW.CODE-ASTER.ORG
# THIS PROGRAM IS FREE SOFTWARE; YOU CAN REDISTRIBUTE IT AND/OR MODIFY
# IT UNDER THE TERMS OF THE GNU GENERAL PUBLIC LICENSE AS PUBLISHED BY
# THE FREE SOFTWARE FOUNDATION; EITHER VERSION 2 OF THE LICENSE, OR
# (AT YOUR OPTION) ANY LATER VERSION.
#
# THIS PROGRAM IS DISTRIBUTED IN THE HOPE THAT IT WILL BE USEFUL, BUT
# WITHOUT ANY WARRANTY; WITHOUT EVEN THE IMPLIED WARRANTY OF
# MERCHANTABILITY OR FITNESS FOR A PARTICULAR PURPOSE. SEE THE GNU
# GENERAL PUBLIC LICENSE FOR MORE DETAILS.
#
# YOU SHOULD HAVE RECEIVED A COPY OF THE GNU GENERAL PUBLIC LICENSE
# ALONG WITH THIS PROGRAM; IF NOT, WRITE TO EDF R&D CODE_ASTER,
#    1 AVENUE DU GENERAL DE GAULLE, 92141 CLAMART CEDEX, FRANCE.
# ======================================================================
# EN LIBRE-LIBRE
# ELEMENTS  : MECPQU8
# REFERENCE : GUIDE VPCS

DEBUT(CODE=_F(NOM='SDLL11I',NIV_PUB_WEB='INTERNET'),DEBUG=_F(SDVERI='OUI'))

ACIER=DEFI_MATERIAU(
                         ELAS=_F(  RHO = 2700.,
                           NU = 0.3,
                           E = 7.2E10))

MAYA=LIRE_MAILLAGE(FORMAT='MED', )

MATER=AFFE_MATERIAU(    MAILLAGE=MAYA,
                                 AFFE=_F(  TOUT = 'OUI',
                                        MATER = ACIER))

STRUCTUR=AFFE_MODELE(    MAILLAGE=MAYA,
                               AFFE=_F(  TOUT = 'OUI',
                                      MODELISATION = 'C_PLAN',
                                      PHENOMENE = 'MECANIQUE'))

# CALCUL DES MATRICES ELEMENTAIRES DE RIGIDITE ET DE MASSE

K_ELEM=CALC_MATR_ELEM(        MODELE=STRUCTUR,
                                CHAM_MATER=MATER,
                                   OPTION='RIGI_MECA' )

M_ELEM=CALC_MATR_ELEM(        MODELE=STRUCTUR,
                                CHAM_MATER=MATER,
                                   OPTION='MASS_MECA' )

# NUMEROTATION

NUMERO=NUME_DDL(    MATR_RIGI=K_ELEM )

# ASSEMBLAGE DES MATRICES DE RIGIDITE ET DE MASSE


K_ASSE=ASSE_MATRICE(    MATR_ELEM=K_ELEM,
                             NUME_DDL=NUMERO )

M_ASSE=ASSE_MATRICE(    MATR_ELEM=M_ELEM,
                             NUME_DDL=NUMERO )

# CALCUL DES MODES PAR LANCZOS

MODE1=MODE_ITER_SIMULT(       MATR_RIGI=K_ASSE,
                                   MATR_MASS=M_ASSE,
                                  METHODE='TRI_DIAG',
                               CALC_FREQ=_F(  OPTION = 'BANDE',
                                           FREQ = ( 200., 3500., )))


TEST_RESU(RESU=(_F(PARA='FREQ',
                   NUME_MODE=4,
                   REFERENCE='SOURCE_EXTERNE',
                   RESULTAT=MODE1,
                   VALE_CALC=322.711984226,
                   VALE_REFE=318.36000000000001,
                   CRITERE='RELATIF',
                   PRECISION=0.014,),
                _F(PARA='FREQ',
                   NUME_MODE=5,
                   REFERENCE='SOURCE_EXTERNE',
                   RESULTAT=MODE1,
                   VALE_CALC=322.712186690,
                   VALE_REFE=318.36000000000001,
                   CRITERE='RELATIF',
                   PRECISION=0.014,),
                _F(PARA='FREQ',
                   NUME_MODE=6,
                   REFERENCE='SOURCE_EXTERNE',
                   RESULTAT=MODE1,
                   VALE_CALC=913.966449361,
                   VALE_REFE=900.46000000000004,
                   CRITERE='RELATIF',
                   PRECISION=0.016,),
                _F(PARA='FREQ',
                   NUME_MODE=7,
                   REFERENCE='SOURCE_EXTERNE',
                   RESULTAT=MODE1,
                   VALE_CALC=913.966450253,
                   VALE_REFE=900.46000000000004,
                   CRITERE='RELATIF',
                   PRECISION=0.016,),
                _F(PARA='FREQ',
                   NUME_MODE=8,
                   REFERENCE='SOURCE_EXTERNE',
                   RESULTAT=MODE1,
                   VALE_CALC= 1.75559914E+03,
                   VALE_REFE=1726.55,
                   CRITERE='RELATIF',
                   PRECISION=0.017000000000000001,),
                _F(PARA='FREQ',
                   NUME_MODE=9,
                   REFERENCE='SOURCE_EXTERNE',
                   RESULTAT=MODE1,
                   VALE_CALC= 1.75559957E+03,
                   VALE_REFE=1726.55,
                   CRITERE='RELATIF',
                   PRECISION=0.017000000000000001,),
                _F(PARA='FREQ',
                   NUME_MODE=10,
                   REFERENCE='SOURCE_EXTERNE',
                   RESULTAT=MODE1,
                   VALE_CALC= 2.84581531E+03,
                   VALE_REFE=2792.21,
                   CRITERE='RELATIF',
                   PRECISION=0.02,),
                _F(PARA='FREQ',
                   NUME_MODE=11,
                   REFERENCE='SOURCE_EXTERNE',
                   RESULTAT=MODE1,
                   VALE_CALC= 2.84581531E+03,
                   VALE_REFE=2792.21,
                   CRITERE='RELATIF',
                   PRECISION=0.02,),
                ),
          )

FIN()
#

