# MODIF  DATE 20/10/2011   AUTEUR SELLENET N.SELLENET 
# TITRE PLAQUE 2D FISSUREE SOUMISE A UN CHARGEMENT EN MODE I.
# sdls120b.para = tps_job 30 mem_job 48Mo liste_test S
#            CONFIGURATION MANAGEMENT OF EDF VERSION
# ======================================================================
# COPYRIGHT (C) 1991 - 2011  EDF R&D                  WWW.CODE-ASTER.ORG
# THIS PROGRAM IS FREE SOFTWARE; YOU CAN REDISTRIBUTE IT AND/OR MODIFY  
# IT UNDER THE TERMS OF THE GNU GENERAL PUBLIC LICENSE AS PUBLISHED BY  
# THE FREE SOFTWARE FOUNDATION; EITHER VERSION 2 OF THE LICENSE, OR     
# (AT YOUR OPTION) ANY LATER VERSION.                                                    
#                                                                       
# THIS PROGRAM IS DISTRIBUTED IN THE HOPE THAT IT WILL BE USEFUL, BUT   
# WITHOUT ANY WARRANTY; WITHOUT EVEN THE IMPLIED WARRANTY OF            
# MERCHANTABILITY OR FITNESS FOR A PARTICULAR PURPOSE. SEE THE GNU      
# GENERAL PUBLIC LICENSE FOR MORE DETAILS.                              
#                                                                       
# YOU SHOULD HAVE RECEIVED A COPY OF THE GNU GENERAL PUBLIC LICENSE     
# ALONG WITH THIS PROGRAM; IF NOT, WRITE TO EDF R&D CODE_ASTER,         
#    1 AVENUE DU GENERAL DE GAULLE, 92141 CLAMART CEDEX, FRANCE.        
# ======================================================================
#       VALIDATION DU CALCUL MODAL AVEC X-FEM

DEBUT(CODE=_F(NOM='SDLS120B',
              NIV_PUB_WEB='INTERNET',
              VISU_EFICAS='NON',),
      DEBUG=_F(SDVERI='OUI',),);

#----------------------------------------------
#                MAILLAGE : hexa_5_30_50.mgib
#----------------------------------------------

MAILLAG1=LIRE_MAILLAGE(INFO=1,FORMAT='MED',);

MAILLAG1=DEFI_GROUP(reuse =MAILLAG1,
                    MAILLAGE=MAILLAG1,
                    CREA_GROUP_NO=_F(GROUP_MA='SURF',),);

MAILLAG1=DEFI_GROUP(reuse =MAILLAG1,
                    MAILLAGE=MAILLAG1,
                    CREA_GROUP_NO=_F(GROUP_MA='BAS',),);

MAILLAG1=DEFI_GROUP(reuse =MAILLAG1,
                    MAILLAGE=MAILLAG1,
                    CREA_GROUP_NO=_F(GROUP_MA='HAUT',),);

#----------------------------------------------
#                   MODELE ET FISSURE
#----------------------------------------------

MODELEIN=AFFE_MODELE(MAILLAGE=MAILLAG1,
                     AFFE=(_F(GROUP_MA='SURF',
                              PHENOMENE='MECANIQUE',
                              MODELISATION='D_PLAN',),
                           _F(GROUP_MA=('BAS','HAUT',),
                              PHENOMENE='MECANIQUE',
                              MODELISATION='D_PLAN',),),);

MAILLAG1=MODI_MAILLAGE(reuse =MAILLAG1,
                       MAILLAGE=MAILLAG1,
                       ORIE_PEAU_2D=_F(GROUP_MA=('BAS','HAUT',),),);

FISS=DEFI_FISS_XFEM(MODELE=MODELEIN,
                    DEFI_FISS=_F(FORM_FISS='SEGMENT',
                                 PFON_ORIG=(5.,15.,0.0,),
                                 PFON_EXTR=(-0.001,15.,0.0,),),
                    INFO=1,);

MODELEK=MODI_MODELE_XFEM(MODELE_IN=MODELEIN,
                         FISSURE=FISS,
                         INFO=1,);

#----------------------------------------------
#                   MATERIAU
#----------------------------------------------
E = 205000000000.0;

nu = 0.0;

rho = 7800.0;


ACIER=DEFI_MATERIAU(ELAS=_F(E=E,
                            NU=nu,
                            RHO=rho,),);

CHAMPMA1=AFFE_MATERIAU(MAILLAGE=MAILLAG1,
                       MODELE=MODELEK,
                       AFFE=_F(TOUT='OUI',
                               MATER=ACIER,),);

#----------------------------------------------
#                   CHARGEMENTS
#----------------------------------------------
PRES = -10000000.0;


CH1=AFFE_CHAR_MECA(MODELE=MODELEK,
                   DDL_IMPO=_F(GROUP_NO='BAS',
                               DX=0.0,
                               DY=0.0,),);

CH2=AFFE_CHAR_MECA(MODELE=MODELEK,
                   PRES_REP=_F(GROUP_MA='HAUT',
                               PRES=PRES,),);

CHXFEM=AFFE_CHAR_MECA(MODELE=MODELEK,
                      LIAISON_XFEM='OUI',
                      INFO=1,);

#----------------------------------------------
#           CALCUL DES MATRICES ELEMENTAIRES
#----------------------------------------------

MELR=CALC_MATR_ELEM(OPTION='RIGI_MECA',
                    MODELE=MODELEK,
                    CHAM_MATER=CHAMPMA1,
                    CHARGE=(CH1,CHXFEM,CH2,),);

MELM=CALC_MATR_ELEM(OPTION='MASS_MECA',
                    MODELE=MODELEK,
                    CHAM_MATER=CHAMPMA1,
                    CHARGE=(CH1,CHXFEM,CH2,),);

#----------------------------------------------
#           ASSEMBLAGE DES MATRICES
#----------------------------------------------

NUM=NUME_DDL(MATR_RIGI=MELR,
             METHODE='MULT_FRONT',);

MATR=ASSE_MATRICE(MATR_ELEM=MELR,
                  NUME_DDL=NUM,);

MATM=ASSE_MATRICE(MATR_ELEM=MELM,
                  NUME_DDL=NUM,);

#---------------------------------------------
#          RESOLUTION DU PROBLEME STATIQUE
#---------------------------------------------


UTOT1=MECA_STATIQUE(MODELE=MODELEK,
                   CHAM_MATER=CHAMPMA1,
                   EXCIT=(_F(CHARGE=CHXFEM),
                          _F(CHARGE=CH1),
                          _F(CHARGE=CH2),
                          ),
                   INFO=1,
                   ); 
# CALCUL DES CONTRAINTES ASSOCIEES

CONTR=CREA_CHAMP(TYPE_CHAM='ELGA_SIEF_R',
                 OPERATION='EXTR',
                 RESULTAT=UTOT1,
                 NOM_CHAM='SIEF_ELGA',
                 NUME_ORDRE=1,);

MELRG=CALC_MATR_ELEM(OPTION='RIGI_GEOM',
                     MODELE=MODELEK,
                     SIEF_ELGA=CONTR,);

MATRG=ASSE_MATRICE(MATR_ELEM=MELRG,
                   NUME_DDL=NUM,);

MATRC=COMB_MATR_ASSE(COMB_R=(_F(MATR_ASSE=MATR,
                                COEF_R=1.0,),
                             _F(MATR_ASSE=MATRG,
                                COEF_R=1.0,),),);

#----------------------------------------------
#                   CALCUL MODAL
#----------------------------------------------

MODES=MODE_ITER_SIMULT(MATR_A=MATRC,
                       MATR_B=MATM,
                       METHODE='SORENSEN',
                       CALC_FREQ=_F(OPTION='PLUS_PETITE',
                                    NMAX_FREQ=8,),);

MA_XFEM=POST_MAIL_XFEM(MODELE=MODELEK,
                       INFO=1,);

MOD_VISU=AFFE_MODELE(MAILLAGE=MA_XFEM,
                     AFFE=_F(TOUT='OUI',
                             PHENOMENE='MECANIQUE',
                             MODELISATION='D_PLAN',),);

RES_XFEM=POST_CHAM_XFEM(MODELE_VISU=MOD_VISU,
                        RESULTAT=MODES,
                        INFO=1,);

IMPR_RESU(FORMAT='GMSH',
          RESU=_F(RESULTAT=RES_XFEM,
                  TYPE_CHAM='VECT_2D',
                  NOM_CMP=('DX','DY',),),);

TEST_RESU(RESU=_F(RESULTAT=MODES,
                  NUME_ORDRE=1,
                  PARA='FREQ',
                  VALE=7.0058116959,
                  CRITERE='RELATIF',
                  PRECISION=0.015,
                  REFERENCE='AUTRE_ASTER',),);


#ET LES TEST_RESU DE NON-REGRESSION

TEST_RESU(RESU=_F(RESULTAT=MODES,
                  NUME_ORDRE=1,
                  PARA='FREQ',
                  VALE=6.9024134670582,
                  CRITERE='RELATIF',
                  PRECISION=1e-06,
                  REFERENCE='NON_REGRESSION',),);


FIN();
