# MODIF  DATE 10/10/2012   AUTEUR COURTOIS M.COURTOIS 
# RESPONSABLE ADBHHPM P.MASSIN
# DATE   : 17/05/2000
# AUTEUR : F. LEBOUVIER (DELTACAD)
# TITRE  : FLAMBEMENT LATERAL D'UNE POUTRE (DEVERSEMENT)
# sdls504b.para = tps_job 60 mem_job 256Mo ncpus 1 liste_test V
#            CONFIGURATION MANAGEMENT OF EDF VERSION
# ======================================================================
# COPYRIGHT (C) 1991 - 2012  EDF R&D                  WWW.CODE-ASTER.ORG
# THIS PROGRAM IS FREE SOFTWARE; YOU CAN REDISTRIBUTE IT AND/OR MODIFY
# IT UNDER THE TERMS OF THE GNU GENERAL PUBLIC LICENSE AS PUBLISHED BY
# THE FREE SOFTWARE FOUNDATION; EITHER VERSION 2 OF THE LICENSE, OR   
# (AT YOUR OPTION) ANY LATER VERSION.                                 
#
# THIS PROGRAM IS DISTRIBUTED IN THE HOPE THAT IT WILL BE USEFUL, BUT 
# WITHOUT ANY WARRANTY; WITHOUT EVEN THE IMPLIED WARRANTY OF          
# MERCHANTABILITY OR FITNESS FOR A PARTICULAR PURPOSE. SEE THE GNU    
# GENERAL PUBLIC LICENSE FOR MORE DETAILS.                            
#
# YOU SHOULD HAVE RECEIVED A COPY OF THE GNU GENERAL PUBLIC LICENSE   
# ALONG WITH THIS PROGRAM; IF NOT, WRITE TO EDF R&D CODE_ASTER,       
#    1 AVENUE DU GENERAL DE GAULLE, 92141 CLAMART CEDEX, FRANCE.      
# ======================================================================
#---------------------------------------------------------------------
#  - CALCUL DE STABILITE D'UNE POUTRE CONSOLE SOUMISE A UN EFFORT
#    DE FLEXION A UNE EXTREMITE. CALCUL DES CHARGES CRITIQUES
#    CONDUISANT AU FLAMBEMENT ELASTIQUE PAR DEVERSEMENT D'UNE POUTRE
#  - MODELISATION AVEC DES ELEMENTS 'COQUE_3D'(QUAD9)
#---------------------------------------------------------------------
#
DEBUT( CODE=_F( NOM = 'SDLS504B',NIV_PUB_WEB='INTERNET'))
#
MA=LIRE_MAILLAGE(FORMAT='MED', )

#
MAIL=CREA_MAILLAGE(     MAILLAGE=MA,
                       MODI_MAILLE=_F( TOUT = 'OUI',    
                                    OPTION = 'QUAD8_9',  
                                    )
                     )

#
MOEL=AFFE_MODELE(   MAILLAGE=MAIL,
                          AFFE=_F( TOUT = 'OUI',          
                                PHENOMENE = 'MECANIQUE',     
                                MODELISATION = 'COQUE_3D',  
                                )
                    )

#
#---------------------------------------------------------------------
#                     CARACTERISTIQUES ELEMENTAIRES
#---------------------------------------------------------------------
#
CAEL=AFFE_CARA_ELEM(   MODELE=MOEL,COQUE=(
                          _F( GROUP_MA = 'SEMELLES',  
                                 EPAIS = 0.0113,     
                                 A_CIS = 5650.,     
                                 ),
                          _F( GROUP_MA = 'AME',  
                                 EPAIS = 0.0075,     
                                 A_CIS = 3750.,     
                                 ANGL_REP = (90., 0.,),  
                                 ))
                       )

#
#---------------------------------------------------------------------
#                     CARACTERISTIQUES MATERIAUX
#---------------------------------------------------------------------
#
MATERIAU=DEFI_MATERIAU(   ELAS=_F( E = 2.E+11,   
                                  NU = 0.3,  
                                  )
                          )

#
CHAM_MAT=AFFE_MATERIAU(   MAILLAGE=MAIL,
                                AFFE=_F( TOUT = 'OUI',   MATER = MATERIAU,  )
                          )

#
#---------------------------------------------------------------------
#                     CHARGEMENTS
#---------------------------------------------------------------------
#
CON_LI=AFFE_CHAR_MECA(        MODELE=MOEL,
                              DDL_IMPO=_F( GROUP_NO = 'ENCASTRE',  
                                        DX = 0.,    DY = 0.,    DZ = 0.,   
                                        DRX = 0.,   DRY = 0.,   DRZ = 0.,  
                                        )
                         )

#
CHARGE=AFFE_CHAR_MECA(         MODELE=MOEL,
                           FORCE_NODALE=_F( GROUP_NO = 'P',  
                                         FY = -1.,        
                                         )
                         )

#
#---------------------------------------------------------------------
#                        RESOLUTION
#---------------------------------------------------------------------
#
RES=MECA_STATIQUE(      MODELE=MOEL,
                      CHAM_MATER=CHAM_MAT,
                       CARA_ELEM=CAEL,EXCIT=(
                           _F( CHARGE = CON_LI,  ),
                           _F( CHARGE = CHARGE,  )),
                    )

#
SIGMA=CREA_CHAMP(   RESULTAT=RES,
                      NOM_CHAM='SIEF_ELGA',
                     OPERATION='EXTR',
                     TYPE_CHAM='ELGA_SIEF_R',
                     TYPE_MAXI='MINI',
                     TYPE_RESU='VALE'
                   )

#
MEL_RI_G=CALC_MATR_ELEM(     OPTION='RIGI_GEOM',
                               MODELE=MOEL,
                            CARA_ELEM=CAEL,
                            SIEF_ELGA=SIGMA
                          )

#
MEL_RI_M=CALC_MATR_ELEM(      OPTION='RIGI_MECA',
                                MODELE=MOEL,
                            CHAM_MATER=CHAM_MAT,
                             CARA_ELEM=CAEL,
                                CHARGE=(CHARGE, CON_LI,)
                          )

#
NUM=NUME_DDL(   MATR_RIGI=MEL_RI_M)

#
MAS_RI_M=ASSE_MATRICE(   MATR_ELEM=MEL_RI_M,   NUME_DDL=NUM)

#
MAS_RI_G=ASSE_MATRICE(   MATR_ELEM=MEL_RI_G,   NUME_DDL=NUM)

#
RESULT=MODE_ITER_SIMULT(      MATR_RIGI=MAS_RI_M,
                                MATR_RIGI_GEOM=MAS_RI_G,
                             CALC_CHAR_CRIT=_F( OPTION = 'PLUS_PETITE',     ),
                             TYPE_RESU='MODE_FLAMB'
                           )


#
#---------------------------------------------------------------------
#                        VERIFICATION DES RESULTATS
#---------------------------------------------------------------------
#
TEST_RESU(RESU=(_F(PARA='CHAR_CRIT',
                   NUME_MODE=5,
                   RESULTAT=RESULT,
                   VALE_CALC=-9.76364015E+04,
                   VALE_REFE=-1.0479782000000001E5,
                   REFERENCE='NON_DEFINI',
                   CRITERE='RELATIF',
                   PRECISION=0.070000000000000007,),
                _F(PARA='CHAR_CRIT',
                   NUME_MODE=6,
                   RESULTAT=RESULT,
                   VALE_CALC= 9.76363946E+04,
                   VALE_REFE=1.0479782000000001E5,
                   REFERENCE='NON_DEFINI',
                   CRITERE='RELATIF',
                   PRECISION=0.070000000000000007,),
                ),
          )

FIN()
#
# 






