
# MODIF  DATE 17/05/2004   AUTEUR CIBHHBC M.LOPES 
# TITRE FREQUENCES PROPRES D'UN ANNEAU CYLINDRIQUE EPAIS MODELISATION SHB8
#            CONFIGURATION MANAGEMENT OF EDF VERSION
# ======================================================================
# COPYRIGHT (C) 1991 - 2003  EDF R&D                  WWW.CODE-ASTER.ORG
# THIS PROGRAM IS FREE SOFTWARE; YOU CAN REDISTRIBUTE IT AND/OR MODIFY  
# IT UNDER THE TERMS OF THE GNU GENERAL PUBLIC LICENSE AS PUBLISHED BY  
# THE FREE SOFTWARE FOUNDATION; EITHER VERSION 2 OF THE LICENSE, OR     
# (AT YOUR OPTION) ANY LATER VERSION.                                                    
#                                                                       
# THIS PROGRAM IS DISTRIBUTED IN THE HOPE THAT IT WILL BE USEFUL, BUT   
# WITHOUT ANY WARRANTY; WITHOUT EVEN THE IMPLIED WARRANTY OF            
# MERCHANTABILITY OR FITNESS FOR A PARTICULAR PURPOSE. SEE THE GNU      
# GENERAL PUBLIC LICENSE FOR MORE DETAILS.                              
#                                                                       
# YOU SHOULD HAVE RECEIVED A COPY OF THE GNU GENERAL PUBLIC LICENSE     
# ALONG WITH THIS PROGRAM; IF NOT, WRITE TO EDF R&D CODE_ASTER,         
#    1 AVENUE DU GENERAL DE GAULLE, 92141 CLAMART CEDEX, FRANCE.        
# ======================================================================

DEBUT(CODE=_F(NOM='SDLS109H',
              NIV_PUB_WEB='INTERNET',VISU_EFICAS='NON',),);

MAIL1=LIRE_MAILLAGE(VERI_MAIL=_F(VERIF='NON',),);

MODKT=AFFE_MODELE(MAILLAGE=MAIL1,
                  AFFE=_F(GROUP_MA='SURF_S',
                          PHENOMENE='MECANIQUE',
                          MODELISATION='DKT',),);

MAIL1=MODI_MAILLAGE(reuse =MAIL1,
                    MAILLAGE=MAIL1,
                    ORIE_NORM_COQUE=_F(GROUP_MA='SURF_S',
                                       VECT_NORM=(0.0,0.0,1.0,),
                                       GROUP_NO='P3_0',),
                    MODELE=MODKT,);

MAIL=CREA_MAILLAGE(MAILLAGE=MAIL1,
                   COQU_VOLU=_F(NOM='VOLUH',
                                GROUP_MA='SURF_S',
                                EPAIS=0.048,
                                PREF_MAILLE='MH',
                                PREF_NOEUD='NH',
                                PLAN='MOY',
                                TRANSLATION='SUP',),);

MAIL=MODI_MAILLAGE(reuse =MAIL,
                   MAILLAGE=MAIL,
                   ORIE_SHB8=_F(GROUP_MA='VOLUH',),);

MOD_SHB=AFFE_MODELE(MAILLAGE=MAIL,
                    AFFE=_F(TOUT='OUI',
                            PHENOMENE='MECANIQUE',
                            MODELISATION='SHB8',),);

M_S=DEFI_MATERIAU(ELAS=_F(E=185000000000.0,
                          NU=0.3,
                          RHO=7800.0,),);

CHAM_MAT=AFFE_MATERIAU(MAILLAGE=MAIL,
                       AFFE=_F(GROUP_MA='VOLUH',
                               MATER=M_S,),);

MK_SHB=CALC_MATR_ELEM(OPTION='RIGI_MECA',
                      MODELE=MOD_SHB,
                      CHAM_MATER=CHAM_MAT,);

MM_SHB=CALC_MATR_ELEM(OPTION='MASS_MECA',
                      MODELE=MOD_SHB,
                      CHAM_MATER=CHAM_MAT,);

NUM_SHB=NUME_DDL(MATR_RIGI=MK_SHB,);

MASK_SHB=ASSE_MATRICE(MATR_ELEM=MK_SHB,
                      NUME_DDL=NUM_SHB,);

MASM_SHB=ASSE_MATRICE(MATR_ELEM=MM_SHB,
                      NUME_DDL=NUM_SHB,);

MODE_SHB=MODE_ITER_SIMULT(MATR_A=MASK_SHB,
                          MATR_B=MASM_SHB,
                          OPTION='SANS',
                          CALC_FREQ=_F(OPTION='BANDE',
                                       FREQ=(200.0,800.0,),),);
# modes hors plan
TEST_RESU(RESU=(_F(RESULTAT=MODE_SHB,
                   NUME_ORDRE=1,
                   PARA='FREQ',
                   VALE=205.89,
                   PRECISION=0.012,
                   REFERENCE='ANALYTIQUE',),
                _F(RESULTAT=MODE_SHB,
                   NUME_ORDRE=2,
                   PARA='FREQ',
                   VALE=205.89,
                   PRECISION=0.012,
                   REFERENCE='ANALYTIQUE',),
                   ),);
# modes d ovalidation
                   
TEST_RESU(RESU=(_F(RESULTAT=MODE_SHB,
                   NUME_ORDRE=3,
                   PARA='FREQ',
                   VALE=210.55,
                   PRECISION=0.009,
                   REFERENCE='ANALYTIQUE',),
                _F(RESULTAT=MODE_SHB,
                   NUME_ORDRE=4,
                   PARA='FREQ',
                   VALE=210.55,
                   PRECISION=0.009,
                   REFERENCE='ANALYTIQUE',),
                   ),);
                   
# modes trifolies

TEST_RESU(RESU=(_F(RESULTAT=MODE_SHB,
                   NUME_ORDRE=5,
                   PARA='FREQ',
                   VALE=587.92,
                   PRECISION=0.005,
                   REFERENCE='ANALYTIQUE',),
                _F(RESULTAT=MODE_SHB,
                   NUME_ORDRE=6,
                   PARA='FREQ',
                   VALE=587.92,
                   PRECISION=0.005,
                   REFERENCE='ANALYTIQUE',),
                   ),);

# modes hors plan
TEST_RESU(RESU=(_F(RESULTAT=MODE_SHB,
                   NUME_ORDRE=7,
                   PARA='FREQ',
                   VALE=588.88,
                   PRECISION=0.011,
                   REFERENCE='ANALYTIQUE',),
                _F(RESULTAT=MODE_SHB,
                   NUME_ORDRE=8,
                   PARA='FREQ',
                   VALE=588.88,
                   PRECISION=0.011,
                   REFERENCE='ANALYTIQUE',),
                   ),);

MASSIN=POST_ELEM(MASS_INER=_F(TOUT='OUI',),
                 MODELE=MOD_SHB,
                 CHAM_MATER=CHAM_MAT,);

IMPR_TABLE(TABLE=MASSIN,);
RM = 0.369;

EP = 0.048;

L = 0.05;

RHO = 7800.0;

REXT = RM+0.5*EP;

RINT = RM-0.5*EP;

SURF = 3.1415926535*(REXT*REXT-RINT*RINT);

VOL = SURF*L;

MASS = VOL*RHO




TEST_TABLE(TABLE=MASSIN,
           NOM_PARA='MASSE',
           VALE=MASS,
           PRECISION=0.01,
           REFERENCE='ANALYTIQUE',);

DEFI_FICHIER(UNITE=37,
             FICHIER='GMSH',);

IMPR_RESU(RESU=_F(FORMAT='GMSH',
                  RESULTAT=MODE_SHB,
                  FICHIER='GMSH',),);


FIN();
