# MODIF  DATE 10/10/2012   AUTEUR COURTOIS M.COURTOIS 
# TITRE PLAQUE CARREE MINCE , LIBRE OU ENCASTREE SUR UN BORD
# sdls01f.para = tps_job 60 mem_job 512Mo ncpus 1 liste_test S
#            CONFIGURATION MANAGEMENT OF EDF VERSION
# ======================================================================
# COPYRIGHT (C) 1991 - 2012  EDF R&D                  WWW.CODE-ASTER.ORG
# THIS PROGRAM IS FREE SOFTWARE; YOU CAN REDISTRIBUTE IT AND/OR MODIFY
# IT UNDER THE TERMS OF THE GNU GENERAL PUBLIC LICENSE AS PUBLISHED BY
# THE FREE SOFTWARE FOUNDATION; EITHER VERSION 2 OF THE LICENSE, OR
# (AT YOUR OPTION) ANY LATER VERSION.
#
# THIS PROGRAM IS DISTRIBUTED IN THE HOPE THAT IT WILL BE USEFUL, BUT
# WITHOUT ANY WARRANTY; WITHOUT EVEN THE IMPLIED WARRANTY OF
# MERCHANTABILITY OR FITNESS FOR A PARTICULAR PURPOSE. SEE THE GNU
# GENERAL PUBLIC LICENSE FOR MORE DETAILS.
#
# YOU SHOULD HAVE RECEIVED A COPY OF THE GNU GENERAL PUBLIC LICENSE
# ALONG WITH THIS PROGRAM; IF NOT, WRITE TO EDF R&D CODE_ASTER,
#    1 AVENUE DU GENERAL DE GAULLE, 92141 CLAMART CEDEX, FRANCE.
# ======================================================================

DEBUT(CODE=_F(NOM='SDLS01F',NIV_PUB_WEB='INTERNET'),DEBUG=_F(SDVERI='OUI'))

# PLAQUE CARREE MINCE  LIBRE OU ENCASTREE SUR UN BORD
# DIMENSION: 1M*1M*0.01M
#
# CAS 1: ENCASTREE    CAS 2: LIBRE                 REF: SFM.VPCS SDLS01
#
# MODELISATION MEC3TR7H: 441 NOEUDS -- 200 MAILLES TRIA6

MA=LIRE_MAILLAGE(FORMAT='MED', )

MA=DEFI_GROUP( reuse=MA,   MAILLAGE=MA,
  CREA_GROUP_MA=_F(  NOM = 'TOUT', TOUT = 'OUI'))

MO=AFFE_MODELE(  MAILLAGE=MA,
                  AFFE=_F(  TOUT = 'OUI',       PHENOMENE = 'MECANIQUE',
                         MODELISATION = 'COQUE_3D') )

CARELEM=AFFE_CARA_ELEM(   MODELE=MO,
                            COQUE=_F(
       GROUP_MA = 'TOUT',
  EPAIS = 0.01,
                                  A_CIS = 0.83333333333333) )

MAT=DEFI_MATERIAU( ELAS=_F(  E = 2.1E+11,  NU = 0.3,  RHO = 7800.) )

CHMAT=AFFE_MATERIAU(  MAILLAGE=MA,
                       AFFE=_F(  TOUT = 'OUI',  MATER = MAT) )

#--------------------------------------------------------------------

# ---- CAS1: PLAQUE ENCASTREE SUR UN COTE

CHCAS1=AFFE_CHAR_MECA(  MODELE=MO,
           DDL_IMPO=_F(  GROUP_NO = 'AB',       DX = 0.,  DY = 0., DZ = 0.,
                                        DRX = 0., DRY = 0., DRZ = 0.) )

# ---- CAS2: PLAQUE LIBRE-LIBRE   ==>   PAS DE CHCAS2


# ------ CAS1


MACRO_MATR_ASSE(   MODELE=MO,           CARA_ELEM=CARELEM,
                       CHARGE=CHCAS1,       CHAM_MATER=CHMAT,
                      NUME_DDL=CO("NUM"),MATR_ASSE=(
                _F(  MATRICE = CO("MATASSR1"),  OPTION = 'RIGI_MECA'),
                          _F(  MATRICE = CO("MATASSM1"),  OPTION = 'MASS_MECA'))
                   )

# ------ CAS2


MACRO_MATR_ASSE(   MODELE=MO,           CARA_ELEM=CARELEM,
                                           CHAM_MATER=CHMAT,
                      NUME_DDL=CO("NUM2"),MATR_ASSE=(
                _F(  MATRICE = CO("MATASSR2"),  OPTION = 'RIGI_MECA'),
                          _F(  MATRICE = CO("MATASSM2"),  OPTION = 'MASS_MECA'))
                   )

#====================================================================
#                CALCUL MODAL
#--------- CAS1

MODE1=MODE_ITER_SIMULT(  MATR_RIGI=MATASSR1,      MATR_MASS=MATASSM1,
                     CALC_FREQ=_F(  FREQ = (8., 150.,), OPTION = 'BANDE')
                        )


TEST_RESU(RESU=(_F(NUME_ORDRE=1,
                   PARA='FREQ',
                   RESULTAT=MODE1,
                   VALE_CALC=8.693451293,
                   VALE_REFE=8.7265999999999995,
                   REFERENCE='NON_DEFINI',
                   CRITERE='RELATIF',
                   PRECISION=1.E-2,),
                _F(NUME_ORDRE=2,
                   PARA='FREQ',
                   RESULTAT=MODE1,
                   VALE_CALC=21.354334491,
                   VALE_REFE=21.304200000000002,
                   REFERENCE='NON_DEFINI',
                   CRITERE='RELATIF',
                   PRECISION=1.E-2,),
                _F(NUME_ORDRE=3,
                   PARA='FREQ',
                   RESULTAT=MODE1,
                   VALE_CALC=53.490384114,
                   VALE_REFE=53.554200000000002,
                   REFERENCE='NON_DEFINI',
                   CRITERE='RELATIF',
                   PRECISION=1.E-2,),
                _F(NUME_ORDRE=4,
                   PARA='FREQ',
                   RESULTAT=MODE1,
                   VALE_CALC=68.466055130,
                   VALE_REFE=68.298400000000001,
                   REFERENCE='NON_DEFINI',
                   CRITERE='RELATIF',
                   PRECISION=1.E-2,),
                _F(NUME_ORDRE=5,
                   PARA='FREQ',
                   RESULTAT=MODE1,
                   VALE_CALC=78.291347091,
                   VALE_REFE=77.744799999999998,
                   REFERENCE='NON_DEFINI',
                   CRITERE='RELATIF',
                   PRECISION=1.E-2,),
                _F(NUME_ORDRE=6,
                   PARA='FREQ',
                   RESULTAT=MODE1,
                   VALE_CALC=138.752330817,
                   VALE_REFE=136.0471,
                   REFERENCE='NON_DEFINI',
                   CRITERE='RELATIF',
                   PRECISION=0.021000000000000001,),
                ),
          )

#--------- CAS2

MODE2=MODE_ITER_SIMULT(  MATR_RIGI=MATASSR2,      MATR_MASS=MATASSM2,
              CALC_FREQ=_F(   FREQ = ( 0.,  90., ), OPTION = 'BANDE')
                        )


TEST_RESU(RESU=(_F(PARA='FREQ',
                   NUME_MODE=7,
                   RESULTAT=MODE2,
                   VALE_CALC=33.545113288,
                   VALE_REFE=33.7119,
                   REFERENCE='NON_DEFINI',
                   CRITERE='RELATIF',
                   PRECISION=0.010999999999999999,),
                _F(PARA='FREQ',
                   NUME_MODE=8,
                   RESULTAT=MODE2,
                   VALE_CALC=49.042539073,
                   VALE_REFE=49.455800000000004,
                   REFERENCE='NON_DEFINI',
                   CRITERE='RELATIF',
                   PRECISION=0.010999999999999999,),
                _F(PARA='FREQ',
                   NUME_MODE=9,
                   RESULTAT=MODE2,
                   VALE_CALC=60.787424470,
                   VALE_REFE=61.051299999999998,
                   REFERENCE='NON_DEFINI',
                   CRITERE='RELATIF',
                   PRECISION=0.010999999999999999,),
                _F(PARA='FREQ',
                   NUME_MODE=10,
                   RESULTAT=MODE2,
                   VALE_CALC=87.016823457,
                   VALE_REFE=87.516000000000005,
                   REFERENCE='NON_DEFINI',
                   CRITERE='RELATIF',
                   PRECISION=0.010999999999999999,),
                _F(PARA='FREQ',
                   NUME_MODE=11,
                   RESULTAT=MODE2,
                   VALE_CALC=87.780015537,
                   VALE_REFE=87.516000000000005,
                   REFERENCE='NON_DEFINI',
                   CRITERE='RELATIF',
                   PRECISION=0.010999999999999999,),
                ),
          )

#
#
#
#====================================================================
#                ENERGIE CINETIQUE ET POTENTIELLE
#
#
#   ON COMPARE AVEC LA SOLUTION DE REFERENCE
#
#             ECIN GLOBALE = EPOT GLOBALE = 1 / 2 * OMEGA2
#
#   CAR LA NORMALISATION DES MODES ASSURE QUE
#
#              ( PHI ) T ( M ) ( PHI ) =
#
#--------- CAS1

MODE1=CALC_CHAMP(reuse=MODE1,RESULTAT=MODE1,ENERGIE=('EPOT_ELEM','ECIN_ELEM'))


MODE1=NORM_MODE( reuse=MODE1,   MODE=MODE1,
                        NORME='MASS_GENE')

EPOT1=POST_ELEM(  RESULTAT=MODE1,       MODELE=MO,
                     CHAM_MATER=CHMAT,     CARA_ELEM=CARELEM,
                    ENER_POT=_F(  TOUT = 'OUI')                )

ECIN1=POST_ELEM(  RESULTAT=MODE1,       MODELE=MO,
                     CHAM_MATER=CHMAT,     CARA_ELEM=CARELEM,
                    ENER_CIN=_F(  TOUT = 'OUI')                )

TEST_RESU(RESU=(_F(NUME_ORDRE=1,
                   POINT=1,
                   RESULTAT=MODE1,
                   NOM_CHAM='ECIN_ELEM',
                   NOM_CMP='TOTALE',
                   VALE_CALC=4.89512E-4,
                   TOLE_MACHINE=1.E-3,
                   CRITERE='RELATIF',
                   MAILLE='MA000001',),
                _F(NUME_ORDRE=1,
                   POINT=1,
                   RESULTAT=MODE1,
                   NOM_CHAM='ECIN_ELEM',
                   NOM_CMP='MEMBRANE',
                   VALE_CALC=4.8424100000000001E-3,
                   TOLE_MACHINE=1.E-3,
                   CRITERE='RELATIF',
                   MAILLE='MA000001',),
                _F(NUME_ORDRE=1,
                   POINT=1,
                   RESULTAT=MODE1,
                   NOM_CHAM='ECIN_ELEM',
                   NOM_CMP='FLEXION',
                   VALE_CALC=4.8424100000000001E-3,
                   TOLE_MACHINE=1.E-3,
                   CRITERE='RELATIF',
                   MAILLE='MA000001',),
                ),
          )

#

TEST_TABLE(PRECISION=8.0000000000000002E-3,
           VALE_CALC= 1.49181233E+03,
           VALE_REFE=1503.2,
           REFERENCE='NON_DEFINI',
           NOM_PARA='TOTALE',
           TABLE=EPOT1,
           FILTRE=(_F(NOM_PARA='LIEU',
                      VALE_K='MA',),
                   _F(NOM_PARA='NUME_ORDRE',
                      VALE_I=1,),
                   ),
           )

TEST_TABLE(PRECISION=5.0000000000000001E-3,
           VALE_CALC= 9.00122926E+03,
           VALE_REFE=8959.0,
           REFERENCE='NON_DEFINI',
           NOM_PARA='TOTALE',
           TABLE=EPOT1,
           FILTRE=(_F(NOM_PARA='LIEU',
                      VALE_K='MA',),
                   _F(NOM_PARA='NUME_ORDRE',
                      VALE_I=2,),
                   ),
           )

TEST_TABLE(PRECISION=3.0000000000000001E-3,
           VALE_CALC= 5.64782426E+04,
           VALE_REFE=5.6613E4,
           REFERENCE='NON_DEFINI',
           NOM_PARA='TOTALE',
           TABLE=EPOT1,
           FILTRE=(_F(NOM_PARA='LIEU',
                      VALE_K='MA',),
                   _F(NOM_PARA='NUME_ORDRE',
                      VALE_I=3,),
                   ),
           )

TEST_TABLE(PRECISION=6.0000000000000001E-3,
           VALE_CALC= 9.25295291E+04,
           VALE_REFE=9.2077E4,
           REFERENCE='NON_DEFINI',
           NOM_PARA='TOTALE',
           TABLE=EPOT1,
           FILTRE=(_F(NOM_PARA='LIEU',
                      VALE_K='MA',),
                   _F(NOM_PARA='NUME_ORDRE',
                      VALE_I=4,),
                   ),
           )

TEST_TABLE(PRECISION=0.014999999999999999,
           VALE_CALC= 1.20992172E+05,
           VALE_REFE=1.19310E5,
           REFERENCE='NON_DEFINI',
           NOM_PARA='TOTALE',
           TABLE=EPOT1,
           FILTRE=(_F(NOM_PARA='LIEU',
                      VALE_K='MA',),
                   _F(NOM_PARA='NUME_ORDRE',
                      VALE_I=5,),
                   ),
           )

TEST_TABLE(PRECISION=0.041000000000000002,
           VALE_CALC= 3.80023379E+05,
           VALE_REFE=3.65350E5,
           REFERENCE='NON_DEFINI',
           NOM_PARA='TOTALE',
           TABLE=EPOT1,
           FILTRE=(_F(NOM_PARA='LIEU',
                      VALE_K='MA',),
                   _F(NOM_PARA='NUME_ORDRE',
                      VALE_I=6,),
                   ),
           )

#
#

TEST_TABLE(PRECISION=8.0000000000000002E-3,
           VALE_CALC= 1.49181233E+03,
           VALE_REFE=1503.2,
           REFERENCE='NON_DEFINI',
           NOM_PARA='TOTALE',
           TABLE=ECIN1,
           FILTRE=(_F(NOM_PARA='LIEU',
                      VALE_K='MA',),
                   _F(NOM_PARA='NUME_ORDRE',
                      VALE_I=1,),
                   ),
           )

TEST_TABLE(PRECISION=5.0000000000000001E-3,
           VALE_CALC= 9.00122926E+03,
           VALE_REFE=8959.0,
           REFERENCE='NON_DEFINI',
           NOM_PARA='TOTALE',
           TABLE=ECIN1,
           FILTRE=(_F(NOM_PARA='LIEU',
                      VALE_K='MA',),
                   _F(NOM_PARA='NUME_ORDRE',
                      VALE_I=2,),
                   ),
           )

TEST_TABLE(PRECISION=3.0000000000000001E-3,
           VALE_CALC= 5.64782426E+04,
           VALE_REFE=5.6613E4,
           REFERENCE='NON_DEFINI',
           NOM_PARA='TOTALE',
           TABLE=ECIN1,
           FILTRE=(_F(NOM_PARA='LIEU',
                      VALE_K='MA',),
                   _F(NOM_PARA='NUME_ORDRE',
                      VALE_I=3,),
                   ),
           )

TEST_TABLE(PRECISION=6.0000000000000001E-3,
           VALE_CALC= 9.25295291E+04,
           VALE_REFE=9.2077E4,
           REFERENCE='NON_DEFINI',
           NOM_PARA='TOTALE',
           TABLE=ECIN1,
           FILTRE=(_F(NOM_PARA='LIEU',
                      VALE_K='MA',),
                   _F(NOM_PARA='NUME_ORDRE',
                      VALE_I=4,),
                   ),
           )

TEST_TABLE(PRECISION=0.014999999999999999,
           VALE_CALC= 1.20992172E+05,
           VALE_REFE=1.19310E5,
           REFERENCE='NON_DEFINI',
           NOM_PARA='TOTALE',
           TABLE=ECIN1,
           FILTRE=(_F(NOM_PARA='LIEU',
                      VALE_K='MA',),
                   _F(NOM_PARA='NUME_ORDRE',
                      VALE_I=5,),
                   ),
           )

TEST_TABLE(PRECISION=0.041000000000000002,
           VALE_CALC= 3.80023379E+05,
           VALE_REFE=3.65350E5,
           REFERENCE='NON_DEFINI',
           NOM_PARA='TOTALE',
           TABLE=ECIN1,
           FILTRE=(_F(NOM_PARA='LIEU',
                      VALE_K='MA',),
                   _F(NOM_PARA='NUME_ORDRE',
                      VALE_I=6,),
                   ),
           )

#
#
#--------- CAS2


MODE2=NORM_MODE( reuse=MODE2,   MODE=MODE2,
                        NORME='MASS_GENE')

MODE2=CALC_CHAMP(reuse=MODE2,RESULTAT=MODE2,ENERGIE=('EPOT_ELEM','ECIN_ELEM'))


EPOT2=POST_ELEM(  RESULTAT=MODE2,       MODELE=MO,
                     CHAM_MATER=CHMAT,     CARA_ELEM=CARELEM,
                    ENER_POT=_F(  TOUT = 'OUI')                )

ECIN2=POST_ELEM(  RESULTAT=MODE2,       MODELE=MO,
                     CHAM_MATER=CHMAT,     CARA_ELEM=CARELEM,
                    ENER_CIN=_F(  TOUT = 'OUI')                )

TEST_TABLE(PRECISION=1.E-2,
           VALE_CALC= 2.22120308E+04,
           VALE_REFE=2.2433456999999999E4,
           REFERENCE='NON_DEFINI',
           NOM_PARA='TOTALE',
           TABLE=EPOT2,
           FILTRE=(_F(NOM_PARA='LIEU',
                      VALE_K='MA',),
                   _F(NOM_PARA='NUME_ORDRE',
                      VALE_I=7,),
                   ),
           )

TEST_TABLE(PRECISION=0.017000000000000001,
           VALE_CALC= 4.74761654E+04,
           VALE_REFE=4.8279660000000003E4,
           REFERENCE='NON_DEFINI',
           NOM_PARA='TOTALE',
           TABLE=EPOT2,
           FILTRE=(_F(NOM_PARA='LIEU',
                      VALE_K='MA',),
                   _F(NOM_PARA='NUME_ORDRE',
                      VALE_I=8,),
                   ),
           )

TEST_TABLE(PRECISION=8.9999999999999993E-3,
           VALE_CALC= 7.29385671E+04,
           VALE_REFE=7.3573187999999995E4,
           REFERENCE='NON_DEFINI',
           NOM_PARA='TOTALE',
           TABLE=EPOT2,
           FILTRE=(_F(NOM_PARA='LIEU',
                      VALE_K='MA',),
                   _F(NOM_PARA='NUME_ORDRE',
                      VALE_I=9,),
                   ),
           )

TEST_TABLE(PRECISION=2.E-3,
           VALE_CALC= 1.49463859E+05,
           VALE_REFE=1.4974629000000001E5,
           REFERENCE='NON_DEFINI',
           NOM_PARA='TOTALE',
           TABLE=EPOT2,
           FILTRE=(_F(NOM_PARA='LIEU',
                      VALE_K='MA',),
                   _F(NOM_PARA='NUME_ORDRE',
                      VALE_I=10,),
                   ),
           )

TEST_TABLE(PRECISION=0.017000000000000001,
           VALE_CALC= 1.52097140E+05,
           VALE_REFE=1.4974629000000001E5,
           REFERENCE='NON_DEFINI',
           NOM_PARA='TOTALE',
           TABLE=EPOT2,
           FILTRE=(_F(NOM_PARA='LIEU',
                      VALE_K='MA',),
                   _F(NOM_PARA='NUME_ORDRE',
                      VALE_I=11,),
                   ),
           )

TEST_TABLE(PRECISION=1.E-2,
           VALE_CALC= 2.22120308E+04,
           VALE_REFE=2.2433E4,
           REFERENCE='NON_DEFINI',
           NOM_PARA='TOTALE',
           TABLE=ECIN2,
           FILTRE=(_F(NOM_PARA='LIEU',
                      VALE_K='MA',),
                   _F(NOM_PARA='NUME_ORDRE',
                      VALE_I=7,),
                   ),
           )

TEST_TABLE(PRECISION=0.017000000000000001,
           VALE_CALC= 4.74761654E+04,
           VALE_REFE=4.8280E4,
           REFERENCE='NON_DEFINI',
           NOM_PARA='TOTALE',
           TABLE=ECIN2,
           FILTRE=(_F(NOM_PARA='LIEU',
                      VALE_K='MA',),
                   _F(NOM_PARA='NUME_ORDRE',
                      VALE_I=8,),
                   ),
           )

TEST_TABLE(PRECISION=8.9999999999999993E-3,
           VALE_CALC= 7.29385671E+04,
           VALE_REFE=7.3573E4,
           REFERENCE='NON_DEFINI',
           NOM_PARA='TOTALE',
           TABLE=ECIN2,
           FILTRE=(_F(NOM_PARA='LIEU',
                      VALE_K='MA',),
                   _F(NOM_PARA='NUME_ORDRE',
                      VALE_I=9,),
                   ),
           )

TEST_TABLE(PRECISION=0.012,
           VALE_CALC= 1.49463859E+05,
           VALE_REFE=1.51180E5,
           REFERENCE='NON_DEFINI',
           NOM_PARA='TOTALE',
           TABLE=ECIN2,
           FILTRE=(_F(NOM_PARA='LIEU',
                      VALE_K='MA',),
                   _F(NOM_PARA='NUME_ORDRE',
                      VALE_I=10,),
                   ),
           )

TEST_TABLE(PRECISION=0.017000000000000001,
           VALE_CALC= 1.52097140E+05,
           VALE_REFE=1.51180E5,
           REFERENCE='NON_DEFINI',
           NOM_PARA='TOTALE',
           TABLE=ECIN2,
           FILTRE=(_F(NOM_PARA='LIEU',
                      VALE_K='MA',),
                   _F(NOM_PARA='NUME_ORDRE',
                      VALE_I=11,),
                   ),
           )

# --------------------------------------------------------------------
#
FIN()
#






