# MODIF  DATE 30/07/2012   AUTEUR LEFEBVRE J-P.LEFEBVRE 
# TITRE ETUDES DE MAILLAGE SUR UNE PLAQUE CARREE MINCE (DISTORDU)
# sdls100c.para = tps_job 60 mem_job 512Mo ncpus 1 liste_test S
#            CONFIGURATION MANAGEMENT OF EDF VERSION
# ======================================================================
# COPYRIGHT (C) 1991 - 2012  EDF R&D                  WWW.CODE-ASTER.ORG
# THIS PROGRAM IS FREE SOFTWARE; YOU CAN REDISTRIBUTE IT AND/OR MODIFY
# IT UNDER THE TERMS OF THE GNU GENERAL PUBLIC LICENSE AS PUBLISHED BY
# THE FREE SOFTWARE FOUNDATION; EITHER VERSION 2 OF THE LICENSE, OR
# (AT YOUR OPTION) ANY LATER VERSION.
#
# THIS PROGRAM IS DISTRIBUTED IN THE HOPE THAT IT WILL BE USEFUL, BUT
# WITHOUT ANY WARRANTY; WITHOUT EVEN THE IMPLIED WARRANTY OF
# MERCHANTABILITY OR FITNESS FOR A PARTICULAR PURPOSE. SEE THE GNU
# GENERAL PUBLIC LICENSE FOR MORE DETAILS.
#
# YOU SHOULD HAVE RECEIVED A COPY OF THE GNU GENERAL PUBLIC LICENSE
# ALONG WITH THIS PROGRAM; IF NOT, WRITE TO EDF R&D CODE_ASTER,
#    1 AVENUE DU GENERAL DE GAULLE, 92141 CLAMART CEDEX, FRANCE.
# ======================================================================
#CAS_TEST__: SDLS100C
# SDLS100/C               COMMANDES                             5/03/91
# ETUDES DE MAILLAGES SUR PLAQUE CARREE MINCE
# DIMENSION 10*10*0.05 M  -- POSEE SUR UN COTE+ROTY BLOQUEE
# TEST 2                                             REF: NAFEMS TEST16
# MODELISATION DKT : 25 NOEUDS -- 32 MAILLES TRIA3
#=======================================================================
#

DEBUT(CODE=_F(NOM='SDLS100C',NIV_PUB_WEB='INTERNET'),DEBUG=_F(SDVERI='OUI'))

MA=LIRE_MAILLAGE( )

MA=DEFI_GROUP( reuse=MA,   MAILLAGE=MA,
  CREA_GROUP_MA=_F(  NOM = 'TOUT', TOUT = 'OUI'))

MO=AFFE_MODELE(  MAILLAGE=MA,
                  AFFE=_F(  TOUT = 'OUI',      PHENOMENE = 'MECANIQUE',
                         MODELISATION = 'DKT') )

CARELEM=AFFE_CARA_ELEM(   MODELE=MO,
                            COQUE=_F(
       GROUP_MA = 'TOUT',
  EPAIS = 0.05) )

MAT=DEFI_MATERIAU( ELAS=_F(  E = 2.0E+11,  NU = 0.3,  RHO = 8000.) )

CHMAT=AFFE_MATERIAU(  MAILLAGE=MA,
                       AFFE=_F(  TOUT = 'OUI',     MATER = MAT) )

# --------------------------------------------------------------------
#
# ---- PLAQUE POSEE SUR UN COTE + ROT/Y BLOQUEE

CHMEC=AFFE_CHAR_MECA(  MODELE=MO,
              DDL_IMPO=_F(  GROUP_NO = 'COTE',
                         DX = 0., DY = 0., DZ = 0., DRY = 0.) )

#--------------------------------------------------------------------

MELR=CALC_MATR_ELEM(  MODELE=MO,           CHARGE=CHMEC,
                        CARA_ELEM=CARELEM,
                        CHAM_MATER=CHMAT,   OPTION='RIGI_MECA'  )

MELM=CALC_MATR_ELEM(  MODELE=MO,           CHARGE=CHMEC,
                        CARA_ELEM=CARELEM,
                        CHAM_MATER=CHMAT,   OPTION='MASS_MECA'  )

#--------------------------------------------------------------------

NUM=NUME_DDL(  MATR_RIGI=MELR )

MATASSR=ASSE_MATRICE(MATR_ELEM=MELR,NUME_DDL=NUM)

MATASSM=ASSE_MATRICE(MATR_ELEM=MELM,NUME_DDL=NUM)

#
#====================================================================
#
#               CALCUL MODAL

MODE=MODE_ITER_SIMULT(  MATR_A=MATASSR,       MATR_B=MATASSM,
                 METHODE='TRI_DIAG',
                CALC_FREQ=_F(  OPTION = 'PLUS_PETITE',
                            NMAX_FREQ = 12)  )

# --------------------------------------------------------------------


TEST_RESU(RESU=(
   _F(   RESULTAT = MODE, REFERENCE = 'ANALYTIQUE', PARA = 'FREQ',
           CRITERE = 'RELATIF',     PRECISION = 1.6E-2,
           NUME_ORDRE = 1,       VALE = 0.421),
   _F(   RESULTAT = MODE, REFERENCE = 'ANALYTIQUE', PARA = 'FREQ',
           CRITERE = 'RELATIF',     PRECISION = 1.6E-2,
           NUME_ORDRE = 2,       VALE = 1.029),
   _F(   RESULTAT = MODE, REFERENCE = 'ANALYTIQUE', PARA = 'FREQ',
           CRITERE = 'RELATIF',     PRECISION = 1.6E-2,
           NUME_ORDRE = 3,       VALE = 2.582),
   _F(   RESULTAT = MODE, REFERENCE = 'ANALYTIQUE', PARA = 'FREQ',
           CRITERE = 'RELATIF',     PRECISION = 1.6E-2,
           NUME_ORDRE = 4,       VALE = 3.306),
   _F(   RESULTAT = MODE, REFERENCE = 'ANALYTIQUE', PARA = 'FREQ',
           CRITERE = 'RELATIF',     PRECISION = 1.6E-2,
           NUME_ORDRE = 5,       VALE = 3.753),
   _F(   RESULTAT = MODE, REFERENCE = 'ANALYTIQUE', PARA = 'FREQ',
           CRITERE = 'RELATIF',     PRECISION = 1.6E-2,
           NUME_ORDRE = 6,       VALE = 6.555),
           #-----------------------------------------
           # TESTS / RESULTATS ASTER V1.02.12 -------
           #-----------------------------------------
   _F(   RESULTAT = MODE, REFERENCE = 'NON_REGRESSION', PARA = 'FREQ',
           CRITERE = 'RELATIF',     PRECISION = 3.E-2,
           NUME_ORDRE = 7,       VALE = 7.3756),
   _F(   RESULTAT = MODE, REFERENCE = 'NON_REGRESSION', PARA = 'FREQ',
           CRITERE = 'RELATIF',     PRECISION = 2.E-2,
           NUME_ORDRE = 8,       VALE = 7.7332),
   _F(   RESULTAT = MODE, REFERENCE = 'NON_REGRESSION', PARA = 'FREQ',
           CRITERE = 'RELATIF',     PRECISION = 3.E-2,
           NUME_ORDRE = 9,       VALE = 8.5567),
   _F(   RESULTAT = MODE, REFERENCE = 'NON_REGRESSION', PARA = 'FREQ',
           CRITERE = 'RELATIF',     PRECISION = 4.E-2,
           NUME_ORDRE = 10,      VALE = 11.1199),
   _F(   RESULTAT = MODE, REFERENCE = 'NON_REGRESSION', PARA = 'FREQ',
           CRITERE = 'RELATIF',     PRECISION = 4.E-2,
           NUME_ORDRE = 11,      VALE = 11.6474),
   _F(   RESULTAT = MODE, REFERENCE = 'NON_REGRESSION', PARA = 'FREQ',
           CRITERE = 'RELATIF',     PRECISION = 8.E-2,
           NUME_ORDRE = 12,      VALE = 14.3531)) )

FIN()
#
