# person_in_charge: patrick.massin at edf.fr
# DATE   : 19/05/2000
# AUTEUR : F. LEBOUVIER (DELTACAD )
# ======================================================================
# COPYRIGHT (C) 1991 - 2016  EDF R&D                  WWW.CODE-ASTER.ORG
# THIS PROGRAM IS FREE SOFTWARE; YOU CAN REDISTRIBUTE IT AND/OR MODIFY
# IT UNDER THE TERMS OF THE GNU GENERAL PUBLIC LICENSE AS PUBLISHED BY
# THE FREE SOFTWARE FOUNDATION; EITHER VERSION 2 OF THE LICENSE, OR   
# (AT YOUR OPTION) ANY LATER VERSION.                                 
#
# THIS PROGRAM IS DISTRIBUTED IN THE HOPE THAT IT WILL BE USEFUL, BUT 
# WITHOUT ANY WARRANTY; WITHOUT EVEN THE IMPLIED WARRANTY OF          
# MERCHANTABILITY OR FITNESS FOR A PARTICULAR PURPOSE. SEE THE GNU    
# GENERAL PUBLIC LICENSE FOR MORE DETAILS.                            
#
# YOU SHOULD HAVE RECEIVED A COPY OF THE GNU GENERAL PUBLIC LICENSE   
# ALONG WITH THIS PROGRAM; IF NOT, WRITE TO EDF R&D CODE_ASTER,       
#    1 AVENUE DU GENERAL DE GAULLE, 92141 CLAMART CEDEX, FRANCE.      
# ======================================================================
#---------------------------------------------------------------------
#  - CALCUL EN ANALYSE MODALE DYNAMIQUE D'UNE PLAQUE CARREE EPAISSE 
#    SIMPLEMENT SUPPORTEE 
#  - MODELISATION AVEC DES ELEMENTS 3D (QUAD4) 
#---------------------------------------------------------------------
#
DEBUT( CODE=_F(NIV_PUB_WEB='INTERNET'),);

PLAQ_MA=LIRE_MAILLAGE(VERI_MAIL=_F(VERIF='OUI'),FORMAT='MED', );

#
MODEL=AFFE_MODELE(   MAILLAGE=PLAQ_MA,
                           AFFE=_F( TOUT = 'OUI',
                                 PHENOMENE = 'MECANIQUE',
                                 MODELISATION = '3D',),);
PLAQ_MA=DEFI_GROUP(reuse =PLAQ_MA,
                MAILLAGE=PLAQ_MA,
                CREA_GROUP_NO=_F(GROUP_MA='BORDS',NOM='BORDS',),);
#
#---------------------------------------------------------------------
#                     CARACTERISTIQUES ELEMENTAIRES 
#---------------------------------------------------------------------
#
CARA_ELE=AFFE_CARA_ELEM(MODELE=MODEL,
                        MASSIF=_F(GROUP_MA='TOUT_ELT',
                                  ANGL_REP=(15.5,0.0),),);

#
#---------------------------------------------------------------------
#                     CARACTERISTIQUES MATERIAUX 
#---------------------------------------------------------------------
#
ACIER=DEFI_MATERIAU(   ELAS=_F( E = 2.E+11,
                               NU = 0.3,
                               RHO = 8000.),);

#
MAT=AFFE_MATERIAU(   MAILLAGE=PLAQ_MA,
                           AFFE=_F( TOUT = 'OUI', MATER = ACIER)
                                                   );

#
#---------------------------------------------------------------------
#                     CHARGEMENTS 
#---------------------------------------------------------------------
#
CHAR0=AFFE_CHAR_MECA(     MODELE=MODEL,
                          FACE_IMPO=_F( GROUP_MA = 'BORDS', DZ = 0.)
                        );

#
#---------------------------------------------------------------------
#                     RESOLUTION 
#---------------------------------------------------------------------
#
M_EL_RIG=CALC_MATR_ELEM(       MODELE=MODEL,
                             CHAM_MATER=MAT,
                              CARA_ELEM=CARA_ELE,
                                 CHARGE=CHAR0,
                                 OPTION='RIGI_MECA'
                           );

#
M_EL_MAS=CALC_MATR_ELEM(       MODELE=MODEL,
                             CHAM_MATER=MAT,
                              CARA_ELEM=CARA_ELE,
                                 CHARGE=CHAR0,
                                 OPTION='MASS_MECA'
                           );

#
NU=NUME_DDL(   MATR_RIGI=M_EL_RIG)

#
M_AS_RIG=ASSE_MATRICE(   MATR_ELEM=M_EL_RIG,   NUME_DDL=NU)

#
M_AS_MAS=ASSE_MATRICE(   MATR_ELEM=M_EL_MAS,   NUME_DDL=NU)

#
MODES=CALC_MODES(MATR_RIGI=M_AS_RIG,
                 OPTION='BANDE',
                 CALC_FREQ=_F(FREQ=(10.,350.,),
                              ),
                 MATR_MASS=M_AS_MAS,
                 SOLVEUR_MODAL=_F(METHODE='SORENSEN',
                                  ),
                 )


#
#---------------------------------------------------------------------
#                     VERIFICATION DES RESULTATS 
#---------------------------------------------------------------------
#
TEST_RESU(RESU=(_F(PARA='FREQ',
                   NUME_MODE=4,
                   RESULTAT=MODES,
                   VALE_CALC=43.862886391,
                   VALE_REFE=44.762,
                   REFERENCE='NON_DEFINI',
                   CRITERE='RELATIF',
                   PRECISION=0.021000000000000001,),
                _F(PARA='FREQ',
                   NUME_MODE=5,
                   RESULTAT=MODES,
                   VALE_CALC=105.953754313,
                   VALE_REFE=110.52,
                   REFERENCE='NON_DEFINI',
                   CRITERE='RELATIF',
                   PRECISION=0.044999999999999998,),
                _F(PARA='FREQ',
                   NUME_MODE=6,
                   RESULTAT=MODES,
                   VALE_CALC=105.953754313,
                   VALE_REFE=110.52,
                   REFERENCE='NON_DEFINI',
                   CRITERE='RELATIF',
                   PRECISION=0.044999999999999998,),
                _F(PARA='FREQ',
                   NUME_MODE=7,
                   RESULTAT=MODES,
                   VALE_CALC=159.749471462,
                   VALE_REFE=169.08000000000001,
                   REFERENCE='NON_DEFINI',
                   CRITERE='RELATIF',
                   PRECISION=0.057000000000000002,),
                _F(PARA='FREQ',
                   NUME_MODE=8,
                   RESULTAT=MODES,
                   VALE_CALC=193.590148654,
                   VALE_REFE=193.93000000000001,
                   REFERENCE='NON_DEFINI',
                   CRITERE='RELATIF',
                   PRECISION=0.02,),
                _F(PARA='FREQ',
                   NUME_MODE=11,
                   RESULTAT=MODES,
                   VALE_CALC=206.156654639,
                   VALE_REFE=206.63999999999999,
                   REFERENCE='NON_DEFINI',
                   CRITERE='RELATIF',
                   PRECISION=0.035000000000000003,),
                _F(PARA='FREQ',
                   NUME_MODE=12,
                   RESULTAT=MODES,
                   VALE_CALC=206.156654639,
                   VALE_REFE=206.63999999999999,
                   REFERENCE='NON_DEFINI',
                   CRITERE='RELATIF',
                   PRECISION=0.035000000000000003,),
                ),
          )

#======================================================================
#= LES VALEURS DE REFERENCE AU DELA DU MODE 10 NE SONT PAS CONNUES   ==
#= LES VALEURS DE REFERENCE IMPOSEES (=1) SONT FAUSSES. L'OBJET ICI  ==
#= EST D'IMPRIMER LES VALEURS TROUVEES DANS LE FICHIER RESU          ==
#======================================================================
#_F( RESULTAT = MODES,PARA = 'FREQ',
#CRITERE = 'RELATIF',
#REFERENCE = 'NON_DEFINI',
#NUME_MODE = 11,  VALE = 2.2621054540426E+02),
#_F( RESULTAT = MODES,PARA = 'FREQ',
#CRITERE = 'RELATIF',
#REFERENCE = 'NON_DEFINI',
#NUME_MODE = 12,  VALE = 2.2840781260250E+02),
#_F( RESULTAT = MODES,PARA = 'FREQ',
#CRITERE = 'RELATIF',
#REFERENCE = 'NON_DEFINI',
#NUME_MODE = 13,  VALE = 2.4499028459396E+02),
#_F( RESULTAT = MODES,PARA = 'FREQ',
#CRITERE = 'RELATIF',
#REFERENCE = 'NON_DEFINI',
#NUME_MODE = 14,  VALE = 2.4731383844313E+02),
#_F( RESULTAT = MODES,PARA = 'FREQ',
#CRITERE = 'RELATIF',
#REFERENCE = 'NON_DEFINI',
#NUME_MODE = 15,  VALE = 2.5400040471272E+02),
#_F( RESULTAT = MODES,PARA = 'FREQ',
# CRITERE = 'RELATIF',
#REFERENCE = 'NON_DEFINI',
# NUME_MODE = 16,  VALE = 2.9810874999352E+02),
#_F( RESULTAT = MODES,PARA = 'FREQ',
#CRITERE = 'RELATIF',
# REFERENCE = 'NON_DEFINI',
# NUME_MODE = 17,  VALE = 3.2223070515790E+02),

FIN();
