# TITRE PLAQUE RECTANGULAIRE MINCE SIMPLEMENT APPUYEE DKQ - DSQ - Q4G
# ======================================================================
# COPYRIGHT (C) 1991 - 2012  EDF R&D                  WWW.CODE-ASTER.ORG
# THIS PROGRAM IS FREE SOFTWARE; YOU CAN REDISTRIBUTE IT AND/OR MODIFY
# IT UNDER THE TERMS OF THE GNU GENERAL PUBLIC LICENSE AS PUBLISHED BY
# THE FREE SOFTWARE FOUNDATION; EITHER VERSION 2 OF THE LICENSE, OR
# (AT YOUR OPTION) ANY LATER VERSION.
#
# THIS PROGRAM IS DISTRIBUTED IN THE HOPE THAT IT WILL BE USEFUL, BUT
# WITHOUT ANY WARRANTY; WITHOUT EVEN THE IMPLIED WARRANTY OF
# MERCHANTABILITY OR FITNESS FOR A PARTICULAR PURPOSE. SEE THE GNU
# GENERAL PUBLIC LICENSE FOR MORE DETAILS.
#
# YOU SHOULD HAVE RECEIVED A COPY OF THE GNU GENERAL PUBLIC LICENSE
# ALONG WITH THIS PROGRAM; IF NOT, WRITE TO EDF R&D CODE_ASTER,
#    1 AVENUE DU GENERAL DE GAULLE, 92141 CLAMART CEDEX, FRANCE.
# ======================================================================
#====================================================================


DEBUT(CODE=_F(NIV_PUB_WEB='INTERNET'), DEBUG=_F(SDVERI='OUI'))

MA=LIRE_MAILLAGE(FORMAT='MED', )

MA=DEFI_GROUP( reuse=MA,   MAILLAGE=MA,
  CREA_GROUP_MA=_F(  NOM = 'TOUT', TOUT = 'OUI'))

#====================================================================
MAT=DEFI_MATERIAU( ELAS=_F(  E = 2.1E+11,  NU = 0.3,  RHO = 7800.) )

CHMAT=AFFE_MATERIAU(  MAILLAGE=MA,
                       AFFE=_F(  TOUT = 'OUI',      MATER = MAT) )

#====================================================================
# ---- MODE DE MEMBRANE Q4G SUR APPUIS ELASTIQUES
#
MO2=AFFE_MODELE(  MAILLAGE=MA,AFFE=(
                   _F(  TOUT = 'OUI', PHENOMENE = 'MECANIQUE',
                          MODELISATION = 'Q4G'),
                        _F(  NOEUD = ('N1', 'N11', 'N111', 'N121',),
                          PHENOMENE = 'MECANIQUE',
                          MODELISATION = 'DIS_T'))
                 )

RIG=50. / 2.

CA2=AFFE_CARA_ELEM(   MODELE=MO2,
                          COQUE=_F(
       GROUP_MA = 'TOUT',
 EPAIS = 0.01),
                        DISCRET=(_F(  NOEUD = ('N1', 'N11', 'N111', 'N121',),
                                  CARA = 'K_T_D_N',
                                  REPERE = 'LOCAL',
                                  VALE = ( RIG,   0.,     0., )),
                                  _F(  NOEUD = ('N1', 'N11', 'N111', 'N121',),
                                  CARA = 'M_T_D_N',
                                  REPERE = 'LOCAL',
                                  VALE = ( 0., )),),
                         ORIENTATION=_F(  CARA = 'ANGL_NAUT',
                                       VALE = (60., 0., 0.,),
                                       NOEUD = ('N1', 'N11', 'N111', 'N121',))
                     )

CH2=AFFE_CHAR_MECA(  MODELE=MO2,DDL_IMPO=(
                       _F(  TOUT = 'OUI',  DZ = 0.),
                       _F(  TOUT = 'OUI',  DRX = 0., DRY = 0.),
                       _F(  TOUT = 'OUI',  DRZ = 0.)),
                        LIAISON_OBLIQUE=_F(  NOEUD = 'N1',
                                          DY = 0.,
                                          ANGL_NAUT = (60., 0., 0.,))
                    )

ASSEMBLAGE(   MODELE=MO2,            CARA_ELEM=CA2,
                       NUME_DDL=CO("NU2"),
                       CHARGE=CH2,           CHAM_MATER=CHMAT,MATR_ASSE=(
               _F(  MATRICE = CO("MATR2"),  OPTION = 'RIGI_MECA'),
                         _F(  MATRICE = CO("MATM2"),  OPTION = 'MASS_MECA'))
                   )

MODE2=MODE_ITER_SIMULT(  MATR_RIGI=MATR2,       MATR_MASS=MATM2,
              CALC_FREQ=_F(  NMAX_FREQ = 4,   FREQ = (  100., ),
                          OPTION = 'CENTRE'),
               VERI_MODE=_F(  SEUIL = 1.E-5)               )

# --------------------------------------------------------------------

FREQ1=sqrt(100./117.) / (2. * pi)

# --------------------------------------------------------------------

TEST_RESU(RESU=_F(NUME_ORDRE=1,
                  PARA='FREQ',
                  REFERENCE='ANALYTIQUE',
                  RESULTAT=MODE2,
                  VALE_CALC=0.147138795,
                  VALE_REFE=0.14713879693881587,
                  CRITERE='RELATIF',
                  PRECISION=6.0000000000000001E-3,),
          )

#====================================================================
# ---- MODE DE MEMBRANE DST SUR APPUIS ELASTIQUES
#
MO4=AFFE_MODELE(  MAILLAGE=MA,AFFE=(
                   _F(  TOUT = 'OUI', PHENOMENE = 'MECANIQUE',
                          MODELISATION = 'DST'),
                        _F(  NOEUD = ('N1', 'N11', 'N111', 'N121',),
                          PHENOMENE = 'MECANIQUE',
                          MODELISATION = 'DIS_T'))
                 )

CA4=AFFE_CARA_ELEM(   MODELE=MO4,
                          COQUE=_F(
       GROUP_MA = 'TOUT',
 EPAIS = 0.01),
                         ORIENTATION=_F(  CARA = 'ANGL_NAUT',
                                       VALE = (60., 0., 0.,),
                                       NOEUD = ('N1', 'N11', 'N111', 'N121',)),DISCRET=(
                        _F(  NOEUD = ('N1', 'N11',),    CARA = 'K_T_D_N',
                                  VALE = ( 0.25E2, 0.,     0., ),
                                  REPERE = 'LOCAL'),                         
                        _F(  NOEUD = ('N1', 'N11',),    CARA = 'M_T_D_N',
                                  VALE = ( 0., ),
                                  REPERE = 'LOCAL'),
                        _F(  NOEUD = ('N111', 'N121',), CARA = 'K_T_D_N',
                                  VALE = ( 0.25E2, 0.,     0., ),
                                  REPERE = 'LOCAL'),
                        _F(  NOEUD = ('N111', 'N121',), CARA = 'M_T_D_N',
                                  VALE = ( 0., ),
                                  REPERE = 'LOCAL'),
                        )
                     )

CH4=AFFE_CHAR_MECA(  MODELE=MO4,DDL_IMPO=(
                       _F(  TOUT = 'OUI',  DZ = 0.),
                       _F(  TOUT = 'OUI',  DRX = 0., DRY = 0.),
                       _F(  TOUT = 'OUI',  DRZ = 0.)),
                        LIAISON_OBLIQUE=_F(  NOEUD = 'N1',
                                          DY = 0.,
                                          ANGL_NAUT = (60., 0., 0.,))
                    )

ASSEMBLAGE(   MODELE=MO4,            CARA_ELEM=CA4,
                       NUME_DDL=CO("NU4"),
                       CHARGE=CH4,           CHAM_MATER=CHMAT,MATR_ASSE=(
               _F(  MATRICE = CO("MATR4"),  OPTION = 'RIGI_MECA'),
                         _F(  MATRICE = CO("MATM4"),  OPTION = 'MASS_MECA'))
                   )

MODE4=MODE_ITER_SIMULT(  MATR_RIGI=MATR4,  MATR_MASS=MATM4,
              CALC_FREQ=_F(  NMAX_FREQ = 4),
               VERI_MODE=_F(  SEUIL = 1.E-5)  )

# --------------------------------------------------------------------

TEST_RESU(RESU=_F(NUME_ORDRE=1,
                  PARA='FREQ',
                  REFERENCE='ANALYTIQUE',
                  RESULTAT=MODE4,
                  VALE_CALC=0.147138787,
                  VALE_REFE=0.14713879693881587,
                  CRITERE='RELATIF',
                  PRECISION=6.0000000000000001E-3,),
          )

#====================================================================
# ---- MODE DE MEMBRANE DKT SUR APPUIS ELASTIQUES
#
MO6=AFFE_MODELE(  MAILLAGE=MA,AFFE=(
                   _F(  TOUT = 'OUI', PHENOMENE = 'MECANIQUE',
                          MODELISATION = 'DKT'),
                        _F(  NOEUD = ('N1', 'N11', 'N111', 'N121',),
                          PHENOMENE = 'MECANIQUE',
                          MODELISATION = 'DIS_T'))
                 )

CA6=AFFE_CARA_ELEM(   MODELE=MO6,
                          COQUE=_F(
       GROUP_MA = 'TOUT',
 EPAIS = 0.01),
                         ORIENTATION=_F(  CARA = 'ANGL_NAUT',
                                       VALE = (60., 0., 0.,),
                                       NOEUD = ('N1', 'N11', 'N111', 'N121',)),DISCRET=(
                        _F(  NOEUD = ('N1', 'N11',),    CARA = 'K_T_D_N',
                                  VALE = ( 0.25E2, 0.,     0., ),
                                  REPERE = 'LOCAL'),
                        _F(  NOEUD = ('N1', 'N11',),    CARA = 'M_T_D_N',
                                  VALE = ( 0., ),
                                  REPERE = 'LOCAL'),
                        _F(  NOEUD = ('N111', 'N121',), CARA = 'K_T_D_N',
                                  VALE = ( 0.25E2, 0.,     0., ),
                                  REPERE = 'LOCAL'),
                        _F(  NOEUD = ('N111', 'N121',), CARA = 'M_T_D_N',
                                  VALE = ( 0., ),
                                  REPERE = 'LOCAL'))
                     )

CH6=AFFE_CHAR_MECA(  MODELE=MO6,DDL_IMPO=(
                       _F(  TOUT = 'OUI',  DZ = 0.),
                       _F(  TOUT = 'OUI',  DRX = 0., DRY = 0.),
                       _F(  TOUT = 'OUI',  DRZ = 0.)),
                        LIAISON_OBLIQUE=_F(  NOEUD = 'N1',
                                          DY = 0.,
                                          ANGL_NAUT = (60., 0., 0.,))
                    )

ASSEMBLAGE(   MODELE=MO6,            CARA_ELEM=CA6,
                       NUME_DDL=CO("NU6"),
                       CHARGE=CH6,           CHAM_MATER=CHMAT,MATR_ASSE=(
               _F(  MATRICE = CO("MATR6"),  OPTION = 'RIGI_MECA'),
                         _F(  MATRICE = CO("MATM6"),  OPTION = 'MASS_MECA'))
                   )

MODE6=MODE_ITER_SIMULT(  MATR_RIGI=MATR6,  MATR_MASS=MATM6,
              CALC_FREQ=_F(  NMAX_FREQ = 4),
               VERI_MODE=_F(  SEUIL = 1.E-5)  )

# --------------------------------------------------------------------

TEST_RESU(RESU=_F(NUME_ORDRE=1,
                  PARA='FREQ',
                  REFERENCE='ANALYTIQUE',
                  RESULTAT=MODE6,
                  VALE_CALC=0.147138801,
                  VALE_REFE=0.14713879693881587,
                  CRITERE='RELATIF',
                  PRECISION=6.0000000000000001E-3,),
          )

#====================================================================
# ---- FLEXION PLAQUE DKQ APPUYEE SUR LES BORDS

MO=AFFE_MODELE(      MAILLAGE=MA,
                      AFFE=_F(  TOUT = 'OUI',  PHENOMENE = 'MECANIQUE',
                             MODELISATION = 'DKT')   )

CH=AFFE_CHAR_MECA(   MODELE=MO,
                       DDL_IMPO=_F(  GROUP_NO = 'BORD',  DZ = 0.)   )

CA=AFFE_CARA_ELEM(   MODELE=MO,
                       COQUE=_F(
       GROUP_MA = 'TOUT',
 EPAIS = 0.01)  )

ASSEMBLAGE(   MODELE=MO,            CARA_ELEM=CA,
                       NUME_DDL=CO("NU"),
                       CHARGE=CH,           CHAM_MATER=CHMAT,MATR_ASSE=(
               _F(  MATRICE = CO("MATR"),  OPTION = 'RIGI_MECA'),
                         _F(  MATRICE = CO("MATM"),  OPTION = 'MASS_MECA'))
                   )

MODE=MODE_ITER_SIMULT(  MATR_RIGI=MATR,        MATR_MASS=MATM,
                            METHODE='JACOBI',
                             OPTION='SANS',
            CALC_FREQ=_F(   FREQ = ( 25.,  200., ),
                        OPTION = 'BANDE'),
              VERI_MODE=_F(  SEUIL = 1.E-5)   )

# --------------------------------------------------------------------

TEST_RESU(RESU=(_F(NUME_ORDRE=1,
                   PARA='FREQ',
                   REFERENCE='ANALYTIQUE',
                   RESULTAT=MODE,
                   VALE_CALC=35.359116989,
                   VALE_REFE=35.630000000000003,
                   CRITERE='RELATIF',
                   PRECISION=8.0000000000000002E-3,),
                _F(NUME_ORDRE=2,
                   PARA='FREQ',
                   REFERENCE='ANALYTIQUE',
                   RESULTAT=MODE,
                   VALE_CALC=67.490938392,
                   VALE_REFE=68.510000000000005,
                   CRITERE='RELATIF',
                   PRECISION=0.014999999999999999,),
                _F(NUME_ORDRE=3,
                   PARA='FREQ',
                   REFERENCE='ANALYTIQUE',
                   RESULTAT=MODE,
                   VALE_CALC=108.562911676,
                   VALE_REFE=109.62,
                   CRITERE='RELATIF',
                   PRECISION=1.E-2,),
                _F(NUME_ORDRE=4,
                   PARA='FREQ',
                   REFERENCE='ANALYTIQUE',
                   RESULTAT=MODE,
                   VALE_CALC=121.143977248,
                   VALE_REFE=123.31999999999999,
                   CRITERE='RELATIF',
                   PRECISION=0.017999999999999999,),
                _F(NUME_ORDRE=5,
                   PARA='FREQ',
                   REFERENCE='ANALYTIQUE',
                   RESULTAT=MODE,
                   VALE_CALC=138.402325115,
                   VALE_REFE=142.50999999999999,
                   CRITERE='RELATIF',
                   PRECISION=0.029000000000000001,),
                _F(NUME_ORDRE=6,
                   PARA='FREQ',
                   REFERENCE='ANALYTIQUE',
                   RESULTAT=MODE,
                   VALE_CALC=188.500744771,
                   VALE_REFE=197.31999999999999,
                   CRITERE='RELATIF',
                   PRECISION=0.044999999999999998,),
                ),
          )

#====================================================================
# ---- FLEXION PLAQUE DSQ APPUYEE SUR LES BORDS

MO3=AFFE_MODELE(      MAILLAGE=MA,
                       AFFE=_F(  TOUT = 'OUI',  PHENOMENE = 'MECANIQUE',
                              MODELISATION = 'DST')   )

CH3=AFFE_CHAR_MECA(   MODELE=MO3,
                        DDL_IMPO=_F(  GROUP_NO = 'BORD',  DZ = 0.)   )

CA3=AFFE_CARA_ELEM(   MODELE=MO3,
                       COQUE=_F(
       GROUP_MA = 'TOUT',
 EPAIS = 0.01)  )

ASSEMBLAGE(   MODELE=MO3,           CARA_ELEM=CA3,
                       NUME_DDL=CO("NU3"),
                       CHARGE=CH3,          CHAM_MATER=CHMAT,MATR_ASSE=(
               _F(  MATRICE = CO("MATR3"), OPTION = 'RIGI_MECA'),
                         _F(  MATRICE = CO("MATM3"), OPTION = 'MASS_MECA'))
                   )

MODE3=MODE_ITER_SIMULT(  MATR_RIGI=MATR3,   MATR_MASS=MATM3,
                            METHODE='JACOBI',
                             OPTION='SANS',
            CALC_FREQ=_F(   FREQ = ( 5.,  200., ),
                        OPTION = 'BANDE'),
              VERI_MODE=_F(  SEUIL = 1.E-5) )

# --------------------------------------------------------------------

TEST_RESU(RESU=(_F(NUME_ORDRE=1,
                   PARA='FREQ',
                   REFERENCE='ANALYTIQUE',
                   RESULTAT=MODE3,
                   VALE_CALC=35.351442622,
                   VALE_REFE=35.630000000000003,
                   CRITERE='RELATIF',
                   PRECISION=8.0000000000000002E-3,),
                _F(NUME_ORDRE=2,
                   PARA='FREQ',
                   REFERENCE='ANALYTIQUE',
                   RESULTAT=MODE3,
                   VALE_CALC=67.463880769,
                   VALE_REFE=68.510000000000005,
                   CRITERE='RELATIF',
                   PRECISION=0.016,),
                _F(NUME_ORDRE=3,
                   PARA='FREQ',
                   REFERENCE='ANALYTIQUE',
                   RESULTAT=MODE3,
                   VALE_CALC=108.493654624,
                   VALE_REFE=109.62,
                   CRITERE='RELATIF',
                   PRECISION=0.010999999999999999,),
                _F(NUME_ORDRE=4,
                   PARA='FREQ',
                   REFERENCE='ANALYTIQUE',
                   RESULTAT=MODE3,
                   VALE_CALC=121.060290195,
                   VALE_REFE=123.31999999999999,
                   CRITERE='RELATIF',
                   PRECISION=0.019,),
                _F(NUME_ORDRE=5,
                   PARA='FREQ',
                   REFERENCE='ANALYTIQUE',
                   RESULTAT=MODE3,
                   VALE_CALC=138.290884625,
                   VALE_REFE=142.50999999999999,
                   CRITERE='RELATIF',
                   PRECISION=0.029999999999999999,),
                _F(NUME_ORDRE=6,
                   PARA='FREQ',
                   REFERENCE='ANALYTIQUE',
                   RESULTAT=MODE3,
                   VALE_CALC=188.297747178,
                   VALE_REFE=197.31999999999999,
                   CRITERE='RELATIF',
                   PRECISION=0.045999999999999999,),
                ),
          )

#====================================================================
# ---- FLEXION PLAQUE Q4G APPUYEE SUR LES BORDS

MO5=AFFE_MODELE(      MAILLAGE=MA,
                       AFFE=_F(  TOUT = 'OUI',  PHENOMENE = 'MECANIQUE',
                              MODELISATION = 'Q4G')   )

CH5=AFFE_CHAR_MECA(   MODELE=MO5,
                        DDL_IMPO=_F(  GROUP_NO = 'BORD',  DZ = 0.)   )

CA5=AFFE_CARA_ELEM(   MODELE=MO5,
                       COQUE=_F(
       GROUP_MA = 'TOUT',
 EPAIS = 0.01)  )

ASSEMBLAGE(   MODELE=MO5,           CARA_ELEM=CA5,
                       NUME_DDL=CO("NU5"),
                       CHARGE=CH5,          CHAM_MATER=CHMAT,
               MATR_ASSE=_F(  MATRICE = CO("MATR5"), OPTION = 'RIGI_MECA')
                   )

ASSEMBLAGE(   MODELE=MO5,           CARA_ELEM=CA5,
                       NUME_DDL=NU5,
                       CHARGE=CH5,          CHAM_MATER=CHMAT,
                MATR_ASSE=_F(  MATRICE = CO("MATM5"), OPTION = 'MASS_MECA')
                   )

MODE5=MODE_ITER_SIMULT(  MATR_RIGI=MATR5,   MATR_MASS=MATM5,
                            METHODE='JACOBI',
                             OPTION='SANS',
            CALC_FREQ=_F(   FREQ = ( 5.,  220., ),
                        OPTION = 'BANDE'),
              VERI_MODE=_F(  SEUIL = 1.E-5) )

# --------------------------------------------------------------------

TEST_RESU(RESU=(_F(NUME_ORDRE=1,
                   PARA='FREQ',
                   REFERENCE='ANALYTIQUE',
                   RESULTAT=MODE5,
                   VALE_CALC=35.423187055,
                   VALE_REFE=35.630000000000003,
                   CRITERE='RELATIF',
                   PRECISION=1.E-2,),
                _F(NUME_ORDRE=2,
                   PARA='FREQ',
                   REFERENCE='ANALYTIQUE',
                   RESULTAT=MODE5,
                   VALE_CALC=67.923174086,
                   VALE_REFE=68.510000000000005,
                   CRITERE='RELATIF',
                   PRECISION=1.E-2,),
                _F(NUME_ORDRE=3,
                   PARA='FREQ',
                   REFERENCE='ANALYTIQUE',
                   RESULTAT=MODE5,
                   VALE_CALC=109.942386015,
                   VALE_REFE=109.62,
                   CRITERE='RELATIF',
                   PRECISION=1.E-2,),
                _F(NUME_ORDRE=4,
                   PARA='FREQ',
                   REFERENCE='ANALYTIQUE',
                   RESULTAT=MODE5,
                   VALE_CALC=123.976774773,
                   VALE_REFE=123.31999999999999,
                   CRITERE='RELATIF',
                   PRECISION=1.E-2,),
                _F(NUME_ORDRE=5,
                   PARA='FREQ',
                   REFERENCE='ANALYTIQUE',
                   RESULTAT=MODE5,
                   VALE_CALC=139.459850970,
                   VALE_REFE=142.50999999999999,
                   CRITERE='RELATIF',
                   PRECISION=0.025000000000000001,),
                _F(NUME_ORDRE=6,
                   PARA='FREQ',
                   REFERENCE='ANALYTIQUE',
                   RESULTAT=MODE5,
                   VALE_CALC=190.384846564,
                   VALE_REFE=197.31999999999999,
                   CRITERE='RELATIF',
                   PRECISION=0.040000000000000001,),
                ),
          )

# --------------------------------------------------------------------

FIN()
#
