# MODIF  DATE 30/09/2008   AUTEUR MARKOVIC D.MARKOVIC 
# TITRE COMPARAISON AVEC LA SOLUTION ANALYTIQUE D'UNE PLAQUE (DKT) EN TRACTION
#            CONFIGURATION MANAGEMENT OF EDF VERSION
# ======================================================================
# COPYRIGHT (C) 1991 - 2008  EDF R&D                  WWW.CODE-ASTER.ORG
# THIS PROGRAM IS FREE SOFTWARE; YOU CAN REDISTRIBUTE IT AND/OR MODIFY  
# IT UNDER THE TERMS OF THE GNU GENERAL PUBLIC LICENSE AS PUBLISHED BY  
# THE FREE SOFTWARE FOUNDATION; EITHER VERSION 2 OF THE LICENSE, OR     
# (AT YOUR OPTION) ANY LATER VERSION.                                                    
#                                                                       
# THIS PROGRAM IS DISTRIBUTED IN THE HOPE THAT IT WILL BE USEFUL, BUT   
# WITHOUT ANY WARRANTY; WITHOUT EVEN THE IMPLIED WARRANTY OF            
# MERCHANTABILITY OR FITNESS FOR A PARTICULAR PURPOSE. SEE THE GNU      
# GENERAL PUBLIC LICENSE FOR MORE DETAILS.                              
#                                                                       
# YOU SHOULD HAVE RECEIVED A COPY OF THE GNU GENERAL PUBLIC LICENSE     
# ALONG WITH THIS PROGRAM; IF NOT, WRITE TO EDF R&D CODE_ASTER,         
#    1 AVENUE DU GENERAL DE GAULLE, 92141 CLAMART CEDEX, FRANCE.        
# ======================================================================

DEBUT(CODE=_F(NOM='SDLS115B', NIV_PUB_WEB='INTERNET'), DEBUG=_F(SDVERI='OUI'))
RHO  = 2500.E0
EP   = 0.1
HA  = 1.0

EY  = 4.3880E10
NU  = 0.

LONG = 1.0
LARG = 1.0
C0   = sqrt(EY/RHO)
K    = 3.1416/8.0 * LONG

FREQ = K*C0
Q0   = 1.0E-4

F0   = EY*Q0*K * EP * cos(K*LONG)

XN = LONG/3.0
VIT0 = FREQ*Q0* sin(K* 0.0)
VIT1 = FREQ*Q0* sin(K* XN)
VIT2 = FREQ*Q0* sin(K* 2*XN)
VITF = FREQ*Q0* sin(K* LONG)


TMAX = 1.2E-3
DT = 3.0E-5

PRE_GIBI();

MAIL=LIRE_MAILLAGE();

MAIL=DEFI_GROUP(reuse =MAIL,
                MAILLAGE=MAIL,
                CREA_GROUP_NO=(_F(GROUP_MA='A1A2',),
                               _F(GROUP_MA='A4A3' ,),
                               _F(GROUP_MA='A2A4' ,),
                               _F(GROUP_MA='A3A1' ,),
                               _F(GROUP_MA='M1' ,),
                               _F(GROUP_MA='M2' ,),
                             ),);

MOD1=AFFE_MODELE(MAILLAGE=MAIL,
                AFFE=_F(GROUP_MA = 'A1A2',
                        PHENOMENE='MECANIQUE',
                        MODELISATION='BARRE',),);

MAT=DEFI_MATERIAU(
                  ELAS = _F(
                             E    =  EY,
                             NU   =  NU,
                             RHO  = RHO,
                         AMOR_ALPHA=0.0000001, AMOR_BETA=0.0001,  
                           ),
                 );

CHMAT=AFFE_MATERIAU(MAILLAGE=MAIL,
                    AFFE=(_F(TOUT='OUI',MATER=MAT,),),
                    );

CELE1=AFFE_CARA_ELEM(MODELE=MOD1,
                        BARRE=_F(  GROUP_MA = 'A1A2',
                                   SECTION = 'RECTANGLE',
                                   CARA = ( 'HZ',  'HY',  ),
                                   VALE = (  EP,    HA,   )),
                                   );

COND_L1=AFFE_CHAR_MECA(MODELE=MOD1,
                        DDL_IMPO=(
                                  _F(GROUP_NO='A1',
                                     DX=0.0,
                                     ),
                                  _F(GROUP_NO='A1A2',
                                     DY=0.0,
                                     DZ=0.0,
                                     ),
                                  ),
                     FORCE_NODALE = _F(
                                      GROUP_NO = 'A2',
                                      FX       = 1.0*HA
                                      )
                       );

ffonc = FORMULE (
                  NOM_PARA = 'INST',
                  VALE = ''' F0*sin(FREQ*INST) '''
                  )

INST1=DEFI_LIST_REEL(DEBUT=0.0,INTERVALLE=(
                          _F(JUSQU_A = TMAX,PAS = DT),
                      ),);

chf1  = CALC_FONC_INTERP (
                          FONCTION   = ffonc,
                          LIST_PARA  = INST1,
                          PROL_DROITE = 'CONSTANT',
                          PROL_GAUCHE = 'CONSTANT',
                          )
NN1  = int(TMAX/DT)

VIT_INI = CREA_CHAMP(MAILLAGE=MAIL,
                    OPERATION='AFFE',
                    TYPE_CHAM='NOEU_DEPL_R',
                    AFFE=(
                          _F(GROUP_NO = 'M1',
                             NOM_CMP  = 'DX',
                             VALE     = VIT1,),
                          _F(GROUP_NO = 'M2',
                             NOM_CMP  = 'DX',
                             VALE     = VIT2,),
                          _F(GROUP_NO = 'A2',
                             NOM_CMP  = 'DX',
                             VALE     = VITF,),
                          )
                     )

DTARC=10.*DT
LARCH = DEFI_LIST_REEL(DEBUT=0.0,INTERVALLE=(
                          _F(JUSQU_A = TMAX,PAS = DTARC),
                      ),);
# Calcul explicite MASS_DIAG = NON
RESU1 = DYNA_NON_LINE(
                       MODELE=MOD1,
                       CHAM_MATER= CHMAT,
                       CARA_ELEM = CELE1,
                       MASS_DIAG='NON',
                       COMP_INCR=_F(
                                    RELATION ='ELAS',     ),
                       INCREMENT=_F( LIST_INST = INST1,
                                     PRECISION =1.E-1),
                       EXCIT=(   _F( CHARGE = COND_L1,
                                     FONC_MULT = chf1,),
                             ),
                       SCHEMA_TEMPS=_F(SCHEMA='DIFF_CENT',
                                      FORMULATION='ACCELERATION',),
                       ETAT_INIT = _F(
                                       VITE = VIT_INI,
                                      ),
                       ARCHIVAGE=_F(LIST_INST=LARCH,),
                       OBSERVATION=(_F(NOM_CHAM='DEPL',
                                       NOM_CMP='DX',
                                       LIST_INST= LARCH,
                                       NOEUD='N1',SUIVI_DDL='NON'),),
                     );

# Calcul explicite MASS_DIAG = OUI
RESU2 = DYNA_NON_LINE(
                       MODELE=MOD1,
                       CHAM_MATER= CHMAT,
                       CARA_ELEM = CELE1,
                       MASS_DIAG='OUI',
                       COMP_INCR=_F(
                                    RELATION ='ELAS',     ),
                       INCREMENT=_F( LIST_INST = INST1,
                                     PRECISION =1.E-1),
                       EXCIT=(   _F( CHARGE = COND_L1,
                                     FONC_MULT = chf1,),
                             ),
                       SCHEMA_TEMPS=_F(SCHEMA='DIFF_CENT',
                                      FORMULATION='ACCELERATION',),
                       ETAT_INIT = _F(
                                       VITE = VIT_INI,
                                      ),
                       ARCHIVAGE=_F(LIST_INST=LARCH,),
                       OBSERVATION=(_F(NOM_CHAM='DEPL',
                                       NOM_CMP='DX',
                                       LIST_INST= LARCH,
                                       NOEUD='N1',SUIVI_DDL='NON'),),
                     );

UXRES = Q0*sin(K*LONG)*sin(FREQ*TMAX)
TEST_RESU(RESU=(
                _F(RESULTAT=RESU1,
                  NOEUD='N2',
                  INST=1.2E-3,
                  NOM_CHAM='DEPL',
                  NOM_CMP='DX',
                  VALE = UXRES,
                  PRECISION = 5.E-4,
                  REFERENCE='ANALYTIQUE',
                  ),
                _F(RESULTAT=RESU2,
                  NOEUD='N2',
                  INST=1.2E-3,
                  NOM_CHAM='DEPL',
                  NOM_CMP='DX',
                  VALE = UXRES,
                  PRECISION = 5.E-3,
                  REFERENCE='ANALYTIQUE',
                  ),
                  ),);

FIN();
