# ======================================================================
# COPYRIGHT (C) 1991 - 2013  EDF R&D                  WWW.CODE-ASTER.ORG
# THIS PROGRAM IS FREE SOFTWARE; YOU CAN REDISTRIBUTE IT AND/OR MODIFY  
# IT UNDER THE TERMS OF THE GNU GENERAL PUBLIC LICENSE AS PUBLISHED BY  
# THE FREE SOFTWARE FOUNDATION; EITHER VERSION 2 OF THE LICENSE, OR     
# (AT YOUR OPTION) ANY LATER VERSION.                                                    
#                                                                       
# THIS PROGRAM IS DISTRIBUTED IN THE HOPE THAT IT WILL BE USEFUL, BUT   
# WITHOUT ANY WARRANTY; WITHOUT EVEN THE IMPLIED WARRANTY OF            
# MERCHANTABILITY OR FITNESS FOR A PARTICULAR PURPOSE. SEE THE GNU      
# GENERAL PUBLIC LICENSE FOR MORE DETAILS.                              
#                                                                       
# YOU SHOULD HAVE RECEIVED A COPY OF THE GNU GENERAL PUBLIC LICENSE     
# ALONG WITH THIS PROGRAM; IF NOT, WRITE TO EDF R&D CODE_ASTER,         
#    1 AVENUE DU GENERAL DE GAULLE, 92141 CLAMART CEDEX, FRANCE.        
# ======================================================================
# DATE   : 11/04/2013
# AUTEUR : F. LEBOUVIER
# TITRE  : FLAMBEMENT D'UNE ENVELOPPE CYLINDRIQUE SOUS PRESSION
#          EXTERNE
#---------------------------------------------------------------------
#  - CALCUL DE STABILITE D'UNE ENVELOPPE CYLINDRIQUE MINCE
#    CALCUL DES CHARGES CRITIQUES CONDUISANT AU FLAMBEMENT ELASTIQUE
#  - MODELISATION AVEC DES ELEMENTS 'COQUE_3D'(QUAD9)
#---------------------------------------------------------------------
#
DEBUT( CODE=_F( NOM = 'SDLS505D',NIV_PUB_WEB='INTERNET'))
#
MA=LIRE_MAILLAGE(FORMAT='MED', INFO=2)

#
MAIL=CREA_MAILLAGE(MAILLAGE=MA,
                     QUAD_LINE=_F(TOUT='OUI',),);

MAIL=DEFI_GROUP(reuse=MAIL,  MAILLAGE=MAIL,         
                   CREA_GROUP_NO=_F( NOM = 'A',   NOEUD = 'NO7',  ))

#
MOEL=AFFE_MODELE(   MAILLAGE=MAIL,
                          AFFE=_F( TOUT = 'OUI',          
                                PHENOMENE = 'MECANIQUE',     
                                MODELISATION = 'DKT',  
                                )
                    )

#
#---------------------------------------------------------------------
#                     CARACTERISTIQUES ELEMENTAIRES
#---------------------------------------------------------------------
#
CAEL=AFFE_CARA_ELEM(   MODELE=MOEL,
                          COQUE=_F( GROUP_MA = 'TOUT_ELT',  
                                 EPAIS = 0.00045,     
                                 A_CIS = 9000.,     
                                 ANGL_REP = (90.,0.,),  
                                 )
                       )

#
#---------------------------------------------------------------------
#                     CARACTERISTIQUES MATERIAUX
#---------------------------------------------------------------------
#
MATERIAU=DEFI_MATERIAU(   ELAS=_F( E = 2.E+11,   
                                  NU = 0.3,  
                                  )
                          )

#
CHAM_MAT=AFFE_MATERIAU(   MAILLAGE=MAIL,
                                AFFE=_F( TOUT = 'OUI',   MATER = MATERIAU,  )
                          )

#
#---------------------------------------------------------------------
#                     CHARGEMENTS
#---------------------------------------------------------------------
#
CON_LI=AFFE_CHAR_MECA(        MODELE=MOEL,DDL_IMPO=(
                              _F( GROUP_NO = 'O_PRIME',  
                                        DX = 0.,   DY = 0.,  
                                       ),
                              _F( GROUP_NO = 'E',  
                                        DY = 0.,  
                                       ),
                              _F( GROUP_NO = 'CONTOUR',  
                                        DZ = 0.,  
                                       ))
                         )

#
CHARGE=AFFE_CHAR_MECA(        MODELE=MOEL,
                           FORCE_COQUE=_F( GROUP_MA = 'CYLINDRE',  
                                        PRES = -1.,      
                                        ),
                           FORCE_ARETE=_F( GROUP_MA = 'ARETE',  
                                         FZ = -0.025,        
                                        ) 
                        )

#
#---------------------------------------------------------------------
#                        RESOLUTION
#---------------------------------------------------------------------
#
RES=MECA_STATIQUE(      MODELE=MOEL,
                      CHAM_MATER=CHAM_MAT,
                       CARA_ELEM=CAEL,EXCIT=(
                           _F( CHARGE = CON_LI,  ),
                           _F( CHARGE = CHARGE,  )),
                    )

#
SIG=CREA_CHAMP(   RESULTAT=RES,
                   OPERATION='EXTR',
                   TYPE_CHAM='ELGA_SIEF_R',
                    NOM_CHAM='SIEF_ELGA',
                   TYPE_MAXI='MINI',
                   TYPE_RESU='VALE'
                 )
RES=CALC_CHAMP(   RESULTAT=RES,reuse=RES,
                    CONTRAINTE=('EFGE_ELNO','SIGM_ELNO'))

SIG_MOY=POST_CHAMP(RESULTAT=RES,
                     EXTR_COQUE=_F(NOM_CHAM='SIGM_ELNO',
                                   NUME_COUCHE=1,
                                   NIVE_COUCHE='SUP',),);

IMPR_RESU(RESU=_F(RESULTAT=SIG_MOY,NOEUD=('N11','N3')))


ASSEMBLAGE ( MODELE=MOEL,
             CHAM_MATER=CHAM_MAT,
             CARA_ELEM=CAEL,
             CHARGE = (CON_LI,),
             NUME_DDL = CO('MEL_RI_M'),
             SOLVEUR=_F(METHODE='MULT_FRONT',RENUM='METIS'),
             MATR_ASSE=(
              _F( MATRICE= CO('MAS_RI_M'), OPTION= 'RIGI_MECA'),
              _F( MATRICE= CO('MAS_RI_G'), OPTION= 'RIGI_GEOM',SIEF_ELGA=SIG),),);

#
RESULT=MODE_ITER_SIMULT(      MATR_RIGI=MAS_RI_M,
                                MATR_RIGI_GEOM=MAS_RI_G,
#                               METHODE='TRI_DIAG',
                               METHODE='SORENSEN',
                             CALC_CHAR_CRIT=_F( OPTION = 'PLUS_PETITE',     ),
                             TYPE_RESU='MODE_FLAMB',
                             VERI_MODE=_F( SEUIL = 5.E-5,   )

                           )

TEST_RESU(RESU=_F(PARA='CHAR_CRIT',
                  NUME_MODE=10,
                  RESULTAT=RESULT,
                  VALE_CALC=-1.7043054339E+06,
                  VALE_REFE=-1.523000E6,
                  REFERENCE='NON_DEFINI',
                  CRITERE='RELATIF',
                  PRECISION=0.125,))

#
FIN()
#
