# TITRE FREQUENCES PROPRES D'UN ANNEAU CYLINDRIQUE EPAIS
#            CONFIGURATION MANAGEMENT OF EDF VERSION
# ======================================================================
# COPYRIGHT (C) 1991 - 2012  EDF R&D                  WWW.CODE-ASTER.ORG
# THIS PROGRAM IS FREE SOFTWARE; YOU CAN REDISTRIBUTE IT AND/OR MODIFY
# IT UNDER THE TERMS OF THE GNU GENERAL PUBLIC LICENSE AS PUBLISHED BY
# THE FREE SOFTWARE FOUNDATION; EITHER VERSION 2 OF THE LICENSE, OR
# (AT YOUR OPTION) ANY LATER VERSION.
#
# THIS PROGRAM IS DISTRIBUTED IN THE HOPE THAT IT WILL BE USEFUL, BUT
# WITHOUT ANY WARRANTY; WITHOUT EVEN THE IMPLIED WARRANTY OF
# MERCHANTABILITY OR FITNESS FOR A PARTICULAR PURPOSE. SEE THE GNU
# GENERAL PUBLIC LICENSE FOR MORE DETAILS.
#
# YOU SHOULD HAVE RECEIVED A COPY OF THE GNU GENERAL PUBLIC LICENSE
# ALONG WITH THIS PROGRAM; IF NOT, WRITE TO EDF R&D CODE_ASTER,
#    1 AVENUE DU GENERAL DE GAULLE, 92141 CLAMART CEDEX, FRANCE.
# ======================================================================
DEBUT(CODE=_F(NOM='SDLS109D',NIV_PUB_WEB='INTERNET'),DEBUG=_F(SDVERI='OUI'))
MAILINI=LIRE_MAILLAGE(FORMAT='MED',);
MAIL=CREA_MAILLAGE(MAILLAGE=MAILINI,
                   MODI_MAILLE=_F(OPTION='QUAD8_9',
                                  TOUT='OUI',),);
MODELE=AFFE_MODELE(AFFE=_F(GROUP_MA='SURF_S',
                           PHENOMENE='MECANIQUE',
                           MODELISATION='COQUE_3D',),
                   MAILLAGE=MAIL,);
M_S=DEFI_MATERIAU(ELAS=_F(NU=0.29999999999999999,
                          RHO=7800.0,
                          E=1.85000000000E11,),);
CHAM_MAT=AFFE_MATERIAU(AFFE=_F(MATER=M_S,
                               GROUP_MA='SURF_S',),
                       MAILLAGE=MAIL,);
CARATUY=AFFE_CARA_ELEM(MODELE=MODELE,
                       COQUE=_F(ANGL_REP=(45.0,-45.0),
                                GROUP_MA='SURF_S',
                                A_CIS=0.83333333300000001,
                                EPAIS=0.048000000000000001,),);
MAT_K=CALC_MATR_ELEM(OPTION='RIGI_MECA',
                     MODELE=MODELE,
                     CHAM_MATER=CHAM_MAT,
                     CARA_ELEM=CARATUY,);
MAT_M=CALC_MATR_ELEM(OPTION='MASS_MECA',
                     MODELE=MODELE,
                     CHAM_MATER=CHAM_MAT,
                     CARA_ELEM=CARATUY,);
NUM=NUME_DDL(MATR_RIGI=MAT_K,);
MATASS_K=ASSE_MATRICE(MATR_ELEM=MAT_K,
                      NUME_DDL=NUM,);
MATASS_M=ASSE_MATRICE(MATR_ELEM=MAT_M,
                      NUME_DDL=NUM,);
MODES=MODE_ITER_SIMULT(OPTION='SANS',
                       MATR_RIGI=MATASS_K,
                       MATR_MASS=MATASS_M,
                       CALC_FREQ=_F(OPTION='BANDE',
                                    FREQ=(200.0,800.0),),);

TEST_RESU(RESU=(_F(NUME_ORDRE=3,
                   PARA='FREQ',
                   REFERENCE='AUTRE_ASTER',
                   RESULTAT=MODES,
                   VALE_CALC=209.910595437,
                   VALE_REFE=210.55000000000001,
                   PRECISION=1.E-2,),
                _F(NUME_ORDRE=4,
                   PARA='FREQ',
                   REFERENCE='AUTRE_ASTER',
                   RESULTAT=MODES,
                   VALE_CALC=209.910595549,
                   VALE_REFE=210.55000000000001,
                   PRECISION=1.E-2,),
                _F(NUME_ORDRE=5,
                   PARA='FREQ',
                   REFERENCE='AUTRE_ASTER',
                   RESULTAT=MODES,
                   VALE_CALC=586.513809725,
                   VALE_REFE=587.91999999999996,
                   PRECISION=1.E-2,),
                _F(NUME_ORDRE=6,
                   PARA='FREQ',
                   REFERENCE='AUTRE_ASTER',
                   RESULTAT=MODES,
                   VALE_CALC=586.513810294,
                   VALE_REFE=587.91999999999996,
                   PRECISION=1.E-2,),
                ),
          )

FIN();
