# TITRE PLAQUE RECTANGULAIRE MINCE SIMPLEMENT APPUYEE DKT - DST
# ======================================================================
# COPYRIGHT (C) 1991 - 2012  EDF R&D                  WWW.CODE-ASTER.ORG
# THIS PROGRAM IS FREE SOFTWARE; YOU CAN REDISTRIBUTE IT AND/OR MODIFY
# IT UNDER THE TERMS OF THE GNU GENERAL PUBLIC LICENSE AS PUBLISHED BY
# THE FREE SOFTWARE FOUNDATION; EITHER VERSION 2 OF THE LICENSE, OR
# (AT YOUR OPTION) ANY LATER VERSION.
#
# THIS PROGRAM IS DISTRIBUTED IN THE HOPE THAT IT WILL BE USEFUL, BUT
# WITHOUT ANY WARRANTY; WITHOUT EVEN THE IMPLIED WARRANTY OF
# MERCHANTABILITY OR FITNESS FOR A PARTICULAR PURPOSE. SEE THE GNU
# GENERAL PUBLIC LICENSE FOR MORE DETAILS.
#
# YOU SHOULD HAVE RECEIVED A COPY OF THE GNU GENERAL PUBLIC LICENSE
# ALONG WITH THIS PROGRAM; IF NOT, WRITE TO EDF R&D CODE_ASTER,
#    1 AVENUE DU GENERAL DE GAULLE, 92141 CLAMART CEDEX, FRANCE.
# ======================================================================
#======================================================================


DEBUT(CODE=_F(NIV_PUB_WEB='INTERNET'),DEBUG=_F(SDVERI='OUI'))

MA=LIRE_MAILLAGE(FORMAT='MED', )

MA=DEFI_GROUP( reuse=MA,   MAILLAGE=MA,
  CREA_GROUP_MA=_F(  NOM = 'TOUT', TOUT = 'OUI'))

#====================================================================
MAT=DEFI_MATERIAU( ELAS=_F(  E = 2.1E+11,  NU = 0.3,  RHO = 7800.) )

CHMAT=AFFE_MATERIAU(  MAILLAGE=MA,
                       AFFE=_F(  TOUT = 'OUI',      MATER = MAT) )

#====================================================================
# ---- PLAQUE DKT APPUYEE SUR LES BORDS

MO=AFFE_MODELE(      MAILLAGE=MA,
                      AFFE=_F(  TOUT = 'OUI',  PHENOMENE = 'MECANIQUE',
                             MODELISATION = 'DKT')   )

CH=AFFE_CHAR_MECA(   MODELE=MO,
                       DDL_IMPO=_F(  GROUP_NO = 'BORD',  DZ = 0.)   )

CA=AFFE_CARA_ELEM(   MODELE=MO,
                       COQUE=_F(
       GROUP_MA = 'TOUT',
  EPAIS = 0.01)  )

ASSEMBLAGE(   MODELE=MO,            CARA_ELEM=CA,
                       CHARGE=CH,           CHAM_MATER=CHMAT,
                      NUME_DDL=CO("NUM"),MATR_ASSE=(
               _F(  MATRICE = CO("MATR"),  OPTION = 'RIGI_MECA'),
                         _F(  MATRICE = CO("MATM"),  OPTION = 'MASS_MECA'))
                   )

MODE=CALC_MODES(MATR_RIGI=MATR,
                VERI_MODE=_F(SEUIL=1.E-5,
                             ),
                OPTION='BANDE',
                CALC_FREQ=_F(FREQ=(5.,200.,),
                             ),
                MATR_MASS=MATM,
                )

# --------------------------------------------------------------------

TEST_RESU(RESU=(_F(PARA='FREQ',
                   NUME_MODE=4,
                   REFERENCE='ANALYTIQUE',
                   RESULTAT=MODE,
                   VALE_CALC=35.460211135,
                   VALE_REFE=35.630000000000003,
                   CRITERE='RELATIF',
                   PRECISION=5.0000000000000001E-3,),
                _F(PARA='FREQ',
                   NUME_MODE=5,
                   REFERENCE='ANALYTIQUE',
                   RESULTAT=MODE,
                   VALE_CALC=67.822973122,
                   VALE_REFE=68.510000000000005,
                   CRITERE='RELATIF',
                   PRECISION=0.010999999999999999,),
                _F(PARA='FREQ',
                   NUME_MODE=6,
                   REFERENCE='ANALYTIQUE',
                   RESULTAT=MODE,
                   VALE_CALC=108.669630989,
                   VALE_REFE=109.62,
                   CRITERE='RELATIF',
                   PRECISION=8.9999999999999993E-3,),
                _F(PARA='FREQ',
                   NUME_MODE=7,
                   REFERENCE='ANALYTIQUE',
                   RESULTAT=MODE,
                   VALE_CALC=121.902245538,
                   VALE_REFE=123.31999999999999,
                   CRITERE='RELATIF',
                   PRECISION=0.012,),
                _F(PARA='FREQ',
                   NUME_MODE=8,
                   REFERENCE='ANALYTIQUE',
                   RESULTAT=MODE,
                   VALE_CALC=139.999927503,
                   VALE_REFE=142.50999999999999,
                   CRITERE='RELATIF',
                   PRECISION=0.017999999999999999,),
                _F(PARA='FREQ',
                   NUME_MODE=9,
                   REFERENCE='ANALYTIQUE',
                   RESULTAT=MODE,
                   VALE_CALC=191.704979697,
                   VALE_REFE=197.31999999999999,
                   CRITERE='RELATIF',
                   PRECISION=0.029000000000000001,),
                ),
          )

# -------------------------------------------------------------------
# ---- MODE DE MEBRANE SUR APPUIS ELASTIQUES
#
MO2=AFFE_MODELE(  MAILLAGE=MA,AFFE=(
                   _F(  TOUT = 'OUI', PHENOMENE = 'MECANIQUE',
                          MODELISATION = 'DKT'),
                        _F(  NOEUD = ('N1', 'N11', 'N111', 'N121',),
                          PHENOMENE = 'MECANIQUE',
                          MODELISATION = 'DIS_T'))
                 )

RIG=50. / 2.

CA2=AFFE_CARA_ELEM(   MODELE=MO2,
                          COQUE=_F(
       GROUP_MA = 'TOUT',
 EPAIS = 0.01),
                        DISCRET=(_F(  GROUP_NO = 'BORD2',    CARA = 'K_T_D_N',
                                  VALE = ( RIG,   0.,     0., )),
                                  _F(  GROUP_NO = 'BORD2',    CARA = 'M_T_D_N',
                                  VALE = ( 0.,)),)
                     )

CH2=AFFE_CHAR_MECA(  MODELE=MO2,DDL_IMPO=(
                       _F(  TOUT = 'OUI',  DZ = 0.),
                       _F(  TOUT = 'OUI',  DRX = 0., DRY = 0.),
                       _F(  TOUT = 'OUI',  DRZ = 0.),
                       _F(  GROUP_NO = 'BORD2',  DY = 0.))
                    )

ASSEMBLAGE(   MODELE=MO2,            CARA_ELEM=CA2,
                       CHARGE=CH2,           CHAM_MATER=CHMAT,
                      NUME_DDL=CO("NUM2"),MATR_ASSE=(
               _F(  MATRICE = CO("MATR2"),  OPTION = 'RIGI_MECA'),
                         _F(  MATRICE = CO("MATM2"),  OPTION = 'MASS_MECA'))
                   )

MODE2=CALC_MODES(MATR_RIGI=MATR2,
                 VERI_MODE=_F(SEUIL=1.E-5,
                              ),
                 CALC_FREQ=_F(NMAX_FREQ=4,
                              ),
                 MATR_MASS=MATM2,
                 )

# --------------------------------------------------------------------

FREQ1=sqrt(100./117.) / (2. * pi)

# --------------------------------------------------------------------

TEST_RESU(RESU=_F(NUME_ORDRE=1,
                  PARA='FREQ',
                  REFERENCE='ANALYTIQUE',
                  RESULTAT=MODE2,
                  VALE_CALC=0.147138774,
                  VALE_REFE=0.14713879693881587,
                  CRITERE='RELATIF',
                  PRECISION=1.E-3,),
          )

#====================================================================
# ---- PLAQUE DST APPUYEE SUR LES BORDS

MO3=AFFE_MODELE(      MAILLAGE=MA,
                       AFFE=_F(  TOUT = 'OUI',  PHENOMENE = 'MECANIQUE',
                              MODELISATION = 'DST')   )

CH3=AFFE_CHAR_MECA(   MODELE=MO3,
                        DDL_IMPO=_F(  GROUP_NO = 'BORD',  DZ = 0.)   )

CA3=AFFE_CARA_ELEM(   MODELE=MO3,
                       COQUE=_F(
       GROUP_MA = 'TOUT',
 EPAIS = 0.01)  )

ASSEMBLAGE(   MODELE=MO3,           CARA_ELEM=CA3,
                       CHARGE=CH3,          CHAM_MATER=CHMAT,
                      NUME_DDL=CO("NUM3"),MATR_ASSE=(
               _F(  MATRICE = CO("MATR3"), OPTION = 'RIGI_MECA'),
                         _F(  MATRICE = CO("MATM3"), OPTION = 'MASS_MECA'))
                   )

MODE3=CALC_MODES(MATR_RIGI=MATR3,
                 VERI_MODE=_F(SEUIL=1.E-5,
                              ),
                 OPTION='CENTRE',
                 CALC_FREQ=_F(FREQ=( 80.,),
                              ),
                 MATR_MASS=MATM3,
                 )

# --------------------------------------------------------------------

TEST_RESU(RESU=(_F(NUME_ORDRE=4,
                   PARA='FREQ',
                   REFERENCE='ANALYTIQUE',
                   RESULTAT=MODE3,
                   VALE_CALC=35.452556232,
                   VALE_REFE=35.630000000000003,
                   CRITERE='RELATIF',
                   PRECISION=5.0000000000000001E-3,),
                _F(NUME_ORDRE=5,
                   PARA='FREQ',
                   REFERENCE='ANALYTIQUE',
                   RESULTAT=MODE3,
                   VALE_CALC=67.796785303,
                   VALE_REFE=68.510000000000005,
                   CRITERE='RELATIF',
                   PRECISION=0.010999999999999999,),
                _F(NUME_ORDRE=6,
                   PARA='FREQ',
                   REFERENCE='ANALYTIQUE',
                   RESULTAT=MODE3,
                   VALE_CALC=108.603127018,
                   VALE_REFE=109.62,
                   CRITERE='RELATIF',
                   PRECISION=1.E-2,),
                _F(NUME_ORDRE=7,
                   PARA='FREQ',
                   REFERENCE='ANALYTIQUE',
                   RESULTAT=MODE3,
                   VALE_CALC=121.817577355,
                   VALE_REFE=123.31999999999999,
                   CRITERE='RELATIF',
                   PRECISION=0.012999999999999999,),
                _F(NUME_ORDRE=8,
                   PARA='FREQ',
                   REFERENCE='ANALYTIQUE',
                   RESULTAT=MODE3,
                   VALE_CALC=139.892573427,
                   VALE_REFE=142.50999999999999,
                   CRITERE='RELATIF',
                   PRECISION=0.019,),
                _F(NUME_ORDRE=9,
                   PARA='FREQ',
                   REFERENCE='ANALYTIQUE',
                   RESULTAT=MODE3,
                   VALE_CALC=191.517544407,
                   VALE_REFE=197.31999999999999,
                   CRITERE='RELATIF',
                   PRECISION=0.029999999999999999,),
                ),
          )

# -------------------------------------------------------------------
# ---- MODE DE MEBRANE SUR APPUIS ELASTIQUES
#
MO4=AFFE_MODELE(  MAILLAGE=MA,AFFE=(
                   _F(  TOUT = 'OUI', PHENOMENE = 'MECANIQUE',
                          MODELISATION = 'DST'),
                        _F(  NOEUD = ('N1', 'N11', 'N111', 'N121',),
                          PHENOMENE = 'MECANIQUE',
                          MODELISATION = 'DIS_T'))
                 )

CA4=AFFE_CARA_ELEM(   MODELE=MO4,
                          COQUE=_F(
       GROUP_MA = 'TOUT',
 EPAIS = 0.01),
                        DISCRET=(_F(  GROUP_NO = 'BORD2',    CARA = 'K_T_D_N',
                                  VALE = ( RIG,   0.,     0., )),
                                  _F(  GROUP_NO = 'BORD2',    CARA = 'M_T_D_N',
                                  VALE = ( 0., )),
                                  )
                     )

CH4=AFFE_CHAR_MECA(  MODELE=MO4,DDL_IMPO=(
                       _F(  TOUT = 'OUI',  DZ = 0.),
                       _F(  TOUT = 'OUI',  DRX = 0., DRY = 0.),
                       _F(  TOUT = 'OUI',  DRZ = 0.),
                       _F(  GROUP_NO = 'BORD2',  DY = 0.))
                    )

ASSEMBLAGE(   MODELE=MO4,            CARA_ELEM=CA4,
                       CHARGE=CH4,           CHAM_MATER=CHMAT,
                      NUME_DDL=CO("NUM4"),MATR_ASSE=(
               _F(  MATRICE = CO("MATR4"),  OPTION = 'RIGI_MECA'),
                         _F(  MATRICE = CO("MATM4"),  OPTION = 'MASS_MECA'))
                   )

MODE4=CALC_MODES(MATR_RIGI=MATR4,
                 VERI_MODE=_F(SEUIL=1.E-5,
                              ),
                 CALC_FREQ=_F(NMAX_FREQ=4,
                              ),
                 MATR_MASS=MATM4,
                 )

# --------------------------------------------------------------------

TEST_RESU(RESU=_F(NUME_ORDRE=1,
                  PARA='FREQ',
                  REFERENCE='ANALYTIQUE',
                  RESULTAT=MODE4,
                  VALE_CALC=0.147138778,
                  VALE_REFE=0.14713879693881587,
                  CRITERE='RELATIF',
                  PRECISION=6.0000000000000001E-3,),
          )

# --------------------------------------------------------------------
FIN()
#
