# ======================================================================
# COPYRIGHT (C) 1991 - 2016  EDF R&D                  WWW.CODE-ASTER.ORG
# THIS PROGRAM IS FREE SOFTWARE; YOU CAN REDISTRIBUTE IT AND/OR MODIFY
# IT UNDER THE TERMS OF THE GNU GENERAL PUBLIC LICENSE AS PUBLISHED BY
# THE FREE SOFTWARE FOUNDATION; EITHER VERSION 2 OF THE LICENSE, OR
# (AT YOUR OPTION) ANY LATER VERSION.
#
# THIS PROGRAM IS DISTRIBUTED IN THE HOPE THAT IT WILL BE USEFUL, BUT
# WITHOUT ANY WARRANTY; WITHOUT EVEN THE IMPLIED WARRANTY OF
# MERCHANTABILITY OR FITNESS FOR A PARTICULAR PURPOSE. SEE THE GNU
# GENERAL PUBLIC LICENSE FOR MORE DETAILS.
#
# YOU SHOULD HAVE RECEIVED A COPY OF THE GNU GENERAL PUBLIC LICENSE
# ALONG WITH THIS PROGRAM; IF NOT, WRITE TO EDF R&D CODE_ASTER,
#    1 AVENUE DU GENERAL DE GAULLE, 92141 CLAMART CEDEX, FRANCE.
# ======================================================================
#       TEST DU GARTEUR : BASE D'EXPANSION = MODES DYNAMIQUES

DEBUT(CODE=_F(NIV_PUB_WEB='INTERNET',VISU_EFICAS='NON'),
      DEBUG=_F(SDVERI='NON'),
     )


#********************************
# CALCUL DE LA BASE DE PROJECTION
#********************************

MAYAFEM0=LIRE_MAILLAGE(UNITE=20);

MAYAFEM0=DEFI_GROUP(reuse =MAYAFEM0,
                   MAILLAGE=MAYAFEM0,
                   CREA_GROUP_MA=_F(NOM='ALL_EL',
                                    TOUT='OUI',),
                   CREA_GROUP_NO=_F(TOUT_GROUP_MA='OUI',),);

MATER1=DEFI_MATERIAU(ELAS=_F(E=72000000000.0,
                             NU=0.34,
                             RHO=2700.0,),);

MATER2=DEFI_MATERIAU(ELAS=_F(E=210000000000.0,
                             NU=0.29,
                             RHO=7800.0,),);

MAYAFEM=CREA_MAILLAGE(MAILLAGE=MAYAFEM0,
    CREA_POI1=(
        _F(NOM_GROUP_MA='GROUP10', GROUP_NO='GROUP10', ),
    ),
)


MODFEM=AFFE_MODELE(MAILLAGE=MAYAFEM,
                   AFFE=(_F(GROUP_MA=('GROUP1','GROUP2','GROUP3','GROUP4','GROUP5','GROUP6','GROUP7','GROUP8',),
                            PHENOMENE='MECANIQUE',
                            MODELISATION='DKT',),
                         _F(GROUP_MA='GROUP9',
                            PHENOMENE='MECANIQUE',
                            MODELISATION='DIS_TR',),
                         _F(GROUP_MA='GROUP10',
                            PHENOMENE='MECANIQUE',
                            MODELISATION='DIS_T',),),);

CHMAT=AFFE_MATERIAU(MAILLAGE=MAYAFEM,
                    AFFE=(_F(GROUP_MA=('GROUP1','GROUP2','GROUP3','GROUP4','GROUP5','GROUP6','GROUP7','GROUP9',),
                             MATER=MATER1,),
                          _F(GROUP_MA='GROUP8',
                             MATER=MATER2,),),);

CHCAR=AFFE_CARA_ELEM(MODELE=MODFEM,
                     COQUE=(_F(GROUP_MA=('GROUP2','GROUP3','GROUP4','GROUP5','GROUP7',),
                               EPAIS=0.01,),
                            _F(GROUP_MA='GROUP8',
                               EPAIS=0.016,),
                            _F(GROUP_MA='GROUP1',
                               EPAIS=0.05,),
                            _F(GROUP_MA='GROUP6',
                               EPAIS=0.011,),),
                     DISCRET=(_F(GROUP_MA='GROUP9',
                                 REPERE='GLOBAL',
                                 CARA='K_TR_D_L',
                                 VALE=(1e+12,1e+12,1e+12,100000000.0,100000000.0,100000000.0,),),
                                _F(GROUP_MA='GROUP9',
                                 REPERE='GLOBAL',
                                 CARA='M_TR_L',
                                 VALE=(0.,0.,0.,0.,0.,0.,0.,0.,0.,0.,0.,0.,0.,0.,0.,0.,0.,0.,0.,0.,
                                 0.,0.,0.,0.,0.,0.,0.,0.,0.,0.,0.,0.,0.,0.,0.,0.,0.,0.,0.,0.,
                                 0.,0.,0.,0.,0.,0.,0.,0.,0.,0.,0.,0.,0.,0.,0.,0.,0.,0.,0.,0.,
                                 0.,0.,0.,0.,0.,0.,0.,0.,0.,0.,0.,0.,0.,0.,0.,0.,0.,0.,),),
                              _F(GROUP_MA='GROUP10',
                                 CARA='M_T_D_N',
                                 VALE=0.5,),),);

CHARGE=AFFE_CHAR_MECA(MODELE=MODFEM,
                      DDL_IMPO=_F(NOEUD='N58',
                                  DX=0.0,
                                  DY=0.0,
                                  DZ=0.0,
                                  DRX=0.0,
                                  DRY=0.0,
                                  DRZ=0.0,),);

KELEM=CALC_MATR_ELEM(OPTION='RIGI_MECA',
                     MODELE=MODFEM,
                     CHAM_MATER=CHMAT,
                     CARA_ELEM=CHCAR,
                     CHARGE=CHARGE,
                     );

MELEM=CALC_MATR_ELEM(OPTION='MASS_MECA',
                     MODELE=MODFEM,
                     CHAM_MATER=CHMAT,
                     CARA_ELEM=CHCAR,
                     CHARGE=CHARGE,
                     );

NUME=NUME_DDL(MATR_RIGI=KELEM,);

KASS=ASSE_MATRICE(MATR_ELEM=KELEM,
                  NUME_DDL=NUME,);

MASS=ASSE_MATRICE(MATR_ELEM=MELEM,
                  NUME_DDL=NUME,);

MASSE=POST_ELEM(MASS_INER=_F(TOUT='OUI',),
                MODELE=MODFEM,
                CHAM_MATER=CHMAT,
                CARA_ELEM=CHCAR,
                CHARGE=CHARGE,);


#*******************************************************
# CALCUL D'UNE BASE DE MODES DYNAMIQUES POUR L'EXPANSION
#*******************************************************

MODES=CALC_MODES(MATR_RIGI=KASS,
                 VERI_MODE=_F(STOP_ERREUR='NON',
                              SEUIL=1.0E-4,
                              ),
                 OPTION='BANDE',
                 CALC_FREQ=_F(FREQ=(0.0,280.0,),
                              ),
                 MATR_MASS=MASS,
                 SOLVEUR_MODAL=_F(METHODE='SORENSEN',
                                  ),
                 )


MODES=NORM_MODE(reuse =MODES,
                MODE=MODES,
                NORME='MASS_GENE',
               );

MODESY=EXTR_MODE(FILTRE_MODE=_F(MODE=MODES,
                                  CRIT_EXTR='MASS_EFFE_UN',
                                  SEUIL_Y=0.01,
                                  ),
                   IMPRESSION=_F(CUMUL='OUI',
                                 CRIT_EXTR='MASS_EFFE_UN',),);

MODESX=EXTR_MODE(FILTRE_MODE=_F(MODE=MODES,
                                  CRIT_EXTR='MASS_EFFE_UN',
                                  SEUIL_X=0.01,
                                  ),
                   IMPRESSION=_F(CUMUL='OUI',
                                 CRIT_EXTR='MASS_EFFE_UN',),);

MODESZ=EXTR_MODE(FILTRE_MODE=_F(MODE=MODES,
                                  CRIT_EXTR='MASS_EFFE_UN',
                                  SEUIL_Z=0.01,
                                  ),
                   IMPRESSION=_F(CUMUL='OUI',
                                 CRIT_EXTR='MASS_EFFE_UN',),);

MODORT=DEFI_BASE_MODALE(ORTHO_BASE=_F(BASE=MODESY,
                                      MATRICE=MASS));
MAC=MAC_MODES(BASE_1=MODORT,
              BASE_2=MODORT,
              MATR_ASSE=MASS,
              );

# MAC : la matrice de MAC doit etre la matrice identite par rapport
# a la matrice de masse.
TEST_TABLE(CRITERE='ABSOLU',
           REFERENCE='ANALYTIQUE',
           PRECISION=1.E-10,
           VALE_CALC=5.00000000000,
           VALE_REFE=5.0,
           TOLE_MACHINE=1.E-10,
           NOM_PARA='MAC',
           TYPE_TEST='SOMM',
           TABLE=MAC,)

#********************************
# CREATION DU MODELE EXPERIMENTAL
#********************************


MAYAtmp=LIRE_MAILLAGE(UNITE=22);



MAYAtmp=DEFI_GROUP(reuse =MAYAtmp,
                   MAILLAGE=MAYAtmp,
                   CREA_GROUP_MA=_F(NOM='ALL_EXP',
                                    TOUT='OUI',),
                   CREA_GROUP_NO=_F(TOUT_GROUP_MA='OUI',),);


MAYAEXP=CREA_MAILLAGE(MAILLAGE=MAYAtmp,
                      TITRE='         AUTEUR=INTERFACE_IDEAS                 ',
                      CREA_POI1=_F(TOUT='OUI',NOM_GROUP_MA='NOEU'),
                      )


MODEXP=AFFE_MODELE(MAILLAGE=MAYAEXP,
                   AFFE=_F(GROUP_MA='NOEU',
                           PHENOMENE='MECANIQUE',
                           MODELISATION='DIS_T',),);

CHCAREXP=AFFE_CARA_ELEM(MODELE=MODEXP,
                     DISCRET=(_F(GROUP_MA='NOEU',
                                 REPERE='GLOBAL',
                                 CARA='K_T_D_N',
                                 VALE=(1e+12,1e+12,1e+12,),),
                                _F(GROUP_MA='NOEU',
                                 REPERE='GLOBAL',
                                 CARA='M_T_D_N',
                                 VALE=(0.,),)
                                ),);

KELEXP=CALC_MATR_ELEM(OPTION='RIGI_MECA',
                     MODELE=MODEXP,
                     CARA_ELEM=CHCAREXP,
                     );

MELEXP=CALC_MATR_ELEM(OPTION='MASS_MECA',
                     MODELE=MODEXP,
                     CARA_ELEM=CHCAREXP,
                     );


NUMEXP=NUME_DDL(MATR_RIGI=KELEXP );

KASSEXP=ASSE_MATRICE(MATR_ELEM=KELEXP, NUME_DDL=NUMEXP,);

MASSEXP=ASSE_MATRICE(MATR_ELEM=MELEXP, NUME_DDL=NUMEXP,);

#**********************************************************
# LECTURE DE FRF EXPERIMENTALES (UNV DS58) ET EXENSION DE
# CELLES-CI SUR LE MAILLAGE NUMERIQUE
#**********************************************************


# Lecture des frf exp
DYNA=LIRE_RESU(TYPE_RESU='DYNA_HARMO',
               MAILLAGE=MAYAEXP,
               UNITE=23,
               NOM_CHAM='ACCE',
               FORMAT='IDEAS_DS58',
               TOUT_ORDRE='OUI',
              );


MACRO_EXPANS( MODELE_CALCUL = _F(MODELE = MODFEM,
                                 BASE   = MODES,),
              MODELE_MESURE = _F(MODELE    = MODEXP,
                                 MESURE    = DYNA,
                                 NOM_CHAM  = 'ACCE',),
              NUME_DDL       = NUMEXP,
              RESU_ET        = CO("RES_HARM"),
              RESU_RD        = CO("PRO_HARM"),
              RESOLUTION     = _F(METHODE='SVD',
                                  EPS=1.E-5),
             );


# Extraction des resultats de DYNA et comparaison de ceux-ci avec le champ
# etendu projete avec un TEST_RESU

lis_no = ['N1011','N1112','N1205']
lis_ddl1 = ['D3','D3','D2']
lis_ddl2 = ['DZ','DZ','DY']
RAPPORT = FORMULE( NOM_PARA = ('REFE','DELTA'), VALE = 'DELTA/REFE')

# TEST_RESU :  coherence entre FRF experimentale et FRF etendue reprojetee.
# Les test realises ci-dessous peremettent de faire les operations suivantes :
# FON_D = FRF experimentales, FON_P = FRF etendue reprojetee
# on teste la valeur de RMS(ABS(FON_D - FON_P))/RMS(ABS(FON_D))

for ind1 in range(3):
    FON_D = RECU_FONCTION(RESULTAT=DYNA,
                          NOM_CHAM='ACCE',
                          TOUT_ORDRE='OUI',
                          NOM_CMP=lis_ddl1[ind1],
                          NOEUD=lis_no[ind1])

    ABS = CALC_FONCTION(EXTRACTION=_F(FONCTION=FON_D,PARTIE='MODULE'))

    NORM_REF = INFO_FONCTION(RMS=_F(FONCTION=ABS))

    DETRUIRE( CONCEPT = _F(NOM = ABS))

    # la colonne 'RMS' est renomme en 'REFE'
    NORM_REF = CALC_TABLE( reuse = NORM_REF, TABLE = NORM_REF,
                           ACTION = _F(OPERATION = 'RENOMME', NOM_PARA=('RMS','REFE')))

    FON_P = RECU_FONCTION(RESULTAT=PRO_HARM,
                           NOM_CHAM='ACCE',
                           TOUT_ORDRE='OUI',
                           NOM_CMP=lis_ddl2[ind1],
                           NOEUD=lis_no[ind1])

    DIFF = CALC_FONCTION(COMB_C=(_F(FONCTION=FON_D,COEF_R= 1),
                                 _F(FONCTION=FON_P,COEF_R=-1),))


    ABS = CALC_FONCTION(EXTRACTION=_F(FONCTION=DIFF,PARTIE='MODULE'))

    NORM = INFO_FONCTION(RMS=_F(FONCTION=ABS))

    NORM = CALC_TABLE( reuse = NORM, TABLE = NORM,
                       ACTION = _F(OPERATION = 'RENOMME', NOM_PARA=('RMS','DELTA')))

    # On range dans la meme table la RMS de la mesure et la RMS de la difference entre mesure et synthese
    NORM = CALC_TABLE( reuse = NORM, TABLE = NORM,
                       ACTION = _F(OPERATION = 'COMB', TABLE = NORM_REF, NOM_PARA='FONCTION'))

    # On ajoute le NOEU_CMP associe :
    noeu_cmp = lis_no[ind1] + '_' + lis_ddl1[ind1]
    NOM = CREA_TABLE(LISTE = (_F( PARA = 'FONCTION', LISTE_K = 'ABS'),
                              _F( PARA = 'NOEU_CMP', LISTE_K = noeu_cmp)))
    NORM = CALC_TABLE( reuse = NORM, TABLE = NORM,
                       ACTION = _F(OPERATION = 'COMB', TABLE = NOM, NOM_PARA='FONCTION'))


    # calcul de la colonne du rapport DELTA/REFE
    NORM = CALC_TABLE( reuse = NORM, TABLE = NORM,
                       ACTION = _F(OPERATION = 'OPER', FORMULE = RAPPORT, NOM_PARA='DELTA/REFE'))

    IMPR_TABLE( UNITE = 8, TABLE = NORM)

    TEST_TABLE(CRITERE='ABSOLU',
               REFERENCE='AUTRE_ASTER',
               TOLE_MACHINE=1.E-3,
               PRECISION=1.E-2,
               VALE_CALC=0.0,
               ORDRE_GRANDEUR=10.,  # colonne REFE environ 8.
               VALE_REFE=0.0,
               NOM_PARA='DELTA/REFE',
               TYPE_TEST='MAX',
               TABLE=NORM,)

    DETRUIRE( CONCEPT = _F(NOM = (NORM,NORM_REF,DIFF,FON_P,FON_D,NOM,ABS)))


#**********************************************************
# LECTURE DE MODES EXPERIMENTAUX (UNV DS55) ET EXENSION DE
# CEUX-CI SUR LE MAILLAGE NUMERIQUE
#**********************************************************

# lecture des modes experimentaux
MODMES=LIRE_RESU(TYPE_RESU='MODE_MECA',
                 FORMAT='IDEAS',
                 MODELE=MODEXP,
                 UNITE=21,
                 NOM_CHAM='DEPL',
                 MATR_RIGI =KASSEXP,
                 MATR_MASS =MASSEXP,
                 FORMAT_IDEAS=_F(NOM_CHAM='DEPL',
                                 NUME_DATASET=55,
                                 RECORD_6=(1,2,3,8,2,6,),
                                 POSI_ORDRE=(7,4,),
                                 POSI_NUME_MODE=(7,4),
                                 POSI_FREQ=(8,1,),
                                 POSI_MASS_GENE=(8,2),
                                 POSI_AMOR_GENE=(8,3),
                                 NOM_CMP=('DX','DY','DZ','DRX','DRY','DRZ'),),
                 TOUT_ORDRE='OUI',);


## On effectue les memes operations d'expnsion avec une macro
## englobant les trois op ci-dessus. On obtient 4 concepts sortants :
##  - RESU_NX : on extrait un groupe de modes de la base numerique
##  - RESU_EX : idem pour la base experimentale
##  - RESU_ET : modes etendus
##  - RESU_RD : modes etendus reduits, pour comparaison avec les modes exp
##             du debut (validation de la procedure d'expansion)
nb_modes = 21
ind_modes = range(1,nb_modes+1) # on etend les 21 premiers modes...
#... sur labase des 21 premiers modes numeriques.


MACRO_EXPANS( MODELE_CALCUL = _F(MODELE = MODFEM,
                                 BASE = MODES,
                                 NUME_MODE = ind_modes,),
              MODELE_MESURE = _F(MODELE  = MODEXP,
                                 MESURE  = MODMES,
                                 NUME_MODE = ind_modes,),
              NUME_DDL      = NUMEXP,
              RESU_ET       = CO("RES_MODE"),
              RESU_RD       = CO("RED_MODE"),
              RESOLUTION    = _F(METHODE='SVD',
                                  EPS=1.E-5),
             );

# Calcul du MAC apres expansion sur tout le maillage
MAC_ET=MAC_MODES(BASE_1=RES_MODE,
                 BASE_2=RES_MODE,
                 MATR_ASSE=MASS,
                 INFO       =2);

# TEST_TABLE : le MAC doit etre diagonal par rapport a la matrice de masse
TEST_TABLE(CRITERE='ABSOLU',
           REFERENCE='ANALYTIQUE',
           PRECISION=1.E-2,
           VALE_CALC=21.000000000,
           VALE_REFE=21,
           NOM_PARA='MAC',
           TYPE_TEST='SOMM',
           TABLE=MAC_ET,)

# Calcul du MAC aux points de mesure.
# NB : il n'existe pas de matrice de masse ou de raideur associee
# a la base de modes experimentaux. On pourrait en creer une par
# condensation de la matrice numerique.
MAC_ETNX=MAC_MODES(BASE_1=RES_MODE,
                   BASE_2=MODES,
                   INFO       =2,
                  );



# On verifie que les modes etendus reduits sont semblables
# au sens du MAC aux modes experimentaux
for ind in ind_modes:
    TEST_TABLE(CRITERE='ABSOLU',
               REFERENCE='ANALYTIQUE',
               PRECISION=1.E-2,
               VALE_CALC=1.0,
               VALE_REFE=1.0,
               NOM_PARA='MAC',
               TABLE=MAC_ETNX,
               FILTRE=(_F(NOM_PARA='NUME_MODE_1',
                          VALE_I=ind,),
                       _F(NOM_PARA='NUME_MODE_2',
                          VALE_I=ind,),
                       ),
               )




# On peut lancer la totalite du test en interactif en utilisant CALC_ESSAI
#CALC_ESSAI()

FIN();
