# TITRE AUBE DE COMPRESSEUR ENCASTREE SUR UN BORD
# ======================================================================
# COPYRIGHT (C) 1991 - 2015  EDF R&D                  WWW.CODE-ASTER.ORG
# THIS PROGRAM IS FREE SOFTWARE; YOU CAN REDISTRIBUTE IT AND/OR MODIFY
# IT UNDER THE TERMS OF THE GNU GENERAL PUBLIC LICENSE AS PUBLISHED BY
# THE FREE SOFTWARE FOUNDATION; EITHER VERSION 2 OF THE LICENSE, OR
# (AT YOUR OPTION) ANY LATER VERSION.
#
# THIS PROGRAM IS DISTRIBUTED IN THE HOPE THAT IT WILL BE USEFUL, BUT
# WITHOUT ANY WARRANTY; WITHOUT EVEN THE IMPLIED WARRANTY OF
# MERCHANTABILITY OR FITNESS FOR A PARTICULAR PURPOSE. SEE THE GNU
# GENERAL PUBLIC LICENSE FOR MORE DETAILS.
#
# YOU SHOULD HAVE RECEIVED A COPY OF THE GNU GENERAL PUBLIC LICENSE
# ALONG WITH THIS PROGRAM; IF NOT, WRITE TO EDF R&D CODE_ASTER,
#    1 AVENUE DU GENERAL DE GAULLE, 92141 CLAMART CEDEX, FRANCE.
# ======================================================================

DEBUT(CODE=_F(NIV_PUB_WEB='INTERNET'),DEBUG=_F(SDVERI='OUI'))

# AUBE DE COMPRESSEUR ENCASTREE SUR UN BORD   REF:MESURES DES FREQURNCES
#
# MODELISATION MEC3QU9H: 133 NOEUDS --  36 MAILLES QUAD9
#

MA=LIRE_MAILLAGE(FORMAT='MED', )

MA=DEFI_GROUP( reuse=MA,   MAILLAGE=MA,
  CREA_GROUP_MA=_F(  NOM = 'TOUT', TOUT = 'OUI'))

MO=AFFE_MODELE(  MAILLAGE=MA,
                  AFFE=_F(  TOUT = 'OUI',       PHENOMENE = 'MECANIQUE',
                         MODELISATION = 'COQUE_3D') )

CARELEM=AFFE_CARA_ELEM(   MODELE=MO,
                            COQUE=_F(
       GROUP_MA = 'TOUT',
  EPAIS = 0.003048,
                                  A_CIS = 0.83333333333333) )

MAT=DEFI_MATERIAU( ELAS=_F(  E = 2.0685E+11,  NU = 0.3,  RHO = 7857.2) )

CHMAT=AFFE_MATERIAU(  MAILLAGE=MA,
                       AFFE=_F(  TOUT = 'OUI',  MATER = MAT) )

#--------------------------------------------------------------------

CHCAS1=AFFE_CHAR_MECA(  MODELE=MO,
           DDL_IMPO=_F(  GROUP_NO = 'BD',       DX = 0.,  DY = 0., DZ = 0.,
                                        DRX = 0., DRY = 0., DRZ = 0.) )

ASSEMBLAGE(   MODELE=MO,           CARA_ELEM=CARELEM,
                       CHARGE=CHCAS1,       CHAM_MATER=CHMAT,
                      NUME_DDL=CO("NUM"),MATR_ASSE=(
                _F(  MATRICE = CO("MATASSR1"),  OPTION = 'RIGI_MECA'),
                          _F(  MATRICE = CO("MATASSM1"),  OPTION = 'MASS_MECA'))
                   )

#====================================================================
#                CALCUL MODAL

MODE=CALC_MODES( OPTION='AJUSTE',
                 MATR_RIGI=MATASSR1,
                 MATR_MASS=MATASSM1,
                 CALC_FREQ=_F( FREQ = (80., 570.) )
                )

TEST_RESU(RESU=(_F(NUME_ORDRE=1,
                   PARA='FREQ',
                   RESULTAT=MODE,
                   VALE_CALC=85.853306316,
                   VALE_REFE=85.599999999999994,
                   REFERENCE='NON_DEFINI',
                   CRITERE='RELATIF',
                   PRECISION=0.050000000000000003,),
                _F(NUME_ORDRE=2,
                   PARA='FREQ',
                   RESULTAT=MODE,
                   VALE_CALC=138.557126409,
                   VALE_REFE=134.5,
                   REFERENCE='NON_DEFINI',
                   CRITERE='RELATIF',
                   PRECISION=0.050000000000000003,),
                _F(NUME_ORDRE=3,
                   PARA='FREQ',
                   RESULTAT=MODE,
                   VALE_CALC=246.873162366,
                   VALE_REFE=259.0,
                   REFERENCE='NON_DEFINI',
                   CRITERE='RELATIF',
                   PRECISION=0.050000000000000003,),
                _F(NUME_ORDRE=4,
                   PARA='FREQ',
                   RESULTAT=MODE,
                   VALE_CALC=342.65188380075,
                   VALE_REFE=351.0,
                   REFERENCE='NON_DEFINI',
                   CRITERE='RELATIF',
                   PRECISION=0.050000000000000003,),
                _F(NUME_ORDRE=5,
                   PARA='FREQ',
                   RESULTAT=MODE,
                   VALE_CALC=386.57295004627,
                   VALE_REFE=395.0,
                   REFERENCE='NON_DEFINI',
                   CRITERE='RELATIF',
                   PRECISION=0.050000000000000003,),
                _F(NUME_ORDRE=6,
                   PARA='FREQ',
                   RESULTAT=MODE,
                   VALE_CALC=531.351204217,
                   VALE_REFE=531.0,
                   REFERENCE='NON_DEFINI',
                   CRITERE='RELATIF',
                   PRECISION=0.050000000000000003,),
                ),
          )

#====================================================================
FIN()
#
