# MODIF  DATE 09/11/2010   AUTEUR NISTOR I.NISTOR 
# TITRE SOUS STRUCTURATION DYNAMIQUE : PLAQUE MINCE APPUYEE-APPUYEE
# sdls106d.para = tps_job 60 mem_job 128Mo ncpus 1 liste_test R
#            CONFIGURATION MANAGEMENT OF EDF VERSION
# ======================================================================
# COPYRIGHT (C) 1991 - 2010  EDF R&D                  WWW.CODE-ASTER.ORG
# THIS PROGRAM IS FREE SOFTWARE; YOU CAN REDISTRIBUTE IT AND/OR MODIFY  
# IT UNDER THE TERMS OF THE GNU GENERAL PUBLIC LICENSE AS PUBLISHED BY  
# THE FREE SOFTWARE FOUNDATION; EITHER VERSION 2 OF THE LICENSE, OR     
# (AT YOUR OPTION) ANY LATER VERSION.                                                    
#                                                                       
# THIS PROGRAM IS DISTRIBUTED IN THE HOPE THAT IT WILL BE USEFUL, BUT   
# WITHOUT ANY WARRANTY; WITHOUT EVEN THE IMPLIED WARRANTY OF            
# MERCHANTABILITY OR FITNESS FOR A PARTICULAR PURPOSE. SEE THE GNU      
# GENERAL PUBLIC LICENSE FOR MORE DETAILS.                              
#                                                                       
# YOU SHOULD HAVE RECEIVED A COPY OF THE GNU GENERAL PUBLIC LICENSE     
# ALONG WITH THIS PROGRAM; IF NOT, WRITE TO EDF R&D CODE_ASTER,         
#    1 AVENUE DU GENERAL DE GAULLE, 92141 CLAMART CEDEX, FRANCE.        
# ======================================================================
#
# CAS_TEST__: PLAQUERITZ
#             VALIDATION SOUS-STRUCTURATION CLASSIQUE AVEC BASE MODALE
#             DE RITZ
#

#   CAS 1 : SOUS-STRUCTURATION CLASSIQUE

#           PLAQUE APPUYEE SUR SES BORDS DECOUPEE EN 3 PARTIES

#           AVEC INTERFACES DE TYPE CRAIG-BAMPTON SUR UNE INTERFACE

#                ET MAC NEAL SUR L'AUTRE

#           MAILLAGES COMPATIBLES

#

##
#
#123678901234567890123456789012345678901234567890123456789012345678901
#
DEBUT(CODE=_F(NOM='SDLS106D', NIV_PUB_WEB='INTERNET'), DEBUG=_F(SDVERI='OUI'))

#

PRE_IDEAS(UNITE_MAILLAGE=20,
          UNITE_IDEAS=19,
          );
          

MAIL=LIRE_MAILLAGE(UNITE=20,FORMAT='ASTER',)


MODELE1=AFFE_MODELE(MAILLAGE=MAIL,
                    AFFE=_F( GROUP_MA = 'F1',
                             PHENOMENE = 'MECANIQUE',
                             MODELISATION = 'DKT'),);
                             
MODELE2=AFFE_MODELE(MAILLAGE=MAIL,
                    AFFE=_F( GROUP_MA = 'F2',
                             PHENOMENE = 'MECANIQUE',
                             MODELISATION = 'DKT'),);
MODELE3=AFFE_MODELE(MAILLAGE=MAIL,
                    AFFE=_F( GROUP_MA = 'F3',
                             PHENOMENE = 'MECANIQUE',
                             MODELISATION = 'DKT'),);
                             
#
MATER=DEFI_MATERIAU(  ELAS=_F( E = 2.1E11,  NU = 0.30,  RHO = 7800.0))

#
CHMAT1=AFFE_MATERIAU(  MAILLAGE=MAIL,
                       AFFE=_F( GROUP_MA = 'F1',
                                    MATER = MATER))
CHMAT2=AFFE_MATERIAU(  MAILLAGE=MAIL,
                       AFFE=_F( GROUP_MA = 'F2',
                                    MATER = MATER))                                    
CHMAT3=AFFE_MATERIAU(  MAILLAGE=MAIL,
                       AFFE=_F( GROUP_MA = 'F3',
                                    MATER = MATER))

#
PARAM1=AFFE_CARA_ELEM(  MODELE=MODELE1,
                            COQUE=_F( EPAIS = 0.01,
                                   GROUP_MA = 'F1'))
PARAM2=AFFE_CARA_ELEM(  MODELE=MODELE2,
                            COQUE=_F( EPAIS = 0.01,
                                   GROUP_MA = 'F2'))
PARAM3=AFFE_CARA_ELEM(  MODELE=MODELE3,
                            COQUE=_F( EPAIS = 0.01,
                                   GROUP_MA = 'F3'))
#


########################################################################
#
#        PLAQUE APPUYEE-APPUYEE DECOUPEE EN 3 PARTIES
#                 SOUS-STRUCTURATION CLASSIQUE 
#          INTERFACES TYPE CRAIG-BAMPTON & MAC NEAL
#
########################################################################

# CONDITIONS AUX LIMITES

CHARGE_1=AFFE_CHAR_MECA(  MODELE=MODELE1,DDL_IMPO=(
               _F( GROUP_NO = 'F1CL', DX = 0.0, DY = 0.0, DZ = 0.0),
               _F( GROUP_NO = 'F1CB', DX = 0.0, DY = 0.0, DZ = 0.0,
                                      DRX= 0.0,DRY= 0.0, DRZ= 0.0),
                                                   )
                      )
CHARGE_2=AFFE_CHAR_MECA(  MODELE=MODELE2,DDL_IMPO=(
               _F( GROUP_NO = 'F2CL', DX = 0.0, DY = 0.0, DZ = 0.0),
               _F( GROUP_NO = 'F2CB', DX = 0.0, DY = 0.0, DZ = 0.0,
                                      DRX= 0.0,DRY= 0.0, DRZ= 0.0),
                                                   )
                      )
CHARGE_3=AFFE_CHAR_MECA(  MODELE=MODELE3,DDL_IMPO=(
               _F( GROUP_NO = 'F3CL', DX = 0.0, DY = 0.0, DZ = 0.0),
                                                   )
                      )

# ASSEMBLAGE DES MATRICES

MACRO_MATR_ASSE(MODELE=MODELE1,
                CARA_ELEM=PARAM1,
                CHARGE=CHARGE_1,
                CHAM_MATER=CHMAT1,
                NUME_DDL=CO("NUM1"),
                MATR_ASSE=(_F(MATRICE = CO("RAID1"),OPTION = 'RIGI_MECA'),
                           _F(MATRICE = CO("MASS1"),OPTION = 'MASS_MECA'),),
               )
MACRO_MATR_ASSE(MODELE=MODELE2,
                CARA_ELEM=PARAM2,
                CHARGE=CHARGE_2,
                CHAM_MATER=CHMAT2,
                NUME_DDL=CO("NUM2"),
                MATR_ASSE=(_F(MATRICE = CO("RAID2"),OPTION = 'RIGI_MECA'),
                           _F(MATRICE = CO("MASS2"),OPTION = 'MASS_MECA'),),
               )
MACRO_MATR_ASSE(MODELE=MODELE3,
                CARA_ELEM=PARAM3,
                CHARGE=CHARGE_3,
                CHAM_MATER=CHMAT3,
                NUME_DDL=CO("NUM3"),
                MATR_ASSE=(_F(MATRICE = CO("RAID3"),OPTION = 'RIGI_MECA'),
                           _F(MATRICE = CO("MASS3"),OPTION = 'MASS_MECA'),),
               )
               
# CALCULS DES MODES AVEC LES C.L. ASSOCIEES AUX TYPES D'INTERFACE

MODES_1=MODE_ITER_SIMULT(MATR_A=RAID1,
                         MATR_B=MASS1,
                         CALC_FREQ=_F(OPTION = 'PLUS_PETITE',
                         NMAX_FREQ = 10),)
MODES_2=MODE_ITER_SIMULT(MATR_A=RAID2,
                         MATR_B=MASS2,
                         CALC_FREQ=_F(OPTION = 'PLUS_PETITE',
                         NMAX_FREQ = 10),)
MODES_3=MODE_ITER_SIMULT(MATR_A=RAID3,
                         MATR_B=MASS3,
                         CALC_FREQ=_F(OPTION = 'PLUS_PETITE',
                         NMAX_FREQ = 10),)

#  DEFINITION DES INTERFACES

LINT1_CL=DEFI_INTERF_DYNA(NUME_DDL=NUM1,
                          INTERFACE=(_F(NOM = 'F1CB',
                                        TYPE = 'CRAIGB',
                                        GROUP_NO = 'F1CB'),
                                     ),)
                                     
LINT2_CL=DEFI_INTERF_DYNA(NUME_DDL=NUM2,
                          INTERFACE=(_F(NOM = 'F2CB',
                                        TYPE = 'CRAIGB',
                                        GROUP_NO = 'F2CB'),
                                     _F( NOM = 'F2MN',
                                        TYPE = 'MNEAL',
                                        GROUP_NO = 'F2MN'),
                                     ),)
                                     
LINT3_CL=DEFI_INTERF_DYNA(NUME_DDL=NUM3,
                          INTERFACE=(_F( NOM = 'F3MN',
                                        TYPE = 'MNEAL',
                                        GROUP_NO = 'F3MN'),
                                     ),)


# DEFINITION DES BASES MODALES

BAMO1_CL=DEFI_BASE_MODALE( CLASSIQUE=_F(MODE_MECA = MODES_1,
                                        INTERF_DYNA=LINT1_CL,),
                           )
BAMO2_CL=DEFI_BASE_MODALE( CLASSIQUE=_F(MODE_MECA = MODES_2,
                                        INTERF_DYNA=LINT2_CL,),             
                           )
BAMO3_CL=DEFI_BASE_MODALE( CLASSIQUE=_F(MODE_MECA = MODES_3,
                                        INTERF_DYNA=LINT3_CL,),             
                           )
                           
#  CALCUL DES MACRO-ELEMENTS

MACEL1=MACR_ELEM_DYNA( BASE_MODALE=BAMO1_CL,
                       MATR_MASS=MASS1,
                       MATR_RIGI=RAID1,)

MACEL2=MACR_ELEM_DYNA( BASE_MODALE=BAMO2_CL,
                       MATR_MASS=MASS2,
                       MATR_RIGI=RAID2)
                       
MACEL3=MACR_ELEM_DYNA( BASE_MODALE=BAMO3_CL,
                       MATR_MASS=MASS3,
                       MATR_RIGI=RAID3)
                       
#   CALCUL SUR MODELE GENERALISE

MODEGE=DEFI_MODELE_GENE(SOUS_STRUC=(_F( NOM = 'FA1',
                                        MACR_ELEM_DYNA = MACEL1,
                                        ANGL_NAUT = (0., 0., 0.,),
                                        TRANS=(0.,0.,0.),),
                                    _F( NOM = 'FA2',
                                        MACR_ELEM_DYNA = MACEL2,
                                        ANGL_NAUT = (0., 0., 0.,),
                                        TRANS=(0.,0.,0.),),
                                    _F( NOM = 'FA3',
                                        MACR_ELEM_DYNA = MACEL3,
                                        ANGL_NAUT = (0., 0., 0.,),
                                        TRANS=(0.,0.,0.),),
                                    ),
                             LIAISON=(_F(SOUS_STRUC_1 = 'FA1',
                                         SOUS_STRUC_2 = 'FA2',
                                         INTERFACE_1  = 'F1CB',
                                         INTERFACE_2  = 'F2CB',
                                       ),
                                      _F(SOUS_STRUC_1 = 'FA2',
                                         SOUS_STRUC_2 = 'FA3',
                                         INTERFACE_1  = 'F2MN',
                                         INTERFACE_2  = 'F3MN',
                                       ),    
                                      ), 
                               VERIF=_F( STOP_ERREUR = 'OUI',
                                      PRECISION = 1.E-6,
                                      CRITERE = 'RELATIF'),)

#  NUMEROTATION DU PROBLEME GENERALISE

NUMEGE=NUME_DDL_GENE(  MODELE_GENE=MODEGE,);

#  ASSEMBLAGE DES MATRICES RAIDEUR ET MASSE

MASGEN=ASSE_MATR_GENE(  NUME_DDL_GENE=NUMEGE,
                                  OPTION='MASS_GENE',);

RIGGEN=ASSE_MATR_GENE(  NUME_DDL_GENE=NUMEGE,
                                  OPTION='RIGI_GENE',);

#   CALCUL DES MODES PROPRES DE LA STRUCTURE GLOBALE

RESGEN=MODE_ITER_SIMULT( MATR_A=RIGGEN,
                         MATR_B=MASGEN,
                         METHODE='SORENSEN',
                         CALC_FREQ=_F( OPTION = 'PLUS_PETITE',
                                       NMAX_FREQ=10,),
                         SOLVEUR=_F(METHODE='MUMPS',
                                    PCENT_PIVOT=50,
                                    NPREC=9),
                         VERI_MODE=_F(PREC_SHIFT=5.0000000000000001E-3,
                                      STOP_ERREUR='NON',
                                      STURM='NON',
                                      SEUIL=9.9999999999999995E-01),
                         STOP_FREQ_VIDE='NON',
                         INFO=1,
                        )
                        
#   CREATION DU MAILLAGE SQUELETTE DE LA STRUCTURE GLOBALE

SQUEL=DEFI_SQUELETTE(  MODELE_GENE=MODEGE,SOUS_STRUC=(
                            _F( NOM = 'FA1',
                                        TOUT = 'OUI'),
                            _F( NOM = 'FA2',
                                        TOUT = 'OUI'),
                            _F( NOM = 'FA3',
                                        TOUT = 'OUI'),
                                        ),
                    )

#   RESTITUTION SUR MAILLAGE SQUELETTE

MODGLO=REST_SOUS_STRUC(RESU_GENE=RESGEN,
                       SQUELETTE=SQUEL,
                       TOUT_ORDRE='OUI',
                       TOUT_CHAM='OUI')

TEST_RESU(RESU=(_F( RESULTAT = MODGLO, PARA = 'FREQ',
                CRITERE = 'RELATIF', PRECISION = 1.25E-2,
                NUME_ORDRE = 1,  VALE = 17.12, REFERENCE = 'ANALYTIQUE',),
          _F( RESULTAT = MODGLO, PARA = 'FREQ',
                CRITERE = 'RELATIF', PRECISION = 1.25E-2,
                NUME_ORDRE = 2,  VALE = 35.61, REFERENCE = 'ANALYTIQUE',),
          _F( RESULTAT = MODGLO, PARA = 'FREQ',
                CRITERE = 'RELATIF', PRECISION = 1.25E-2,
                NUME_ORDRE = 3,  VALE = 49.99, REFERENCE = 'ANALYTIQUE',),
          _F( RESULTAT = MODGLO, PARA = 'FREQ',
                CRITERE = 'RELATIF', PRECISION = 1.25E-2,
                NUME_ORDRE = 4,  VALE = 66.42, REFERENCE = 'ANALYTIQUE',),
          _F( RESULTAT = MODGLO, PARA = 'FREQ',
                CRITERE = 'RELATIF', PRECISION = 1.25E-2,
                NUME_ORDRE = 5,  VALE = 68.48, REFERENCE = 'ANALYTIQUE',)) )

FIN()
