# MODIF  DATE 23/06/2006   AUTEUR MARKOVIC D.MARKOVIC 
# TITRE NON DIVERGENCE D'UNE PLAQUE EN DYNAMIQUE EXPLICITE
#            CONFIGURATION MANAGEMENT OF EDF VERSION
# ======================================================================
# COPYRIGHT (C) 1991 - 2006  EDF R&D                  WWW.CODE-ASTER.ORG
# THIS PROGRAM IS FREE SOFTWARE; YOU CAN REDISTRIBUTE IT AND/OR MODIFY  
# IT UNDER THE TERMS OF THE GNU GENERAL PUBLIC LICENSE AS PUBLISHED BY  
# THE FREE SOFTWARE FOUNDATION; EITHER VERSION 2 OF THE LICENSE, OR     
# (AT YOUR OPTION) ANY LATER VERSION.                                                    
#                                                                       
# THIS PROGRAM IS DISTRIBUTED IN THE HOPE THAT IT WILL BE USEFUL, BUT   
# WITHOUT ANY WARRANTY; WITHOUT EVEN THE IMPLIED WARRANTY OF            
# MERCHANTABILITY OR FITNESS FOR A PARTICULAR PURPOSE. SEE THE GNU      
# GENERAL PUBLIC LICENSE FOR MORE DETAILS.                              
#                                                                       
# YOU SHOULD HAVE RECEIVED A COPY OF THE GNU GENERAL PUBLIC LICENSE     
# ALONG WITH THIS PROGRAM; IF NOT, WRITE TO EDF R&D CODE_ASTER,         
#    1 AVENUE DU GENERAL DE GAULLE, 92141 CLAMART CEDEX, FRANCE.        
# ======================================================================
# ON TESTE LA COMBINAISON DKT->DYNA_TRAN_EXPLI->PETIT_REAC->MASS_MECA_DIAG
# DANS LA VERSION PRECEDENTE CALCUL DIVERGEAIT A CAUSE DE LA MAUVAISE VALEUR (=0)
# DE LA COMPOSANTE DDL 6 DE LA MASSE.   

DEBUT(     CODE=_F(  NOM = 'SDLS116A',NIV_PUB_WEB='INTERNET'))
RHO  = 2500.E0  
EP   = 0.1

EY  = 4.3880E10 
NU  = 0.

C0   = sqrt(EY/RHO)
K    = 3.1416/8.0  

FREQ = K*C0
Q0   = 1.0E-4

F0   = EY*Q0*K * EP * cos(K) 

TMAX = 1.2E-3
DT = 1.0E-5

MAIL=LIRE_MAILLAGE();

MAIL=DEFI_GROUP(reuse =MAIL,
                MAILLAGE=MAIL,
                CREA_GROUP_NO=(_F(GROUP_MA='A1A2',),
                               _F(GROUP_MA='A4A3' ,),
                               _F(GROUP_MA='A2A4' ,),
                               _F(GROUP_MA='A3A1' ,),
                             ),);

MOD1=AFFE_MODELE(MAILLAGE=MAIL,
                AFFE=_F(TOUT='OUI',
                        PHENOMENE='MECANIQUE',
                        MODELISATION='DKT',),);



MAT=DEFI_MATERIAU(                           
                  ELAS = _F(
                             E    =  EY,   
                             NU   =  NU,              
                             RHO  = RHO,
                           ),
                 );

                             
CHMAT=AFFE_MATERIAU(MAILLAGE=MAIL,
                    AFFE=(_F(TOUT='OUI',MATER=MAT,),),
                    );
                             
CELE1=AFFE_CARA_ELEM(MODELE=MOD1,
                        COQUE=_F(GROUP_MA='MESH',
                                 EPAIS=EP,
                                 INER_ROTA = 'OUI',
                                 ANGL_REP=(0.0,0.0),
                                ),
                       );


COND_L1=AFFE_CHAR_MECA(MODELE=MOD1,
                        DDL_IMPO=(
                                  _F(GROUP_NO='A1',
                                     DX=0.0,
                                     DY=0.0,
                                     DZ=0.0,
                                     DRX=0.0,
                                     DRY=0.0,
                                     DRZ=0.0,
                                     ),
                                  _F(GROUP_NO='A3A1',
                                     DX=0.0,
                                     DZ=0.0,
                                     DRX=0.0,
                                     DRY=0.0,
                                     DRZ=0.0,
                                      ),
                                  ),
                     FORCE_ARETE = _F(
                                      GROUP_MA = 'A2A4',
                                      FX       = 1.0,
                                      FZ       = 1.0
                                      )         
                       );


ffonc = FORMULE (
                  NOM_PARA = 'INST',
                  VALE = ''' F0*sin(FREQ*INST) '''
                  )

INST1=DEFI_LIST_REEL(DEBUT=0.0,INTERVALLE=(
                          _F(JUSQU_A = TMAX,PAS = DT),
                      ),);              

chf1  = CALC_FONC_INTERP (
                          FONCTION   = ffonc,
                          LIST_PARA  = INST1,
                          PROL_DROITE = 'CONSTANT',
                          PROL_GAUCHE = 'CONSTANT',
                          )
IMPR_CO(
         CONCEPT = _F(
                     NOM = 'chf1'
                    )
        )
        
NN1  = int(TMAX/DT)

                 
RESU1 = DYNA_TRAN_EXPLI( 
                       MODELE=MOD1,
                       CHAM_MATER= CHMAT,
                       CARA_ELEM = CELE1,
                       COMP_INCR=_F(
                                    RELATION ='ELAS',
                                    DEFORMATION='PETIT_REAC'
                                   ),
                       INCREMENT=_F( LIST_INST = INST1,
                                     PRECISION =1.E-1),
                       EXCIT=(   _F( CHARGE = COND_L1, 
                                     FONC_MULT = chf1,),
                             ),
                       DIFF_CENT = _F(), 
                       MASS_DIAG = 'OUI', 
                     );
                    
                 
TEST_RESU(RESU=_F(RESULTAT=RESU1,
                  NOEUD='N2',
                  NUME_ORDRE = 120,
                  NOM_CHAM='DEPL',
                  NOM_CMP='DX',
                  VALE = 2.49E-5,
                  PRECISION = 5.E-2,
                  REFERENCE='NON_REGRESSION',
                  ),);

FIN();
