# TITRE ENVELOPPE SPHERIQUE EN ANALYSE MODALE
#            CONFIGURATION MANAGEMENT OF EDF VERSION
# ======================================================================
# COPYRIGHT (C) 1991 - 2012  EDF R&D                  WWW.CODE-ASTER.ORG
# THIS PROGRAM IS FREE SOFTWARE; YOU CAN REDISTRIBUTE IT AND/OR MODIFY
# IT UNDER THE TERMS OF THE GNU GENERAL PUBLIC LICENSE AS PUBLISHED BY
# THE FREE SOFTWARE FOUNDATION; EITHER VERSION 2 OF THE LICENSE, OR
# (AT YOUR OPTION) ANY LATER VERSION.
#
# THIS PROGRAM IS DISTRIBUTED IN THE HOPE THAT IT WILL BE USEFUL, BUT
# WITHOUT ANY WARRANTY; WITHOUT EVEN THE IMPLIED WARRANTY OF
# MERCHANTABILITY OR FITNESS FOR A PARTICULAR PURPOSE. SEE THE GNU
# GENERAL PUBLIC LICENSE FOR MORE DETAILS.
#
# YOU SHOULD HAVE RECEIVED A COPY OF THE GNU GENERAL PUBLIC LICENSE
# ALONG WITH THIS PROGRAM; IF NOT, WRITE TO EDF R&D CODE_ASTER,
#    1 AVENUE DU GENERAL DE GAULLE, 92141 CLAMART CEDEX, FRANCE.
# ======================================================================

DEBUT(CODE=_F(NOM='SDLS07C', NIV_PUB_WEB='INTERNET'), DEBUG=_F(SDVERI='OUI'))

#......................................................................
# MODELISATION COQUE_AXIS:   41 NOEUDS -- 20 MAILLES SEG3 ; KAPPA=1.E6
#              LOVE_KIRCHHOFF
#......................................................................



MAILL=LIRE_MAILLAGE(FORMAT='MED',   )

MAILL=DEFI_GROUP( reuse=MAILL,   MAILLAGE=MAILL,
  CREA_GROUP_MA=_F(  NOM = 'TOUT', TOUT = 'OUI'))

MATER=DEFI_MATERIAU( ELAS=_F(  E = 2.E+11,  NU = 0.3,  RHO = 7800.) )

CHMAT=AFFE_MATERIAU(  MAILLAGE=MAILL,
                            AFFE=_F( TOUT = 'OUI',   MATER = MATER) )

MODEL=AFFE_MODELE(    MAILLAGE=MAILL,
                            AFFE=_F( TOUT = 'OUI',   MODELISATION = 'COQUE_AXIS',
                            PHENOMENE = 'MECANIQUE') )

CARELEM=AFFE_CARA_ELEM(  MODELE=MODEL,
                   COQUE=_F(
       GROUP_MA = 'TOUT',
 EPAIS = 0.10,
                        A_CIS = 1.E2,  MODI_METRIQUE = 'NON') )

RIGELEM=CALC_MATR_ELEM(   MODELE=MODEL,
                                 CARA_ELEM=CARELEM,  CHAM_MATER=CHMAT,
                                 OPTION='RIGI_MECA' )

MASELEM=CALC_MATR_ELEM(   MODELE=MODEL,
                                 CARA_ELEM=CARELEM,  CHAM_MATER=CHMAT,
                                OPTION='MASS_MECA' )

NUM=NUME_DDL(   MATR_RIGI=RIGELEM,
                METHODE  ='MULT_FRONT',
                RENUM    ='MDA' ),

RIGASS=ASSE_MATRICE(   MATR_ELEM=RIGELEM,   NUME_DDL=NUM   )

MASASS=ASSE_MATRICE(   MATR_ELEM=MASELEM,   NUME_DDL=NUM   )

MODVIB=MODE_ITER_SIMULT(  MATR_RIGI=RIGASS,
                          MATR_MASS=MASASS,
                          CALC_FREQ=_F( OPTION = 'BANDE',  FREQ = (220., 540.,),)
                       )


MODITI=MODE_ITER_INV(     MATR_RIGI=RIGASS,  MATR_MASS=MASASS,
          CALC_FREQ=_F( NMAX_FREQ = 12, OPTION = 'AJUSTE', FREQ = (220., 540.,),
                     NMAX_ITER_AJUSTE = 20),
          CALC_MODE=_F( NMAX_ITER = 50)
            )


TEST_RESU(RESU=(_F(NUME_ORDRE=1,
                   PARA='FREQ',
                   RESULTAT=MODVIB,
                   VALE_CALC=237.264845353,
                   VALE_REFE=237.25,
                   REFERENCE='NON_DEFINI',
                   PRECISION=1.E-2,),
                _F(NUME_ORDRE=2,
                   PARA='FREQ',
                   RESULTAT=MODVIB,
                   VALE_CALC=282.693661886,
                   VALE_REFE=282.85000000000002,
                   REFERENCE='NON_DEFINI',
                   PRECISION=1.E-2,),
                _F(NUME_ORDRE=3,
                   PARA='FREQ',
                   RESULTAT=MODVIB,
                   VALE_CALC=304.847167354,
                   VALE_REFE=305.24000000000001,
                   REFERENCE='NON_DEFINI',
                   PRECISION=1.E-2,),
                _F(NUME_ORDRE=4,
                   PARA='FREQ',
                   RESULTAT=MODVIB,
                   VALE_CALC=323.567893974,
                   VALE_REFE=324.17000000000002,
                   REFERENCE='NON_DEFINI',
                   PRECISION=1.E-2,),
                _F(NUME_ORDRE=5,
                   PARA='FREQ',
                   RESULTAT=MODVIB,
                   VALE_CALC=346.085057093,
                   VALE_REFE=346.75999999999999,
                   REFERENCE='NON_DEFINI',
                   PRECISION=1.E-2,),
                _F(NUME_ORDRE=6,
                   PARA='FREQ',
                   RESULTAT=MODVIB,
                   VALE_CALC=376.216070392,
                   VALE_REFE=376.68000000000001,
                   REFERENCE='NON_DEFINI',
                   PRECISION=1.E-2,),
                _F(NUME_ORDRE=7,
                   PARA='FREQ',
                   RESULTAT=MODVIB,
                   VALE_CALC=416.202261282,
                   VALE_REFE=416.0,
                   REFERENCE='NON_DEFINI',
                   PRECISION=1.E-2,),
                _F(NUME_ORDRE=8,
                   PARA='FREQ',
                   RESULTAT=MODVIB,
                   VALE_CALC=467.230320615,
                   VALE_REFE=465.75,
                   REFERENCE='NON_DEFINI',
                   PRECISION=1.E-2,),
                _F(NUME_ORDRE=9,
                   PARA='FREQ',
                   RESULTAT=MODVIB,
                   VALE_CALC=529.761527199,
                   VALE_REFE=526.20000000000005,
                   REFERENCE='NON_DEFINI',
                   PRECISION=1.E-2,),
                ),
          )

TEST_RESU(RESU=(_F(NUME_ORDRE=1,
                   PARA='FREQ',
                   RESULTAT=MODITI,
                   VALE_CALC=237.264845378,
                   VALE_REFE=237.25,
                   REFERENCE='NON_DEFINI',
                   PRECISION=1.E-2,),
                _F(NUME_ORDRE=2,
                   PARA='FREQ',
                   RESULTAT=MODITI,
                   VALE_CALC=282.693661886,
                   VALE_REFE=282.85000000000002,
                   REFERENCE='NON_DEFINI',
                   PRECISION=1.E-2,),
                _F(NUME_ORDRE=3,
                   PARA='FREQ',
                   RESULTAT=MODITI,
                   VALE_CALC=304.847177008,
                   VALE_REFE=305.24000000000001,
                   REFERENCE='NON_DEFINI',
                   PRECISION=1.E-2,),
                _F(NUME_ORDRE=4,
                   PARA='FREQ',
                   RESULTAT=MODITI,
                   VALE_CALC=323.567893974,
                   VALE_REFE=324.17000000000002,
                   REFERENCE='NON_DEFINI',
                   PRECISION=1.E-2,),
                _F(NUME_ORDRE=5,
                   PARA='FREQ',
                   RESULTAT=MODITI,
                   VALE_CALC=346.085057181,
                   VALE_REFE=346.75999999999999,
                   REFERENCE='NON_DEFINI',
                   PRECISION=1.E-2,),
                _F(NUME_ORDRE=6,
                   PARA='FREQ',
                   RESULTAT=MODVIB,
                   VALE_CALC=376.216070392,
                   VALE_REFE=376.68000000000001,
                   REFERENCE='NON_DEFINI',
                   PRECISION=1.E-2,),
                _F(NUME_ORDRE=7,
                   PARA='FREQ',
                   RESULTAT=MODVIB,
                   VALE_CALC=416.202261282,
                   VALE_REFE=416.0,
                   REFERENCE='NON_DEFINI',
                   PRECISION=1.E-2,),
                _F(NUME_ORDRE=8,
                   PARA='FREQ',
                   RESULTAT=MODVIB,
                   VALE_CALC=467.230320615,
                   VALE_REFE=465.75,
                   REFERENCE='NON_DEFINI',
                   PRECISION=1.E-2,),
                _F(NUME_ORDRE=9,
                   PARA='FREQ',
                   RESULTAT=MODVIB,
                   VALE_CALC=529.761527199,
                   VALE_REFE=526.20000000000005,
                   REFERENCE='NON_DEFINI',
                   PRECISION=1.E-2,),
                ),
          )

FIN()
#
