# TITRE FREQUENCES PROPRES D'UN ANNEAU CYLINDRIQUE EPAIS
# ======================================================================
# COPYRIGHT (C) 1991 - 2012  EDF R&D                  WWW.CODE-ASTER.ORG
# THIS PROGRAM IS FREE SOFTWARE; YOU CAN REDISTRIBUTE IT AND/OR MODIFY
# IT UNDER THE TERMS OF THE GNU GENERAL PUBLIC LICENSE AS PUBLISHED BY
# THE FREE SOFTWARE FOUNDATION; EITHER VERSION 2 OF THE LICENSE, OR
# (AT YOUR OPTION) ANY LATER VERSION.
#
# THIS PROGRAM IS DISTRIBUTED IN THE HOPE THAT IT WILL BE USEFUL, BUT
# WITHOUT ANY WARRANTY; WITHOUT EVEN THE IMPLIED WARRANTY OF
# MERCHANTABILITY OR FITNESS FOR A PARTICULAR PURPOSE. SEE THE GNU
# GENERAL PUBLIC LICENSE FOR MORE DETAILS.
#
# YOU SHOULD HAVE RECEIVED A COPY OF THE GNU GENERAL PUBLIC LICENSE
# ALONG WITH THIS PROGRAM; IF NOT, WRITE TO EDF R&D CODE_ASTER,
#    1 AVENUE DU GENERAL DE GAULLE, 92141 CLAMART CEDEX, FRANCE.
# ======================================================================
DEBUT(CODE=_F(NIV_PUB_WEB='INTERNET'),DEBUG=_F(SDVERI='OUI'))
MAIL=LIRE_MAILLAGE(FORMAT='MED',);
MOD_DKT=AFFE_MODELE(AFFE=_F(GROUP_MA='SURF_S',
                           PHENOMENE='MECANIQUE',
                           MODELISATION='DKT',),
                   MAILLAGE=MAIL,);
MOD_DST=AFFE_MODELE(AFFE=_F(GROUP_MA='SURF_S',
                           PHENOMENE='MECANIQUE',
                           MODELISATION='DST',),
                   MAILLAGE=MAIL,);
M_S=DEFI_MATERIAU(ELAS=_F(NU=0.29999999999999999,
                          RHO=7800.0,
                          E=1.85000000000E11,),);
CHAM_MAT=AFFE_MATERIAU(AFFE=_F(MATER=M_S,
                               GROUP_MA='SURF_S',),
                       MAILLAGE=MAIL,);
CARA_DKT=AFFE_CARA_ELEM(MODELE=MOD_DKT,
                       COQUE=_F(ANGL_REP=(45.0,-45.0),
                                GROUP_MA='SURF_S',
                                A_CIS=0.83333333300000001,
                                EPAIS=0.048000000000000001,),);
CARA_DST=AFFE_CARA_ELEM(MODELE=MOD_DST,
                       COQUE=_F(ANGL_REP=(45.0,-45.0),
                                GROUP_MA='SURF_S',
                                A_CIS=0.83333333300000001,
                                EPAIS=0.048000000000000001,),);
MK_DKT=CALC_MATR_ELEM(OPTION='RIGI_MECA',
                     MODELE=MOD_DKT,
                     CHAM_MATER=CHAM_MAT,
                     CARA_ELEM=CARA_DKT,);
MM_DKT=CALC_MATR_ELEM(OPTION='MASS_MECA',
                     MODELE=MOD_DKT,
                     CHAM_MATER=CHAM_MAT,
                     CARA_ELEM=CARA_DKT,);
NUM_DKT=NUME_DDL(MATR_RIGI=MK_DKT,);
MASK_DKT=ASSE_MATRICE(MATR_ELEM=MK_DKT,
                      NUME_DDL=NUM_DKT,);
MASM_DKT=ASSE_MATRICE(MATR_ELEM=MM_DKT,
                      NUME_DDL=NUM_DKT,);
MODE_DKT=MODE_ITER_SIMULT(OPTION='SANS',
                       MATR_RIGI=MASK_DKT,
                       MATR_MASS=MASM_DKT,
                       CALC_FREQ=_F(OPTION='BANDE',
                                    FREQ=(200.,800.0),),);

MK_DST=CALC_MATR_ELEM(OPTION='RIGI_MECA',
                     MODELE=MOD_DST,
                     CHAM_MATER=CHAM_MAT,
                     CARA_ELEM=CARA_DST,);
MM_DST=CALC_MATR_ELEM(OPTION='MASS_MECA',
                     MODELE=MOD_DST,
                     CHAM_MATER=CHAM_MAT,
                     CARA_ELEM=CARA_DST,);
NUM_DST=NUME_DDL(MATR_RIGI=MK_DST,);
MASK_DST=ASSE_MATRICE(MATR_ELEM=MK_DST,
                      NUME_DDL=NUM_DST,);
MASM_DST=ASSE_MATRICE(MATR_ELEM=MM_DST,
                      NUME_DDL=NUM_DST,);
MODE_DST=MODE_ITER_SIMULT(OPTION='SANS',
                       MATR_RIGI=MASK_DST,
                       MATR_MASS=MASM_DST,
                       CALC_FREQ=_F(OPTION='BANDE',
                                    FREQ=(200.,800.0),),);

TEST_RESU(RESU=(_F(NUME_ORDRE=1,
                   PARA='FREQ',
                   REFERENCE='AUTRE_ASTER',
                   RESULTAT=MODE_DKT,
                   VALE_CALC=211.538423489,
                   VALE_REFE=210.55000000000001,
                   PRECISION=1.E-2,),
                _F(NUME_ORDRE=2,
                   PARA='FREQ',
                   REFERENCE='AUTRE_ASTER',
                   RESULTAT=MODE_DKT,
                   VALE_CALC=211.538423503,
                   VALE_REFE=210.55000000000001,
                   PRECISION=1.E-2,),
                _F(NUME_ORDRE=5,
                   PARA='FREQ',
                   REFERENCE='AUTRE_ASTER',
                   RESULTAT=MODE_DKT,
                   VALE_CALC=598.580465982,
                   VALE_REFE=587.91999999999996,
                   PRECISION=0.029999999999999999,),
                _F(NUME_ORDRE=6,
                   PARA='FREQ',
                   REFERENCE='AUTRE_ASTER',
                   RESULTAT=MODE_DKT,
                   VALE_CALC=598.580466011,
                   VALE_REFE=587.91999999999996,
                   PRECISION=0.029999999999999999,),
                _F(NUME_ORDRE=1,
                   PARA='FREQ',
                   REFERENCE='AUTRE_ASTER',
                   RESULTAT=MODE_DST,
                   VALE_CALC=208.199223799,
                   VALE_REFE=210.55000000000001,
                   PRECISION=0.050000000000000003,),
                _F(NUME_ORDRE=2,
                   PARA='FREQ',
                   REFERENCE='AUTRE_ASTER',
                   RESULTAT=MODE_DST,
                   VALE_CALC=208.199223920,
                   VALE_REFE=210.55000000000001,
                   PRECISION=0.050000000000000003,),
                _F(NUME_ORDRE=5,
                   PARA='FREQ',
                   REFERENCE='AUTRE_ASTER',
                   RESULTAT=MODE_DST,
                   VALE_CALC=581.004473834,
                   VALE_REFE=587.91999999999996,
                   PRECISION=0.050000000000000003,),
                _F(NUME_ORDRE=6,
                   PARA='FREQ',
                   REFERENCE='AUTRE_ASTER',
                   RESULTAT=MODE_DST,
                   VALE_CALC=581.004474154,
                   VALE_REFE=587.91999999999996,
                   PRECISION=0.050000000000000003,),
                ),
          )

FIN();
