# TITRE ENVELOPPE SPHERIQUE MINCE EN ANALYSE MODALE
# ======================================================================
# COPYRIGHT (C) 1991 - 2012  EDF R&D                  WWW.CODE-ASTER.ORG
# THIS PROGRAM IS FREE SOFTWARE; YOU CAN REDISTRIBUTE IT AND/OR MODIFY
# IT UNDER THE TERMS OF THE GNU GENERAL PUBLIC LICENSE AS PUBLISHED BY
# THE FREE SOFTWARE FOUNDATION; EITHER VERSION 2 OF THE LICENSE, OR
# (AT YOUR OPTION) ANY LATER VERSION.
#
# THIS PROGRAM IS DISTRIBUTED IN THE HOPE THAT IT WILL BE USEFUL, BUT
# WITHOUT ANY WARRANTY; WITHOUT EVEN THE IMPLIED WARRANTY OF
# MERCHANTABILITY OR FITNESS FOR A PARTICULAR PURPOSE. SEE THE GNU
# GENERAL PUBLIC LICENSE FOR MORE DETAILS.
#
# YOU SHOULD HAVE RECEIVED A COPY OF THE GNU GENERAL PUBLIC LICENSE
# ALONG WITH THIS PROGRAM; IF NOT, WRITE TO EDF R&D CODE_ASTER,
#    1 AVENUE DU GENERAL DE GAULLE, 92141 CLAMART CEDEX, FRANCE.
# ======================================================================
#CAS_TEST__: SDLS07D
# SDLS07
# ENVELOPPE SPHERIQUE MINCE EN ANALYSE MODALE
# MAILLAGE 1/8 DE CYLINDRE
#
#

DEBUT(CODE=_F(NOM='SDLS07D',NIV_PUB_WEB='INTERNET'),DEBUG=_F(SDVERI='OUI'))

MATERI_1=DEFI_MATERIAU( ELAS=_F(  E = 2.0E+11,  NU = 0.30, RHO = 7800.) )

MAILLA_1=LIRE_MAILLAGE(FORMAT='MED',   )

MAILLA_1=DEFI_GROUP( reuse=MAILLA_1,   MAILLAGE=MAILLA_1,
  CREA_GROUP_MA=_F(  NOM = 'TOUT', TOUT = 'OUI'))

CH_MAT_1=AFFE_MATERIAU(  MAILLAGE=MAILLA_1,
                            AFFE=_F(  TOUT = 'OUI',   MATER = MATERI_1) )

MODELE_1=AFFE_MODELE(  MAILLAGE=MAILLA_1, VERIF='MAILLE',
                     AFFE=_F( TOUT = 'OUI', MODELISATION = 'COQUE_3D',
                                PHENOMENE = 'MECANIQUE') )

CINE=AFFE_CHAR_MECA(MODELE=MODELE_1,DDL_IMPO=(
             _F( GROUP_NO = 'X_NUL', DX = 0., DRY = 0., DRZ = 0.),
             _F( GROUP_NO = 'Y_NUL', DY = 0., DRX = 0., DRZ = 0.),
             _F( GROUP_NO = 'Z_NUL', DZ = 0., DRX = 0., DRY = 0.),
             _F( GROUP_NO = 'B',   DX = 0., DY = 0., DRX = 0., DRY = 0., DRZ = 0.),
             _F( GROUP_NO = 'A',   DZ = 0., DY = 0., DRX = 0., DRY = 0., DRZ = 0.),
             _F( GROUP_NO = 'C',   DX = 0., DZ = 0., DRX = 0., DRY = 0., DRZ = 0.)))

CARAC__1=AFFE_CARA_ELEM(   MODELE=MODELE_1,
                               COQUE=_F(
       GROUP_MA = 'TOUT',
  EPAIS = 0.100,
                                      A_CIS = 0.83333333333333) )

MATELE_1=CALC_MATR_ELEM(   MODELE=MODELE_1,     CHARGE=CINE,
                               CARA_ELEM=CARAC__1,
                               CHAM_MATER=CH_MAT_1,
                               OPTION='RIGI_MECA' )

ASSEMBLAGE(   MODELE=MODELE_1,     CARA_ELEM=CARAC__1,
                       CHARGE=CINE,         CHAM_MATER=CH_MAT_1,
                      NUME_DDL=CO("NUM"),MATR_ASSE=(
                _F(  MATRICE = CO("MATASSR1"),  OPTION = 'RIGI_MECA'),
                          _F(  MATRICE = CO("MATASSM1"),  OPTION = 'MASS_MECA'))
                   )

#====================================================================
#                CALCUL MODAL

MODE1=MODE_ITER_SIMULT(  MATR_RIGI=MATASSR1,
                         MATR_MASS=MATASSM1,
                         CALC_FREQ=_F( OPTION = 'BANDE', FREQ = (230., 535.,))
                        )

#
#
#

TEST_RESU(RESU=(_F(NUME_ORDRE=1,
                   PARA='FREQ',
                   RESULTAT=MODE1,
                   VALE_CALC=237.249094796,
                   VALE_REFE=237.25,
                   REFERENCE='NON_DEFINI',
                   PRECISION=1.E-2,),
                _F(NUME_ORDRE=2,
                   PARA='FREQ',
                   RESULTAT=MODE1,
                   VALE_CALC=237.25249190051,
                   VALE_REFE=237.25,
                   REFERENCE='NON_DEFINI',
                   PRECISION=1.E-2,),
                _F(NUME_ORDRE=3,
                   PARA='FREQ',
                   RESULTAT=MODE1,
                   VALE_CALC=304.91245708331,
                   VALE_REFE=305.24000000000001,
                   REFERENCE='NON_DEFINI',
                   PRECISION=1.E-2,),
                _F(NUME_ORDRE=4,
                   PARA='FREQ',
                   RESULTAT=MODE1,
                   VALE_CALC=304.91912566088,
                   VALE_REFE=305.24000000000001,
                   REFERENCE='NON_DEFINI',
                   PRECISION=1.E-2,),
                _F(NUME_ORDRE=5,
                   PARA='FREQ',
                   RESULTAT=MODE1,
                   VALE_CALC=304.94184681638,
                   VALE_REFE=305.24000000000001,
                   REFERENCE='NON_DEFINI',
                   PRECISION=1.E-2,),
                _F(NUME_ORDRE=6,
                   PARA='FREQ',
                   RESULTAT=MODE1,
                   VALE_CALC=345.36265449701,
                   VALE_REFE=346.75999999999999,
                   REFERENCE='NON_DEFINI',
                   PRECISION=1.E-2,),
                _F(NUME_ORDRE=7,
                   PARA='FREQ',
                   RESULTAT=MODE1,
                   VALE_CALC=345.4018642155,
                   VALE_REFE=346.75999999999999,
                   REFERENCE='NON_DEFINI',
                   PRECISION=1.E-2,),
                _F(NUME_ORDRE=8,
                   PARA='FREQ',
                   RESULTAT=MODE1,
                   VALE_CALC=345.40494105857,
                   VALE_REFE=346.75999999999999,
                   REFERENCE='NON_DEFINI',
                   PRECISION=1.E-2,),
                _F(NUME_ORDRE=9,
                   PARA='FREQ',
                   RESULTAT=MODE1,
                   VALE_CALC=345.52453660231,
                   VALE_REFE=346.75999999999999,
                   REFERENCE='NON_DEFINI',
                   PRECISION=1.E-2,),
                _F(NUME_ORDRE=10,
                   PARA='FREQ',
                   RESULTAT=MODE1,
                   VALE_CALC=411.54665168441,
                   VALE_REFE=416.0,
                   REFERENCE='NON_DEFINI',
                   PRECISION=0.010999999999999999,),
                _F(NUME_ORDRE=11,
                   PARA='FREQ',
                   RESULTAT=MODE1,
                   VALE_CALC=411.92039578504,
                   VALE_REFE=416.0,
                   REFERENCE='NON_DEFINI',
                   PRECISION=0.010999999999999999,),
                _F(NUME_ORDRE=12,
                   PARA='FREQ',
                   RESULTAT=MODE1,
                   VALE_CALC=412.02780576894,
                   VALE_REFE=416.0,
                   REFERENCE='NON_DEFINI',
                   PRECISION=1.E-2,),
                _F(NUME_ORDRE=13,
                   PARA='FREQ',
                   RESULTAT=MODE1,
                   VALE_CALC=412.08013783576,
                   VALE_REFE=416.0,
                   REFERENCE='NON_DEFINI',
                   PRECISION=1.E-2,),
                _F(NUME_ORDRE=14,
                   PARA='FREQ',
                   RESULTAT=MODE1,
                   VALE_CALC=412.1611909998,
                   VALE_REFE=416.0,
                   REFERENCE='NON_DEFINI',
                   PRECISION=0.02,),
                _F(NUME_ORDRE=15,
                   PARA='FREQ',
                   RESULTAT=MODE1,
                   VALE_CALC=515.98313466012,
                   VALE_REFE=526.20000000000005,
                   REFERENCE='NON_DEFINI',
                   PRECISION=0.02,),
                _F(NUME_ORDRE=16,
                   PARA='FREQ',
                   RESULTAT=MODE1,
                   VALE_CALC=516.24045482036,
                   VALE_REFE=526.20000000000005,
                   REFERENCE='NON_DEFINI',
                   PRECISION=0.019,),
                _F(NUME_ORDRE=17,
                   PARA='FREQ',
                   RESULTAT=MODE1,
                   VALE_CALC=517.02787980407,
                   VALE_REFE=526.20000000000005,
                   REFERENCE='NON_DEFINI',
                   PRECISION=0.017999999999999999,),
                _F(NUME_ORDRE=18,
                   PARA='FREQ',
                   RESULTAT=MODE1,
                   VALE_CALC=517.9132945539,
                   VALE_REFE=526.20000000000005,
                   REFERENCE='NON_DEFINI',
                   PRECISION=0.016,),
                _F(NUME_ORDRE=19,
                   PARA='FREQ',
                   RESULTAT=MODE1,
                   VALE_CALC=517.95517626527,
                   VALE_REFE=526.20000000000005,
                   REFERENCE='NON_DEFINI',
                   PRECISION=0.016,),
                _F(NUME_ORDRE=20,
                   PARA='FREQ',
                   RESULTAT=MODE1,
                   VALE_CALC=517.98098475329,
                   VALE_REFE=526.20000000000005,
                   REFERENCE='NON_DEFINI',
                   PRECISION=0.016,),
                ),
          )

FIN()
#
