# MODIF  DATE 26/09/2012   AUTEUR LEBOUVIER F.LEBOUVIER 
# TITRE PLAQUE RECTANGULAIRE MINCE SIMPLEMENT APPUYEE Q4G
# sdls03d.para = tps_job 60 mem_job 512Mo ncpus 1 liste_test S
#            CONFIGURATION MANAGEMENT OF EDF VERSION
# ======================================================================
# COPYRIGHT (C) 1991 - 2012  EDF R&D                  WWW.CODE-ASTER.ORG
# THIS PROGRAM IS FREE SOFTWARE; YOU CAN REDISTRIBUTE IT AND/OR MODIFY  
# IT UNDER THE TERMS OF THE GNU GENERAL PUBLIC LICENSE AS PUBLISHED BY  
# THE FREE SOFTWARE FOUNDATION; EITHER VERSION 2 OF THE LICENSE, OR     
# (AT YOUR OPTION) ANY LATER VERSION.                                                    
#                                                                       
# THIS PROGRAM IS DISTRIBUTED IN THE HOPE THAT IT WILL BE USEFUL, BUT   
# WITHOUT ANY WARRANTY; WITHOUT EVEN THE IMPLIED WARRANTY OF            
# MERCHANTABILITY OR FITNESS FOR A PARTICULAR PURPOSE. SEE THE GNU      
# GENERAL PUBLIC LICENSE FOR MORE DETAILS.                              
#                                                                       
# YOU SHOULD HAVE RECEIVED A COPY OF THE GNU GENERAL PUBLIC LICENSE     
# ALONG WITH THIS PROGRAM; IF NOT, WRITE TO EDF R&D CODE_ASTER,         
#    1 AVENUE DU GENERAL DE GAULLE, 92141 CLAMART CEDEX, FRANCE.        
# ======================================================================


DEBUT(CODE=_F(NOM='SDLS03D',NIV_PUB_WEB='INTERNET'),DEBUG=_F(SDVERI='OUI'))

MA=LIRE_MAILLAGE(FORMAT='MED', )

MA=DEFI_GROUP( reuse=MA,   MAILLAGE=MA,
  CREA_GROUP_MA=_F(  NOM = 'TOUT', TOUT = 'OUI'))

#====================================================================
MAT=DEFI_MATERIAU( ELAS=_F(  E = 2.1E+11,  NU = 0.3,  RHO = 7800.) )

CHMAT=AFFE_MATERIAU(  MAILLAGE=MA,
                       AFFE=_F(  TOUT = 'OUI',      MATER = MAT) )

#====================================================================
# ---- PLAQUE DKT APPUYEE SUR LES BORDS

MO=AFFE_MODELE(      MAILLAGE=MA,
                      AFFE=_F(  TOUT = 'OUI',  PHENOMENE = 'MECANIQUE',
                             MODELISATION = 'Q4G')   )

CH=AFFE_CHAR_MECA(   MODELE=MO,
                       DDL_IMPO=_F(  GROUP_NO = 'BORD',  DZ = 0.)   )

CA=AFFE_CARA_ELEM(   MODELE=MO,
                       COQUE=_F(
       GROUP_MA = 'TOUT',
  EPAIS = 0.01)  )

MACRO_MATR_ASSE( MODELE=MO, CARA_ELEM=CA,
                 CHARGE=CH, CHAM_MATER=CHMAT,
                 NUME_DDL=CO("NUM"),
                 MATR_ASSE=(
                         _F(  MATRICE = CO("MATR"),   OPTION = 'RIGI_MECA'),
                         _F(  MATRICE = CO("MATM"),   OPTION = 'MASS_MECA'),
                 ))

MODE=MODE_ITER_SIMULT(  MATR_RIGI=MATR,   MATR_MASS=MATM,
             CALC_FREQ=_F(  FREQ = (5., 250., ),
                         OPTION = 'BANDE'),
                           VERI_MODE=_F(  SEUIL = 1.E-5)  )


# --------------------------------------------------------------------

TEST_RESU(RESU=(
   _F(   RESULTAT = MODE,        PARA = 'FREQ', REFERENCE = 'ANALYTIQUE',
           CRITERE = 'RELATIF',     PRECISION = 1.5E-2,
           NUME_MODE = 4,       VALE = 35.63),
   _F(   RESULTAT = MODE,        PARA = 'FREQ', REFERENCE = 'ANALYTIQUE',
           CRITERE = 'RELATIF',     PRECISION = 3.5E-2,
           NUME_MODE = 5,       VALE = 68.51),
   _F(   RESULTAT = MODE,        PARA = 'FREQ', REFERENCE = 'ANALYTIQUE',
           CRITERE = 'RELATIF',     PRECISION = 3.0E-2,
           NUME_MODE = 6,       VALE = 109.62),
   _F(   RESULTAT = MODE,        PARA = 'FREQ', REFERENCE = 'ANALYTIQUE',
           CRITERE = 'RELATIF',     PRECISION = 7.0E-2,
           NUME_MODE = 7,       VALE = 123.32),
   _F(   RESULTAT = MODE,        PARA = 'FREQ', REFERENCE = 'ANALYTIQUE',
           CRITERE = 'RELATIF',     PRECISION = 8.5E-2,
           NUME_MODE = 8,      VALE = 142.51),
   _F(   RESULTAT = MODE,        PARA = 'FREQ', REFERENCE = 'ANALYTIQUE',
           CRITERE = 'RELATIF',     PRECISION = 10.E-2,
           NUME_MODE = 9,       VALE = 197.32)) )

TEST_RESU(RESU=(
   _F(   RESULTAT = MODE,        PARA = 'FREQ', REFERENCE = 'NON_REGRESSION',
           CRITERE = 'RELATIF',     PRECISION = 1.E-7,
           NUME_MODE = 4,       VALE = 35.994635176172),
   _F(   RESULTAT = MODE,        PARA = 'FREQ', REFERENCE = 'NON_REGRESSION',
           CRITERE = 'RELATIF',     PRECISION = 1.E-7,
           NUME_MODE = 5,       VALE = 70.715814070591),
   _F(   RESULTAT = MODE,        PARA = 'FREQ', REFERENCE = 'NON_REGRESSION',
           CRITERE = 'RELATIF',     PRECISION = 1.E-7,
           NUME_MODE = 6,       VALE = 112.39062554114),
   _F(   RESULTAT = MODE,        PARA = 'FREQ', REFERENCE = 'NON_REGRESSION',
           CRITERE = 'RELATIF',     PRECISION = 1.E-7,
           NUME_MODE = 7,       VALE = 131.30172221035),
   _F(   RESULTAT = MODE,        PARA = 'FREQ', REFERENCE = 'NON_REGRESSION',
           CRITERE = 'RELATIF',     PRECISION = 1.E-7,
           NUME_MODE = 8,      VALE = 152.70142235685),
   _F(   RESULTAT = MODE,        PARA = 'FREQ', REFERENCE = 'NON_REGRESSION',
           CRITERE = 'RELATIF',     PRECISION = 1.E-7,
           NUME_MODE = 9,       VALE = 214.55397402045)) )

# --------------------------------------------------------------------

FIN()
#






