# ======================================================================
# COPYRIGHT (C) 1991 - 2016  EDF R&D                  WWW.CODE-ASTER.ORG
# THIS PROGRAM IS FREE SOFTWARE; YOU CAN REDISTRIBUTE IT AND/OR MODIFY
# IT UNDER THE TERMS OF THE GNU GENERAL PUBLIC LICENSE AS PUBLISHED BY
# THE FREE SOFTWARE FOUNDATION; EITHER VERSION 2 OF THE LICENSE, OR
# (AT YOUR OPTION) ANY LATER VERSION.
#
# THIS PROGRAM IS DISTRIBUTED IN THE HOPE THAT IT WILL BE USEFUL, BUT
# WITHOUT ANY WARRANTY; WITHOUT EVEN THE IMPLIED WARRANTY OF
# MERCHANTABILITY OR FITNESS FOR A PARTICULAR PURPOSE. SEE THE GNU
# GENERAL PUBLIC LICENSE FOR MORE DETAILS.
#
# YOU SHOULD HAVE RECEIVED A COPY OF THE GNU GENERAL PUBLIC LICENSE
# ALONG WITH THIS PROGRAM; IF NOT, WRITE TO EDF R&D CODE_ASTER,
#    1 AVENUE DU GENERAL DE GAULLE, 92141 CLAMART CEDEX, FRANCE.
# ======================================================================

DEBUT(CODE=_F(NIV_PUB_WEB='INTERNET'),
      DEBUG=_F(SDVERI='OUI'),);

MAIL0=LIRE_MAILLAGE(FORMAT='MED',VERI_MAIL=_F(VERIF='OUI',),);


MAILLAGE=CREA_MAILLAGE(MAILLAGE=MAIL0,
                     CREA_POI1=_F(NOM_GROUP_MA='P3',
                                  GROUP_NO=('P3',),),);
MAILLAGE=DEFI_GROUP(reuse =MAILLAGE,
                    MAILLAGE=MAILLAGE,
                    CREA_GROUP_NO=_F(GROUP_MA='RADIER',),);

MAILLAGE=DEFI_GROUP(reuse =MAILLAGE,
                    MAILLAGE=MAILLAGE,
                    CREA_GROUP_NO=_F(GROUP_MA='L1',),);

MAILLAGE=MODI_MAILLAGE(reuse =MAILLAGE,
                       MAILLAGE=MAILLAGE,
                       ORIE_NORM_COQUE=_F(GROUP_MA='RADIER',
                                          VECT_NORM=(0,0,-1,),
                                          GROUP_NO='P3',),);

STICKMOD=AFFE_MODELE(MAILLAGE=MAILLAGE,
                   AFFE=(  _F(GROUP_MA='RADIER',
                            PHENOMENE='MECANIQUE',
                            MODELISATION='DST',),
                            ),);

# ----------------------------------------------------------------------
#  DEFINITION DES MATERIAUX

MAT_0= DEFI_MATERIAU( ELAS=_F( E=4.000000000E+10,
                            NU=1.494252874E-01,
                            RHO=0.000000000E+00,
                            ALPHA=0.000000000E+00,),);


MAT_2=DEFI_MATERIAU(ELAS=_F(E=4.000000000E+10,
                            NU=1.494252874E-01,
                            RHO=1.00000000E+00,
                            ALPHA=0.000000000E+00,),);

CHAMPMA0=AFFE_MATERIAU(MAILLAGE=MAILLAGE,
                     AFFE=(_F(GROUP_MA='RADIER',
                              MATER=MAT_0,),),);
CHAMPMA2=AFFE_MATERIAU(MAILLAGE=MAILLAGE,
                     AFFE=(_F(GROUP_MA='RADIER',
                              MATER=MAT_2,),),);

# ----------------------------------------------------------------------
# AFFECTATION DES CARACTERISTIQUES ELEMENTAIRES

CARA_EL0=AFFE_CARA_ELEM( MODELE=STICKMOD,
          COQUE=_F( GROUP_MA = 'RADIER', EPAIS = 0.001),

             );

# LA STRUCTURE EST RIGIDIFIEE A L INTERFACE
#------------------------------------------
cond_li0 = AFFE_CHAR_MECA( MODELE=STICKMOD,
                     DDL_IMPO=(
                              _F(GROUP_NO='P3',
                                 DX=0.0,
                                 DY=0.0,
                                 DZ=0.0,
                                 DRX=0.0,
                                 DRY=0.0,
                                 DRZ=0.0,),
                               ),
                     LIAISON_SOLIDE=(_F(GROUP_NO=('RADIER'),),
                                    ),
                                           );

cond_li2 = AFFE_CHAR_MECA( MODELE=STICKMOD,
                      DDL_IMPO=(
                              _F(GROUP_NO='L1',
                                 DX=0.0,
                                 DY=0.0,
                                 DZ=0.0,
                                 DRX=0.0,
                                 DRY=0.0,
                                 DRZ=0.0,),),

                                    );


# mode =CALC_MODES

# CALCUL DE LA MASSE ET INERTIES DE LA STRUCTURE -----------------------

MASSESTR=POST_ELEM(MASS_INER=_F(TOUT='OUI',),
                 MODELE=STICKMOD,
                 CHAM_MATER=CHAMPMA2,
                 CARA_ELEM=CARA_EL0,);
#
# ----------------------------------------------------------------------

RIGI_EL0=CALC_MATR_ELEM(OPTION='RIGI_MECA',
                      MODELE=STICKMOD,
                      CHAM_MATER=CHAMPMA0,
                      CARA_ELEM=CARA_EL0,
                      CHARGE=cond_li0 ,);

MASS_EL0=CALC_MATR_ELEM(OPTION='MASS_MECA',
                      MODELE=STICKMOD,
                      CHAM_MATER=CHAMPMA0,
                      CARA_ELEM=CARA_EL0,
                      CHARGE=cond_li0 ,);
#

NUME_DD0=NUME_DDL(MATR_RIGI=RIGI_EL0,);

# -------------------

RIGI_EL2=CALC_MATR_ELEM(OPTION='RIGI_MECA',
                      MODELE=STICKMOD,
                      CHAM_MATER=CHAMPMA2,
                      CARA_ELEM=CARA_EL0,
                      CHARGE=cond_li2,);

MASS_EL2=CALC_MATR_ELEM(OPTION='MASS_MECA',
                      MODELE=STICKMOD,
                      CHAM_MATER=CHAMPMA2,
                      CARA_ELEM=CARA_EL0,
                      CHARGE=cond_li2,);
#

NUME_DD2=NUME_DDL(MATR_RIGI=RIGI_EL2,);

# Assemblage des matrices et vecteurs=
#-------------------------------------
rigid0 = ASSE_MATRICE( MATR_ELEM= RIGI_EL0, NUME_DDL= NUME_DD0) ;

masse0 = ASSE_MATRICE( MATR_ELEM= MASS_EL0, NUME_DDL= NUME_DD0) ;

rigid2 = ASSE_MATRICE( MATR_ELEM=  RIGI_EL2, NUME_DDL= NUME_DD2 ) ;

masse2 = ASSE_MATRICE( MATR_ELEM=  MASS_EL2, NUME_DDL= NUME_DD2 ) ;


#---------------------------------------------
# CALCUL DU MACRO-ELEMENT DYNAMIQUE :
#---------------------------------------------


MODESTA1=MODE_STATIQUE(  MATR_RIGI=rigid0,
                   MODE_STAT=_F(
                   GROUP_NO = 'P3',
                   AVEC_CMP = ('DX','DY','DZ','DRX','DRY','DRZ'),
                               ),
                    );

MODE=CALC_MODES(MATR_RIGI=rigid2,
                MATR_MASS=masse2,
                CALC_FREQ=_F(NMAX_FREQ=1,
                             ),
                )



BAMO=DEFI_BASE_MODALE( RITZ=( _F( MODE_MECA = MODE, NMAX_MODE = 0),
                            _F( MODE_INTF = MODESTA1,
                                   NMAX_MODE = 1999)),
                       NUME_REF=NUME_DD0)

MAEL=MACR_ELEM_DYNA(BASE_MODALE=BAMO,
                  MATR_RIGI=rigid0,
                  MATR_MASS=masse0);

NDDLGEN=NUME_DDL_GENE(BASE=BAMO,
                    STOCKAGE='PLEIN',);

RIGIGEN=PROJ_MATR_BASE(BASE=BAMO,
                     NUME_DDL_GENE=NDDLGEN,
                     MATR_ASSE=rigid0,);

MASSGEN=PROJ_MATR_BASE(BASE=BAMO,
                     NUME_DDL_GENE=NDDLGEN,
                     MATR_ASSE=masse0,);


AMORT=COMB_MATR_ASSE(CALC_AMOR_GENE=_F(MASS_GENE = MASSGEN,
                                       RIGI_GENE = RIGIGEN ,
                                       AMOR_REDUIT= (
                                        0.0,0.0,0.0,0.0,0.0,0.0,),
                                        ),
                                        );

# # TRAITEMENT DE MISS3D PAR EXEC_LOGICIEL
# #---------------------------------------
# #
df=30.0
fmin=30.
NF = 3
fmax=fmin+NF*df

# Pour reference :
# tabsol0=DEFI_SOL_MISS(
#     TITRE="SOL HOMOGENE",
#     MATERIAU=(
#         _F(E=1.8E09,  NU=0.33, RHO=1875, AMOR_HYST=0.10),
#         _F(E=1.8E09,  NU=0.33, RHO=1875, AMOR_HYST=0.10),
#     ),
#     COUCHE=(
#         _F(EPAIS=40, NUME_MATE=1, RECEPTEUR="OUI", SOURCE="OUI",),
#         _F(SUBSTRATUM="OUI", NUME_MATE=2,),
#     ),
#     INFO=2,
# )

tabsol=DEFI_SOL_MISS(
    TITRE="SOL HOMOGENE",
    MATERIAU=_F(E=1.8E09,  NU=0.33, RHO=1875, AMOR_HYST=0.10),
    COUCHE_AUTO=_F(EPAIS_PHYS=40., HOMOGENE='OUI', SURF='OUI',),
    INFO=2,
)

CALC_MISS(
    TYPE_RESU='FICHIER',
    TABLE_SOL=tabsol,
    MACR_ELEM_DYNA=MAEL,
    GROUP_MA_INTERF='RADIER',
    UNITE_IMPR_ASTER=31,
    UNITE_RESU_IMPE=32,
    UNITE_RESU_FORC=33,

    VERSION='V6.6',
    PARAMETRE=_F(
        FREQ_MIN=fmin,
        FREQ_MAX=fmax,
        FREQ_PAS=df,
        Z0= 0.,
        TYPE='ASCII',
        SURF='OUI',
        DREF=10,
        ALGO = 'REGU',
        OFFSET_MAX=60,
        OFFSET_NB=400,
    ),
    INFO=2,
)

DEFI_FICHIER(ACTION='LIBERER',
           UNITE=32,);

DEFI_FICHIER(ACTION='LIBERER',
           UNITE=33,);


#------------------------------------------------------
#------------------------------------------------------
from math import pi
p_alpha = 0.5 / 2./ pi
RESU1X = DYNA_ISS_VARI(
                       FREQ_INIT  =fmin, NB_FREQ  = NF, FREQ_PAS = df ,
                       NOM_CMP =  'DX' ,  PRECISION  =  0.999 ,
                       INTERF =_F(
                                GROUP_NO_INTERF='RADIER',
                                MODE_INTERF ='CORP_RIGI',),
                       MATR_COHE = _F(TYPE =    'MITA_LUCO',    
                                  VITE_ONDE = 600. ,
                                  PARA_ALPHA =0.0,),
                       UNITE_RESU_IMPE = 32,
#                        UNITE_RESU_FORC = 33,
                       MATR_GENE = _F(
                                 MATR_MASS = MASSGEN,
                                 MATR_RIGI = RIGIGEN,
                                 MATR_AMOR = AMORT,
                           ),
                       INFO   =2 ,);
RESU1Z = DYNA_ISS_VARI(
                       FREQ_INIT  =fmin, NB_FREQ  = NF, FREQ_PAS = df ,
                       NOM_CMP =  'DZ' ,  PRECISION  =  0.999 ,
                       INTERF =_F(
                                GROUP_NO_INTERF='RADIER',
                                MODE_INTERF ='CORP_RIGI',),
                       MATR_COHE = _F(TYPE =    'MITA_LUCO',    
                                  VITE_ONDE = 600. ,
                                  PARA_ALPHA =0.0,),
                       UNITE_RESU_IMPE = 32,
#                        UNITE_RESU_FORC = 33,
                       MATR_GENE = _F(
                                 MATR_MASS = MASSGEN,
                                 MATR_RIGI = RIGIGEN,
                                 MATR_AMOR = AMORT,
                           ),
                       INFO   =1 ,);

#------------------------------------------------------
#ALPHA=0.5
RESU2X = DYNA_ISS_VARI(
                       FREQ_INIT  =fmin, NB_FREQ  = NF, FREQ_PAS = df ,
                       NOM_CMP =  'DX' ,  PRECISION  =  0.999 ,
                       INTERF =_F(
                                GROUP_NO_INTERF='RADIER',
                                MODE_INTERF ='CORP_RIGI',),
                       MATR_COHE = _F(TYPE =    'MITA_LUCO',    
                                  VITE_ONDE = 600. ,
                                  PARA_ALPHA = p_alpha,),
                       UNITE_RESU_IMPE = 32,
#                        UNITE_RESU_FORC = 33,
                       MATR_GENE = _F(
                                 MATR_MASS = MASSGEN,
                                 MATR_RIGI = RIGIGEN,
                                 MATR_AMOR = AMORT,
                           ),
                       INFO   =1 ,);
RESU2Z = DYNA_ISS_VARI(
                       FREQ_INIT  =fmin, NB_FREQ  = NF, FREQ_PAS = df ,
                       NOM_CMP =  'DZ' ,  PRECISION  =  0.999 ,
                       INTERF =_F(
                                GROUP_NO_INTERF='RADIER',
                                MODE_INTERF ='CORP_RIGI',),
                       MATR_COHE = _F(TYPE =    'MITA_LUCO',    
                                  VITE_ONDE = 600. ,
                                  PARA_ALPHA = p_alpha,),
                       UNITE_RESU_IMPE = 32,
#                        UNITE_RESU_FORC = 33,
                       MATR_GENE = _F(
                                 MATR_MASS = MASSGEN,
                                 MATR_RIGI = RIGIGEN,
                                 MATR_AMOR = AMORT,
                           ),
                       INFO   =1 ,);

REP1=RECU_FONCTION(    INTE_SPEC=RESU2X,
                    NUME_ORDRE_I = 1,
                      )
REP2=RECU_FONCTION(    INTE_SPEC=RESU2Z,
                    NUME_ORDRE_I = 3,
                      )

# EXTRACTIONS ET TESTS:
#----------------------
# Referencek Mita & Luco
#frequence reduite  a0=w*R/c; R=20m, c=600m/s

# w=30. a0=1.0
# reference: valx=0.732,valz= 0.730
# non regression: nrgx=7.67061E-01, nrgz=7.67061E-01
TEST_FONCTION(VALEUR=_F(VALE_CALC=0.76703093760960,
                        VALE_REFE=0.732,
                        CRITERE='RELATIF',
                        VALE_PARA=30.0,
                        REFERENCE='SOURCE_EXTERNE',
                        PRECISION=0.05,
                        FONCTION=REP1,),
              )

TEST_FONCTION(VALEUR=_F(VALE_CALC=0.76703093760960,
                        VALE_REFE=0.730,
                        CRITERE='RELATIF',
                        VALE_PARA=30.0,
                        REFERENCE='SOURCE_EXTERNE',
                        PRECISION=0.06,
                        FONCTION=REP2,),
              )

TEST_FONCTION(VALEUR=_F(VALE_CALC=0.76703093760960,
                        VALE_PARA=30.0,
                        FONCTION=REP1,
                        ),
              )

TEST_FONCTION(VALEUR=_F(VALE_CALC=0.76703093760960,
                        VALE_PARA=30.0,
                        FONCTION=REP2,
                        ),
              )

# w=60. a0=2.0
# reference: valx=0.402,valz= 0.416
# non regression: valx=4.36637E-01, valz=4.36637E-01
TEST_FONCTION(VALEUR=_F(VALE_CALC=0.43663645976034,
                        VALE_REFE=0.402,
                        CRITERE='RELATIF',
                        VALE_PARA=60.0,
                        REFERENCE='SOURCE_EXTERNE',
                        PRECISION=0.09,
                        FONCTION=REP1,),
              )

TEST_FONCTION(VALEUR=_F(VALE_CALC=0.43663645976034,
                        VALE_REFE=0.416,
                        CRITERE='RELATIF',
                        VALE_PARA=60.0,
                        REFERENCE='SOURCE_EXTERNE',
                        PRECISION=0.05,
                        FONCTION=REP2,),
              )

TEST_FONCTION(VALEUR=_F(VALE_CALC=0.43663645976034,
                        VALE_PARA=60.0,
                        FONCTION=REP1,
                        ),
              )

TEST_FONCTION(VALEUR=_F(VALE_CALC=0.43663645976034,
                        VALE_PARA=60.0,
                        FONCTION=REP2,
                        ),
              )

# w=90. a0=3.0
# reference: valx=0.251,valz= 0.270
# non regression: valx=2.51483E-01, valz=2.51483E-01
TEST_FONCTION(VALEUR=_F(VALE_CALC=0.25146316690143,
                        VALE_REFE=0.251,
                        CRITERE='RELATIF',
                        VALE_PARA=90.0,
                        REFERENCE='SOURCE_EXTERNE',
                        PRECISION=0.002,
                        FONCTION=REP1,),
              )

TEST_FONCTION(VALEUR=_F(VALE_CALC=0.25146316690143,
                        VALE_REFE=0.270,
                        CRITERE='RELATIF',
                        VALE_PARA=90.0,
                        REFERENCE='SOURCE_EXTERNE',
                        PRECISION=0.07,
                        FONCTION=REP2,),
              )

TEST_FONCTION(VALEUR=_F(VALE_CALC=0.25146316690143,
                        VALE_PARA=90.0,
                        FONCTION=REP1,
                        ),
              )

TEST_FONCTION(VALEUR=_F(VALE_CALC=0.25146316690143,
                        VALE_PARA=90.0,
                        FONCTION=REP2,
                        ),
              )

# test sur base physique (resultat analytique)
#----------------------------------------------------------
RN11X=REST_SPEC_PHYS( MODE_MECA=BAMO,
                     TOUT_ORDRE = 'OUI',
                     INTE_SPEC_GENE = RESU1X,
                     NOM_CHAM='DEPL',
                     NOEUD=( 'N11'  ),
                     NOM_CMP=('DX', ),
                     OPTION='TOUT_TOUT'   );

RN11Z=REST_SPEC_PHYS( MODE_MECA=BAMO,
                     TOUT_ORDRE = 'OUI',
                     INTE_SPEC_GENE = RESU1Z,
                     NOM_CHAM='DEPL',
                     NOEUD=( 'N11'  ),
                     NOM_CMP=('DZ', ),
                     OPTION='TOUT_TOUT'   );

REP3=RECU_FONCTION(    INTE_SPEC=RN11X,
                    NOEUD_I = 'N11',
                    NOM_CMP_I = 'DX',
                      )
REP4=RECU_FONCTION(    INTE_SPEC=RN11Z,
                    NOEUD_I = 'N11',
                    NOM_CMP_I = 'DZ',
                      )

TEST_FONCTION(VALEUR=(_F(VALE_CALC=1.005270275310,
                         VALE_REFE=1.0,
                         CRITERE='RELATIF',
                         VALE_PARA=30.0,
                         REFERENCE='ANALYTIQUE',
                         PRECISION=0.01,
                         FONCTION=REP3,),
                      _F(VALE_CALC=1.019483967030,
                         VALE_REFE=1.0,
                         CRITERE='RELATIF',
                         VALE_PARA=30.0,
                         REFERENCE='ANALYTIQUE',
                         PRECISION=0.04,
                         FONCTION=REP4,),
                      ),
              )

# test de l'otion DIAG
# ---------------------------
RESU2X_D = DYNA_ISS_VARI(
                       FREQ_INIT  =fmin, NB_FREQ = NF, FREQ_PAS = df ,
                       NOM_CMP =  'DX' ,  PRECISION  =  0.999 ,
                       INTERF =_F(
                                GROUP_NO_INTERF='RADIER',
                                MODE_INTERF ='CORP_RIGI',),
                       MATR_COHE = _F(TYPE =    'MITA_LUCO',    
                                  VITE_ONDE = 600. ,
                                  PARA_ALPHA = p_alpha,),
                       UNITE_RESU_IMPE = 32,
#                        UNITE_RESU_FORC = 33,
                       OPTION='DIAG',
                       MATR_GENE = _F(
                                 MATR_MASS = MASSGEN,
                                 MATR_RIGI = RIGIGEN,
                                 MATR_AMOR = AMORT,
                           ),
                       INFO   =2 ,);


REP5=RECU_FONCTION(    INTE_SPEC=RESU2X_D,
                    NUME_ORDRE_I = 1,
                      )

TEST_FONCTION(VALEUR=_F(VALE_CALC=0.76703093760960,
                        VALE_REFE=0.732,
                        CRITERE='RELATIF',
                        VALE_PARA=30.0,
                        REFERENCE='SOURCE_EXTERNE',
                        PRECISION=0.05,
                        FONCTION=REP5,),
              )

FIN();
