# ======================================================================
# COPYRIGHT (C) 1991 - 2016  EDF R&D                  WWW.CODE-ASTER.ORG
# THIS PROGRAM IS FREE SOFTWARE; YOU CAN REDISTRIBUTE IT AND/OR MODIFY
# IT UNDER THE TERMS OF THE GNU GENERAL PUBLIC LICENSE AS PUBLISHED BY
# THE FREE SOFTWARE FOUNDATION; EITHER VERSION 2 OF THE LICENSE, OR
# (AT YOUR OPTION) ANY LATER VERSION.
#
# THIS PROGRAM IS DISTRIBUTED IN THE HOPE THAT IT WILL BE USEFUL, BUT
# WITHOUT ANY WARRANTY; WITHOUT EVEN THE IMPLIED WARRANTY OF
# MERCHANTABILITY OR FITNESS FOR A PARTICULAR PURPOSE. SEE THE GNU
# GENERAL PUBLIC LICENSE FOR MORE DETAILS.
#
# YOU SHOULD HAVE RECEIVED A COPY OF THE GNU GENERAL PUBLIC LICENSE
# ALONG WITH THIS PROGRAM; IF NOT, WRITE TO EDF R&D CODE_ASTER,
#    1 AVENUE DU GENERAL DE GAULLE, 92141 CLAMART CEDEX, FRANCE.
# ======================================================================

DEBUT(CODE=_F(NIV_PUB_WEB='INTERNET', ),
      DEBUG=_F(SDVERI='OUI'),);

MAIL0=LIRE_MAILLAGE(FORMAT='MED',VERI_MAIL=_F(VERIF='OUI',),);


MAILLAGE=CREA_MAILLAGE(MAILLAGE=MAIL0,
                     CREA_POI1=_F(NOM_GROUP_MA='P3',
                                  GROUP_NO=('P3',),),);
MAILLAGE=DEFI_GROUP(reuse =MAILLAGE,
                    MAILLAGE=MAILLAGE,
                    CREA_GROUP_NO=_F(GROUP_MA='RADIER',),);

MAILLAGE=DEFI_GROUP(reuse =MAILLAGE,
                    MAILLAGE=MAILLAGE,
                    CREA_GROUP_NO=_F(GROUP_MA='L1',),);

MAILLAGE=MODI_MAILLAGE(reuse =MAILLAGE,
                       MAILLAGE=MAILLAGE,
                       ORIE_NORM_COQUE=_F(GROUP_MA='RADIER',
                                          VECT_NORM=(0,0,-1,),
                                          GROUP_NO='P3',),);

STICKMOD=AFFE_MODELE(MAILLAGE=MAILLAGE,
                   AFFE=(  _F(GROUP_MA='RADIER',
                            PHENOMENE='MECANIQUE',
                            MODELISATION='DST',),
                            ),);

# ----------------------------------------------------------------------
#  DEFINITION DES MATERIAUX

MAT_0= DEFI_MATERIAU( ELAS=_F( E=4.000000000E+10,
                            NU=1.494252874E-01,
                            RHO=0.000000000E+00,
                            ALPHA=0.000000000E+00,),);
MAT_2=DEFI_MATERIAU(ELAS=_F(E=4.000000000E+10,
                            NU=1.494252874E-01,
                            RHO=1.00000000E+00,
                            ALPHA=0.000000000E+00,),);

CHAMPMA0=AFFE_MATERIAU(MAILLAGE=MAILLAGE,
                     AFFE=(_F(GROUP_MA='RADIER',
                              MATER=MAT_0,),),);
CHAMPMA2=AFFE_MATERIAU(MAILLAGE=MAILLAGE,
                     AFFE=(_F(GROUP_MA='RADIER',
                              MATER=MAT_2,),),);

# ----------------------------------------------------------------------
# AFFECTATION DES CARACTERISTIQUES ELEMENTAIRES

CARA_EL0=AFFE_CARA_ELEM( MODELE=STICKMOD,
          COQUE=_F( GROUP_MA = 'RADIER', EPAIS = 0.001),

             );

# LA STRUCTURE EST RIGIDIFIEE A L INTERFACE
#------------------------------------------
cond_li0 = AFFE_CHAR_MECA( MODELE=STICKMOD,
                     DDL_IMPO=(
                              _F(GROUP_NO='P3',
                                 DX=0.0,
                                 DY=0.0,
                                 DZ=0.0,
                                 DRX=0.0,
                                 DRY=0.0,
                                 DRZ=0.0,),
                               ),
                     LIAISON_SOLIDE=(_F(GROUP_NO=('RADIER'),),
                                    ),
                                           );

cond_li2 = AFFE_CHAR_MECA( MODELE=STICKMOD,
                      DDL_IMPO=(
                              _F(GROUP_NO='L1',
                                 DX=0.0,
                                 DY=0.0,
                                 DZ=0.0,
                                 DRX=0.0,
                                 DRY=0.0,
                                 DRZ=0.0,),),

                                    );


# mode =CALC_MODES

# CALCUL DE LA MASSE ET INERTIES DE LA STRUCTURE -----------------------

MASSESTR=POST_ELEM(MASS_INER=_F(TOUT='OUI',),
                 MODELE=STICKMOD,
                 CHAM_MATER=CHAMPMA2,
                 CARA_ELEM=CARA_EL0,);
#
# ----------------------------------------------------------------------

RIGI_EL0=CALC_MATR_ELEM(OPTION='RIGI_MECA',
                      MODELE=STICKMOD,
                      CHAM_MATER=CHAMPMA0,
                      CARA_ELEM=CARA_EL0,
                      CHARGE=cond_li0 ,);

MASS_EL0=CALC_MATR_ELEM(OPTION='MASS_MECA',
                      MODELE=STICKMOD,
                      CHAM_MATER=CHAMPMA0,
                      CARA_ELEM=CARA_EL0,
                      CHARGE=cond_li0 ,);
#

NUME_DD0=NUME_DDL(MATR_RIGI=RIGI_EL0,);

# -------------------

RIGI_EL2=CALC_MATR_ELEM(OPTION='RIGI_MECA',
                      MODELE=STICKMOD,
                      CHAM_MATER=CHAMPMA2,
                      CARA_ELEM=CARA_EL0,
                      CHARGE=cond_li2,);

MASS_EL2=CALC_MATR_ELEM(OPTION='MASS_MECA',
                      MODELE=STICKMOD,
                      CHAM_MATER=CHAMPMA2,
                      CARA_ELEM=CARA_EL0,
                      CHARGE=cond_li2,);
#

NUME_DD2=NUME_DDL(MATR_RIGI=RIGI_EL2,);

# Assemblage des matrices et vecteurs=
#-------------------------------------
rigid0 = ASSE_MATRICE( MATR_ELEM= RIGI_EL0, NUME_DDL= NUME_DD0) ;

masse0 = ASSE_MATRICE( MATR_ELEM= MASS_EL0, NUME_DDL= NUME_DD0) ;

rigid2 = ASSE_MATRICE( MATR_ELEM=  RIGI_EL2, NUME_DDL= NUME_DD2 ) ;

masse2 = ASSE_MATRICE( MATR_ELEM=  MASS_EL2, NUME_DDL= NUME_DD2 ) ;


#---------------------------------------------
# CALCUL DU MACRO-ELEMENT DYNAMIQUE :
#---------------------------------------------


MODESTA1=MODE_STATIQUE(  MATR_RIGI=rigid0,
                   MODE_STAT=_F(
                   GROUP_NO = 'P3',
                   AVEC_CMP = ('DX','DY','DZ','DRX','DRY','DRZ'),
                               ),
                    );

MODE=CALC_MODES(MATR_RIGI=rigid2,
                MATR_MASS=masse2,
                CALC_FREQ=_F(NMAX_FREQ=1,
                             ),
                )



BAMO=DEFI_BASE_MODALE( RITZ=( _F( MODE_MECA = MODE, NMAX_MODE = 0),
                            _F( MODE_INTF = MODESTA1,
                                   NMAX_MODE = 1999)),
                       NUME_REF=NUME_DD0)

MAEL=MACR_ELEM_DYNA(BASE_MODALE=BAMO,
                  MATR_RIGI=rigid0,
                  MATR_MASS=masse0);

NDDLGEN=NUME_DDL_GENE(BASE=BAMO,
                    STOCKAGE='PLEIN',);

RIGIGEN=PROJ_MATR_BASE(BASE=BAMO,
                     NUME_DDL_GENE=NDDLGEN,
                     MATR_ASSE=rigid0,);

MASSGEN=PROJ_MATR_BASE(BASE=BAMO,
                     NUME_DDL_GENE=NDDLGEN,
                     MATR_ASSE=masse0,);


AMORT=COMB_MATR_ASSE(CALC_AMOR_GENE=_F(MASS_GENE = MASSGEN,
                                       RIGI_GENE = RIGIGEN ,
                                       AMOR_REDUIT= (
                                        0.0,0.0,0.0,0.0,0.0,0.0,),
                                        ),
                                        );
#                      SANS_CMP = 'LAGR',
#                                 );

# #-------------------------------------
# ACCELERO SISMIQUES
# #---------------------------------------
# #
# ACCELEROGRAMME SELON SPECTRE EUR POUR SOL DUR (ROCHER)
#
INCLUDE(UNITE=35,);
ACCE_X=CALC_FONCTION(COMB=_F(FONCTION=ACCE1,
                            COEF=9.8100000000000005,),);
                            
ACCE_Y=CALC_FONCTION(COMB=_F(FONCTION=ACCE2,
                            COEF=9.8100000000000005,),);

ACCE_Z=CALC_FONCTION(COMB=_F(FONCTION=ACCE3,
                            COEF=9.8100000000000005,),);

#
#  -------------------------   -------------------------     ------------------------- -------------------------
#  -------------------------   -------------------------     -------------------------   -------------------------
#  -------------------------CALCULS DYNA_ISS_VARI---------------------------------------------
#  -------------------------   -------------------------     ------------------------- -------------------------

#------------------------------------------------------
#------------------------------------------------------
#ALPHA=0.0
print "ALPHA=0.0"
#-----------------------------------------------------------------

DYNA_3D = DYNA_ISS_VARI(
                      EXCIT_SOL   = _F( ACCE_X = ACCE_X,
                                        ACCE_Y = ACCE_Y,
                                        ACCE_Z = ACCE_Z,
                                        ),
                       INTERF =_F(
                                GROUP_NO_INTERF='RADIER',
                                MODE_INTERF ='CORP_RIGI',),
                       MATR_COHE = _F(
                                 TYPE =    'MITA_LUCO',
                                  VITE_ONDE = 600. ,
                                 PARA_ALPHA =0.0,),
                       UNITE_RESU_IMPE = 32,
                     UNITE_RESU_FORC = 33,
#                        NOM_CHAM= 'ACCE',
                       MATR_GENE = _F(
                                 MATR_MASS = MASSGEN,
                                 MATR_RIGI = RIGIGEN,
                                 MATR_AMOR = AMORT,
                           ),
                       INFO   =1 ,);

DYNA_X = DYNA_ISS_VARI(
                      EXCIT_SOL   = _F( ACCE_X = ACCE_X,
                                        ),
                       INTERF =_F(
                                GROUP_NO_INTERF='RADIER',
                                MODE_INTERF ='CORP_RIGI',),
                       MATR_COHE = _F(
                                 TYPE =    'MITA_LUCO',
                                  VITE_ONDE = 600. ,
                                 PARA_ALPHA =0.0,),
                       UNITE_RESU_IMPE = 32,
                     UNITE_RESU_FORC = 33,
#                        NOM_CHAM= 'ACCE',
                       MATR_GENE = _F(
                                 MATR_MASS = MASSGEN,
                                 MATR_RIGI = RIGIGEN,
                                 MATR_AMOR = AMORT,
                           ),
                       INFO   =1 ,);

DYNA_Y = DYNA_ISS_VARI(
                      EXCIT_SOL   = _F( ACCE_Y = ACCE_Y,
                                        ),
                       INTERF =_F(
                                GROUP_NO_INTERF='RADIER',
                                MODE_INTERF ='CORP_RIGI',),
                       MATR_COHE = _F(
                                 TYPE =    'MITA_LUCO',
                                  VITE_ONDE = 600. ,
                                 PARA_ALPHA =0.0,),
                       UNITE_RESU_IMPE = 32,
                     UNITE_RESU_FORC = 33,
#                        NOM_CHAM= 'ACCE',
                       MATR_GENE = _F(
                                 MATR_MASS = MASSGEN,
                                 MATR_RIGI = RIGIGEN,
                                 MATR_AMOR = AMORT,
                           ),
                       INFO   =1 ,);

DYNA_Z = DYNA_ISS_VARI(
                      EXCIT_SOL   = _F( ACCE_Z = ACCE_Z,
                                        ),
                       INTERF =_F(
                                GROUP_NO_INTERF='RADIER',
                                MODE_INTERF ='CORP_RIGI',),
                       MATR_COHE = _F(
                                 TYPE =    'MITA_LUCO',
                                  VITE_ONDE = 600. ,
                                 PARA_ALPHA =0.0,),
                       UNITE_RESU_IMPE = 32,
                     UNITE_RESU_FORC = 33,
#                        NOM_CHAM= 'ACCE',
                       MATR_GENE = _F(
                                 MATR_MASS = MASSGEN,
                                 MATR_RIGI = RIGIGEN,
                                 MATR_AMOR = AMORT,
                           ),
                       INFO   =1 ,);

DYNA_3DP=REST_GENE_PHYS(NOM_CHAM=('DEPL','VITE','ACCE'),
                      RESU_GENE=DYNA_3D, TOUT_ORDRE='OUI',
                      )
DYNA_XP=REST_GENE_PHYS(NOM_CHAM=('DEPL','VITE','ACCE'),
                      RESU_GENE=DYNA_X, TOUT_ORDRE='OUI',
                      )
DYNA_YP=REST_GENE_PHYS(NOM_CHAM=('DEPL','VITE','ACCE'),
                      RESU_GENE=DYNA_Y, TOUT_ORDRE='OUI',
                      )
DYNA_ZP=REST_GENE_PHYS(NOM_CHAM=('DEPL','VITE','ACCE'),
                      RESU_GENE=DYNA_Z, TOUT_ORDRE='OUI',
                      )

DEPLX=CREA_CHAMP(TYPE_CHAM='NOEU_DEPL_R',
                 OPERATION='EXTR',
                 RESULTAT=DYNA_XP,
                 NOM_CHAM='DEPL',
                 NUME_ORDRE = 2,
                 INFO=1,); 		 
DEPLY=CREA_CHAMP(TYPE_CHAM='NOEU_DEPL_R',
                 OPERATION='EXTR',
                 RESULTAT=DYNA_YP,
                 NOM_CHAM='DEPL',
                 NUME_ORDRE = 2,
                 INFO=1,); 		 
DEPLZ=CREA_CHAMP(TYPE_CHAM='NOEU_DEPL_R',
                 OPERATION='EXTR',
                 RESULTAT=DYNA_ZP,
                 NOM_CHAM='DEPL',
                 NUME_ORDRE = 2,
                 INFO=1,); 		 
VITEX=CREA_CHAMP(TYPE_CHAM='NOEU_DEPL_R',
                 OPERATION='EXTR',
                 RESULTAT=DYNA_XP,
                 NOM_CHAM='VITE',
                 NUME_ORDRE = 2,
                 INFO=1,);
VITEY=CREA_CHAMP(TYPE_CHAM='NOEU_DEPL_R',
                 OPERATION='EXTR',
                 RESULTAT=DYNA_YP,
                 NOM_CHAM='VITE',
                 NUME_ORDRE = 2,
                 INFO=1,); 		 
VITEZ=CREA_CHAMP(TYPE_CHAM='NOEU_DEPL_R',
                 OPERATION='EXTR',
                 RESULTAT=DYNA_ZP,
                 NOM_CHAM='VITE',
                 NUME_ORDRE = 2,
                 INFO=1,); 		 
ACCEX=CREA_CHAMP(TYPE_CHAM='NOEU_DEPL_R',
                 OPERATION='EXTR',
                 RESULTAT=DYNA_XP,
                 NOM_CHAM='ACCE',
                 NUME_ORDRE = 2,
                 INFO=1,); 		 
ACCEY=CREA_CHAMP(TYPE_CHAM='NOEU_DEPL_R',
                 OPERATION='EXTR',
                 RESULTAT=DYNA_YP,
                 NOM_CHAM='ACCE',
                 NUME_ORDRE = 2,
                 INFO=1,); 		 
ACCEZ=CREA_CHAMP(TYPE_CHAM='NOEU_DEPL_R',
                 OPERATION='EXTR',
                 RESULTAT=DYNA_ZP,
                 NOM_CHAM='ACCE',
                 NUME_ORDRE = 2,
                 INFO=1,);		 
DEPLA=CREA_CHAMP(TYPE_CHAM='NOEU_DEPL_R',
                  OPERATION='ASSE',
                  NUME_DDL= NUME_DD0,
                  MODELE=STICKMOD,
                  ASSE=(_F(TOUT='OUI',
                           CHAM_GD=DEPLX,
                           CUMUL='OUI',
                           COEF_R=1.0,
                           ),
                        _F(TOUT='OUI',
                           CHAM_GD=DEPLY,
                           CUMUL='OUI',
                           COEF_R=1.0,
                           ),
                        _F(TOUT='OUI',
                           CHAM_GD=DEPLZ,
                           CUMUL='OUI',
                           COEF_R=1.0,
                           ),
		        ),
                  ); 		  
VITEA=CREA_CHAMP(TYPE_CHAM='NOEU_DEPL_R',
                  OPERATION='ASSE',
                  NUME_DDL= NUME_DD0,
                  MODELE=STICKMOD,
                  ASSE=(_F(TOUT='OUI',
                           CHAM_GD=VITEX,
                           CUMUL='OUI',
                           COEF_R=1.0,
                           ),
                        _F(TOUT='OUI',
                           CHAM_GD=VITEY,
                           CUMUL='OUI',
                           COEF_R=1.0,
                           ),
                        _F(TOUT='OUI',
                           CHAM_GD=VITEZ,
                           CUMUL='OUI',
                           COEF_R=1.0,
                           ),
		        ),
                  ); 
		  
ACCEA=CREA_CHAMP(TYPE_CHAM='NOEU_DEPL_R',
                  OPERATION='ASSE',
                  NUME_DDL= NUME_DD0,
                  MODELE=STICKMOD,
                  ASSE=(_F(TOUT='OUI',
                           CHAM_GD=ACCEX,
                           CUMUL='OUI',
                           COEF_R=1.0,                           ),
                        _F(TOUT='OUI',
                           CHAM_GD=ACCEY,
                           CUMUL='OUI',
                           COEF_R=1.0,
                           ),
                        _F(TOUT='OUI',
                           CHAM_GD=ACCEZ,
                           CUMUL='OUI',
                           COEF_R=1.0,
                           ),
		        ),
                  );

DYNA_REF=CREA_RESU(OPERATION='AFFE',
              TYPE_RESU='DYNA_TRANS',
              MATR_RIGI=rigid0,
              MATR_MASS=masse0,
              NOM_CHAM='DEPL',
              AFFE=(_F(CHAM_GD=DEPLA,INST=0.0,),),);
      
DYNA_REF=CREA_RESU(reuse=DYNA_REF,OPERATION='AFFE',
              TYPE_RESU='DYNA_TRANS',
              MATR_RIGI=rigid0,
              MATR_MASS=masse0,
              NOM_CHAM='VITE',
              AFFE=(_F(CHAM_GD=VITEA,INST=0.0,),),);	  
DYNA_REF=CREA_RESU(reuse=DYNA_REF,OPERATION='AFFE',
              TYPE_RESU='DYNA_TRANS',
              MATR_RIGI=rigid0,
              MATR_MASS=masse0,
              NOM_CHAM='ACCE',
              AFFE=(_F(CHAM_GD=ACCEA,INST=0.0,),),);


IMPR_RESU(RESU=_F(RESULTAT=DYNA_REF, NOEUD='N11',))
IMPR_RESU(RESU=_F(RESULTAT=DYNA_3DP, NOEUD='N11', NUME_ORDRE = 2))

# le résultat de référence n'a qu'un numéro d'ordre
TEST_RESU(RESU=(_F(NUME_ORDRE=1,
                   RESULTAT=DYNA_REF,
                   NOM_CHAM='DEPL',
                   NOM_CMP='DX',
                   VALE_CALC=0.00108384851924,
                   NOEUD='N11',),
                _F(NUME_ORDRE=1,
                   RESULTAT=DYNA_REF,
                   NOM_CHAM='DEPL',
                   NOM_CMP='DRX',
                   VALE_CALC=9.65779984763E-07,
                   NOEUD='N11',),
                _F(NUME_ORDRE=1,
                   RESULTAT=DYNA_REF,
                   NOM_CHAM='VITE',
                   NOM_CMP='DY',
                   VALE_CALC=-0.00917620109214,
                   NOEUD='N11',),
                _F(NUME_ORDRE=1,
                   RESULTAT=DYNA_REF,
                   NOM_CHAM='VITE',
                   NOM_CMP='DRY',
                   VALE_CALC=-2.6388744608E-07,
                   NOEUD='N11',),
                _F(NUME_ORDRE=1,
                   RESULTAT=DYNA_REF,
                   NOM_CHAM='ACCE',
                   NOM_CMP='DZ',
                   VALE_CALC=-0.207431127511,
                   NOEUD='N11',),
                _F(NUME_ORDRE=1,
                   RESULTAT=DYNA_REF,
                   NOM_CHAM='ACCE',
                   NOM_CMP='DRZ',
                   VALE_CALC=-0.000371704319503,
                   NOEUD='N11',),
                ),);


TEST_RESU(RESU=(_F(NUME_ORDRE=2,
                   RESULTAT=DYNA_3DP,
                   NOM_CHAM='DEPL',
                   NOM_CMP='DX',
                   VALE_CALC=0.00108384851924,
                   VALE_REFE=0.00108384851924,
                   REFERENCE = 'AUTRE_ASTER',
                   PRECISION = 1E-8,
                   NOEUD='N11',),
                _F(NUME_ORDRE=2,
                   RESULTAT=DYNA_3DP,
                   NOM_CHAM='DEPL',
                   NOM_CMP='DRX',
                   VALE_CALC=9.65779984763E-07,
                   VALE_REFE=9.65779984763E-07,
                   REFERENCE = 'AUTRE_ASTER',
                   PRECISION = 1E-8,
                   NOEUD='N11',),
                _F(NUME_ORDRE=2,
                   RESULTAT=DYNA_3DP,
                   NOM_CHAM='VITE',
                   NOM_CMP='DY',
                   VALE_CALC=-0.00917620109214,
                   VALE_REFE=-0.00917620109214,
                   REFERENCE = 'AUTRE_ASTER',
                   PRECISION = 1E-8,
                   NOEUD='N11',),
                _F(NUME_ORDRE=2,
                   RESULTAT=DYNA_3DP,
                   NOM_CHAM='VITE',
                   NOM_CMP='DRY',
                   VALE_CALC=-2.6388744608E-07,
                   VALE_REFE=-2.6388744608E-07,
                   REFERENCE = 'AUTRE_ASTER',
                   PRECISION = 1E-8,
                   NOEUD='N11',),
                _F(NUME_ORDRE=2,
                   RESULTAT=DYNA_3DP,
                   NOM_CHAM='ACCE',
                   NOM_CMP='DZ',
                   VALE_CALC=-0.207431127511,
                   VALE_REFE=-0.207431127511,
                   REFERENCE = 'AUTRE_ASTER',
                   PRECISION = 1E-8,
                   NOEUD='N11',),
                _F(NUME_ORDRE=2,
                   RESULTAT=DYNA_3DP,
                   NOM_CHAM='ACCE',
                   NOM_CMP='DRZ',
                   VALE_CALC=-0.000371704319503,
                   VALE_REFE=-0.000371704319503,
                   REFERENCE = 'AUTRE_ASTER',
                   PRECISION = 1E-8,
                   NOEUD='N11',),
                ),);

FIN();
