# TITRE SOUS STRUCTURATION DYNAMIQUE : TRIANGLE
#            CONFIGURATION MANAGEMENT OF EDF VERSION
# ======================================================================
# COPYRIGHT (C) 1991 - 2012  EDF R&D                  WWW.CODE-ASTER.ORG
# THIS PROGRAM IS FREE SOFTWARE; YOU CAN REDISTRIBUTE IT AND/OR MODIFY
# IT UNDER THE TERMS OF THE GNU GENERAL PUBLIC LICENSE AS PUBLISHED BY
# THE FREE SOFTWARE FOUNDATION; EITHER VERSION 2 OF THE LICENSE, OR
# (AT YOUR OPTION) ANY LATER VERSION.
#
# THIS PROGRAM IS DISTRIBUTED IN THE HOPE THAT IT WILL BE USEFUL, BUT
# WITHOUT ANY WARRANTY; WITHOUT EVEN THE IMPLIED WARRANTY OF
# MERCHANTABILITY OR FITNESS FOR A PARTICULAR PURPOSE. SEE THE GNU
# GENERAL PUBLIC LICENSE FOR MORE DETAILS.
#
# YOU SHOULD HAVE RECEIVED A COPY OF THE GNU GENERAL PUBLIC LICENSE
# ALONG WITH THIS PROGRAM; IF NOT, WRITE TO EDF R&D CODE_ASTER,
#    1 AVENUE DU GENERAL DE GAULLE, 92141 CLAMART CEDEX, FRANCE.
# ======================================================================
#            CONFIGURATION MANAGEMENT OF EDF VERSION
# ======================================================================

# CAS_TEST__: PLAQUE TRIANGULAIRE
#             VALIDATION SOUS-STRUCTURATION CLASSIQUE
#
#
#              SOUS-STRUCTURATION CLASSIQUE
#
#              AVEC INTERFACES DE TYPE CRAIG-BAMPTON
#
#
#
#123678901234567890123456789012345678901234567890123456789012345678901
#
DEBUT(CODE=_F(NOM='SDLS111A',NIV_PUB_WEB='INTERNET'),DEBUG=_F(SDVERI='OUI'))

MAILLA=LIRE_MAILLAGE(FORMAT='MED',UNITE=20);

MODELE=AFFE_MODELE(MAILLAGE=MAILLA,
                   AFFE=_F(GROUP_MA='CALCUL',
                           PHENOMENE='MECANIQUE',
                           MODELISATION='DKT'));

MATER=DEFI_MATERIAU(ELAS=_F(E=210000000000.0,
                            NU=0.3,
                            RHO=7800));

CHAMPMAT=AFFE_MATERIAU(MAILLAGE=MAILLA,
                       AFFE=_F(GROUP_MA='CALCUL',
                               MATER=MATER));

PARAM=AFFE_CARA_ELEM(MODELE=MODELE,
                     COQUE=_F(GROUP_MA='CALCUL',
                              EPAIS=0.01));
#
#
#//////////////////////////////////////////////////////////////////////
#
#     SOUS-STRUCTURE LIBRE - INTERFACE DE TYPE CRAIG-BAMPTON
#
#//////////////////////////////////////////////////////////////////////

CHARGE_L=AFFE_CHAR_MECA(MODELE=MODELE,
                        DDL_IMPO=(_F(GROUP_MA='TOUT',
                                     DRZ=0),
                                  _F(GROUP_NO='BASE',
                                     DX=0,
                                     DY=0,
                                     DZ=0,
                                     DRX=0,
                                     DRY=0)));

MERIME_L=CALC_MATR_ELEM(OPTION='RIGI_MECA',
                        MODELE=MODELE,
                        CHAM_MATER=CHAMPMAT,
                        CARA_ELEM=PARAM,
                        CHARGE=CHARGE_L);

MEMAME_L=CALC_MATR_ELEM(OPTION='MASS_MECA',
                        MODELE=MODELE,
                        CHAM_MATER=CHAMPMAT,
                        CARA_ELEM=PARAM,
                        CHARGE=CHARGE_L);

NUMDDL_L=NUME_DDL(MATR_RIGI=MERIME_L);

RAID_L=ASSE_MATRICE(MATR_ELEM=MERIME_L,
                    NUME_DDL=NUMDDL_L);

MASS_L=ASSE_MATRICE(MATR_ELEM=MEMAME_L,
                    NUME_DDL=NUMDDL_L);

MODES_L1=MODE_ITER_SIMULT(MATR_RIGI=RAID_L,
                          MATR_MASS=MASS_L,
                          CALC_FREQ=_F(OPTION='BANDE',
                                       FREQ=(10.0,1000.0)));


MODES_L2=MODE_ITER_SIMULT(MATR_RIGI=RAID_L,
                          MATR_MASS=MASS_L,
                          CALC_FREQ=_F(OPTION='BANDE',
                                       FREQ=(1000.0,2000.0)));


MODES_L3=MODE_ITER_SIMULT(MATR_RIGI=RAID_L,
                          MATR_MASS=MASS_L,
                          CALC_FREQ=_F(OPTION='BANDE',
                                       FREQ=(2000.0,3000.0)));

#
#
#//////////////////////////////////////////////////////////////////////
#
#     SOUS-STRUCTURE CENTRALE - INTERFACE DE TYPE CRAIG-BAMPTON
#
#//////////////////////////////////////////////////////////////////////

CHARGE_M=AFFE_CHAR_MECA(MODELE=MODELE,
                        DDL_IMPO=(_F(GROUP_MA='TOUT',
                                     DRZ=0),
                                  _F(GROUP_NO='DROITE',
                                     DX=0,
                                     DY=0,
                                     DZ=0,
                                     DRX=0,
                                     DRY=0),
                                  _F(GROUP_NO='GAUCHE',
                                     DX=0,
                                     DY=0,
                                     DZ=0,
                                     DRX=0,
                                     DRY=0),
                                  _F(GROUP_NO='BASE',
                                     DX=0,
                                     DY=0,
                                     DZ=0,
                                     DRX=0,
                                     DRY=0)));

MERIME_M=CALC_MATR_ELEM(OPTION='RIGI_MECA',
                        MODELE=MODELE,
                        CHAM_MATER=CHAMPMAT,
                        CARA_ELEM=PARAM,
                        CHARGE=CHARGE_M);

MEMAME_M=CALC_MATR_ELEM(OPTION='MASS_MECA',
                        MODELE=MODELE,
                        CHAM_MATER=CHAMPMAT,
                        CARA_ELEM=PARAM,
                        CHARGE=CHARGE_M);

NUMDDL_M=NUME_DDL(MATR_RIGI=MERIME_M);

RAID_M=ASSE_MATRICE(MATR_ELEM=MERIME_M,
                    NUME_DDL=NUMDDL_M);

MASS_M=ASSE_MATRICE(MATR_ELEM=MEMAME_M,
                    NUME_DDL=NUMDDL_M);

MODES_M1=MODE_ITER_SIMULT(MATR_RIGI=RAID_M,
                          MATR_MASS=MASS_M,
                          CALC_FREQ=_F(OPTION='BANDE',
                                       FREQ=(10.0,1000.0)));


MODES_M2=MODE_ITER_SIMULT(MATR_RIGI=RAID_M,
                          MATR_MASS=MASS_M,
                          CALC_FREQ=_F(OPTION='BANDE',
                                       FREQ=(1000.0,2000.0)));


MODES_M3=MODE_ITER_SIMULT(MATR_RIGI=RAID_M,
                          MATR_MASS=MASS_M,
                          NMAX_ITER_SOREN=25,
                          CALC_FREQ=_F(OPTION='BANDE',
                                       FREQ=(2000.0,3000.0)));

#
#
#//////////////////////////////////////////////////////////////////////
#
#     SOUS-STRUCTURE ENCASTREE - INTERFACE DE TYPE CRAIG-BAMPTON
#
#//////////////////////////////////////////////////////////////////////

CHARGE_E=AFFE_CHAR_MECA(MODELE=MODELE,
                        DDL_IMPO=(_F(GROUP_MA='TOUT',
                                     DRZ=0),
                                  _F(GROUP_NO='DROITE',
                                     DX=0,
                                     DY=0,
                                     DZ=0,
                                     DRX=0,
                                     DRY=0),
                                  _F(GROUP_NO='BLOQUE',
                                     DX=0,
                                     DY=0,
                                     DZ=0,
                                     DRX=0,
                                     DRY=0)));

MERIME_E=CALC_MATR_ELEM(OPTION='RIGI_MECA',
                        MODELE=MODELE,
                        CHAM_MATER=CHAMPMAT,
                        CARA_ELEM=PARAM,
                        CHARGE=CHARGE_E);

MEMAME_E=CALC_MATR_ELEM(OPTION='MASS_MECA',
                        MODELE=MODELE,
                        CHAM_MATER=CHAMPMAT,
                        CARA_ELEM=PARAM,
                        CHARGE=CHARGE_E);

NUMDDL_E=NUME_DDL(MATR_RIGI=MERIME_E);

RAID_E=ASSE_MATRICE(MATR_ELEM=MERIME_E,
                    NUME_DDL=NUMDDL_E);

MASS_E=ASSE_MATRICE(MATR_ELEM=MEMAME_E,
                    NUME_DDL=NUMDDL_E);

MODE_E=MODE_ITER_SIMULT(MATR_RIGI=RAID_E,
                        MATR_MASS=MASS_E,
                        CALC_FREQ=_F(NMAX_FREQ=25),
                        VERI_MODE=_F(STOP_ERREUR='NON'));

#
#
#//////////////////////////////////////////////////////////////////////
#
#     DEFINITION DES INTERFACES
#
#//////////////////////////////////////////////////////////////////////

LINT1_CL=DEFI_INTERF_DYNA(NUME_DDL=NUMDDL_L,
                          INTERFACE=_F(NOM='BASE_L',
                                       TYPE='CRAIGB',
                                       GROUP_NO='BASE',
                                       MASQUE='DRZ'));

LINT2_CL=DEFI_INTERF_DYNA(NUME_DDL=NUMDDL_M,
                          INTERFACE=(_F(NOM='DROITE_M',
                                        TYPE='CRAIGB',
                                        GROUP_NO='DROIT2',
                                        MASQUE='DRZ'),
                                     _F(NOM='GAUCHE_M',
                                        TYPE='CRAIGB',
                                        GROUP_NO='GAUCH2',
                                        MASQUE='DRZ'),
                                     _F(NOM='BASE_M',
                                        TYPE='CRAIGB',
                                        GROUP_NO='BASE',
                                        MASQUE='DRZ')));

LINT3_CL=DEFI_INTERF_DYNA(NUME_DDL=NUMDDL_E,
                          INTERFACE=_F(NOM='DROITE_E',
                                       TYPE='CRAIGB',
                                       GROUP_NO='DROITE',
                                       MASQUE='DRZ'));

#
#
#//////////////////////////////////////////////////////////////////////
#
#     CALCUL DE LA BASE MODALE DES SOUS-STRUCTURES
#
#//////////////////////////////////////////////////////////////////////

BAMO1_CL=DEFI_BASE_MODALE(CLASSIQUE=_F(INTERF_DYNA=LINT1_CL,
                                       MODE_MECA=(MODES_L1,MODES_L2,MODES_L3),
                                       NMAX_MODE=20));

BAMO2_CL=DEFI_BASE_MODALE(CLASSIQUE=_F(INTERF_DYNA=LINT2_CL,
                                       MODE_MECA=(MODES_M1,MODES_M2,MODES_M3),
                                       NMAX_MODE=20));

BAMO3_CL=DEFI_BASE_MODALE(CLASSIQUE=_F(INTERF_DYNA=LINT3_CL,
                                       MODE_MECA=MODE_E,
                                       NMAX_MODE=20));


#
#
#//////////////////////////////////////////////////////////////////////
#
#     CALCUL DES MACRO-ELEMENTS
#
#//////////////////////////////////////////////////////////////////////

MACEL1=MACR_ELEM_DYNA(BASE_MODALE=BAMO1_CL);

MACEL2=MACR_ELEM_DYNA(BASE_MODALE=BAMO2_CL);

MACEL3=MACR_ELEM_DYNA(BASE_MODALE=BAMO3_CL);


#
#
#//////////////////////////////////////////////////////////////////////
#
#     CALCUL SUR MODELE GENERALISE
#
#//////////////////////////////////////////////////////////////////////

MODEGENE=DEFI_MODELE_GENE(SOUS_STRUC=(
                                      _F(NOM='TRI1',
                                         MACR_ELEM_DYNA=MACEL1,
                                         TRANS=(0.,0.0,0.),
                                         ANGL_NAUT=(0.0,0.0,0.0)),
                                      _F(NOM='TRI2',
                                         MACR_ELEM_DYNA=MACEL2,
                                         TRANS=(0.,0.0,0.),
                                         ANGL_NAUT=(0.0,0.0,180.0)),
                                      _F(NOM='TRI3',
                                         MACR_ELEM_DYNA=MACEL3,
                                         TRANS=(-0.5,-0.866025,0.),
                                         ANGL_NAUT=(0.,0.,0.)),
                                      _F(NOM='TRI4',
                                         MACR_ELEM_DYNA=MACEL3,
                                         TRANS=(1.5,-0.866025,0.),
                                         ANGL_NAUT=(0.0,180.0,0.0)),
                                         ),
                          LIAISON=(
                                   _F(SOUS_STRUC_1='TRI1',
                                      INTERFACE_1='BASE_L',
                                      SOUS_STRUC_2='TRI2',
                                      INTERFACE_2='BASE_M'),
                                   _F(SOUS_STRUC_1='TRI2',
                                      INTERFACE_1='GAUCHE_M',
                                      SOUS_STRUC_2='TRI3',
                                      INTERFACE_2='DROITE_E'),
                                  _F(SOUS_STRUC_2='TRI4',
                                      INTERFACE_2='DROITE_E',
                                      SOUS_STRUC_1='TRI2',
                                      INTERFACE_1='DROITE_M'),
                                       ),
                          VERIF=_F(PRECISION=1e-06,
                                   CRITERE='RELATIF'));

NUMEGE=NUME_DDL_GENE(MODELE_GENE=MODEGENE,
                     STOCKAGE='LIGN_CIEL');



RIGIGENE=ASSE_MATR_GENE(NUME_DDL_GENE=NUMEGE,
                        OPTION='RIGI_GENE');


MASSGENE=ASSE_MATR_GENE(NUME_DDL_GENE=NUMEGE,
                        OPTION='MASS_GENE');

RESGEN=MODE_ITER_SIMULT(MATR_RIGI=RIGIGENE,
                        MATR_MASS=MASSGENE,
                        SOLVEUR=_F(METHODE='MUMPS',
   ),
                        CALC_FREQ=_F(OPTION='BANDE',
                                     FREQ=(0.0,250.0)));



SKEL=DEFI_SQUELETTE(MODELE_GENE=MODEGENE,
                    RECO_GLOBAL=_F(TOUT='OUI'),
                    TOUT='OUI',
                    SOUS_STRUC=(
                                _F(NOM='TRI1',
                                   GROUP_MA='CALCUL'),
                                _F(NOM='TRI2',
                                   GROUP_MA='CALCUL'),
                                _F(NOM='TRI3',
                                   GROUP_MA='CALCUL'),
                                _F(NOM='TRI4',
                                   GROUP_MA='CALCUL')));

MODPHY=REST_SOUS_STRUC(RESU_GENE=RESGEN,
                      TOUT_ORDRE='OUI',
                      TOUT_CHAM='OUI',
                      SQUELETTE=SKEL,
                      );

#
#
#//////////////////////////////////////////////////////////////////////
#
#     TEST RESU
#
#//////////////////////////////////////////////////////////////////////

TEST_RESU(RESU=(_F(NUME_MODE=1,
                   RESULTAT=MODPHY,
                   NOM_CHAM='DEPL',
                   NOEUD='NO1',
                   NOM_CMP='DZ',
                   VALE_CALC=0.45438869768363,
                   CRITERE='RELATIF',
                   ),
                _F(NUME_MODE=1,
                   RESULTAT=MODPHY,
                   NOM_CHAM='DEPL',
                   NOEUD='NO43',
                   NOM_CMP='DZ',
                   VALE_CALC=0.60375558205232,
                   CRITERE='RELATIF',
                   ),
                ),
          )

#

TEST_RESU(RESU=(_F(PARA='FREQ',
                   NUME_MODE=1,
                   REFERENCE='NON_DEFINI',
                   RESULTAT=MODPHY,
                   VALE_CALC=5.500146317,
                   VALE_REFE=5.5,
                   CRITERE='RELATIF',
                   PRECISION=0.012500000000000001,),
                _F(PARA='FREQ',
                   NUME_MODE=2,
                   REFERENCE='NON_DEFINI',
                   RESULTAT=MODPHY,
                   VALE_CALC=21.662064028,
                   VALE_REFE=21.66,
                   CRITERE='RELATIF',
                   PRECISION=0.012500000000000001,),
                _F(PARA='FREQ',
                   NUME_MODE=3,
                   REFERENCE='NON_DEFINI',
                   RESULTAT=MODPHY,
                   VALE_CALC=23.641443198,
                   VALE_REFE=23.640000000000001,
                   CRITERE='RELATIF',
                   PRECISION=0.012500000000000001,),
                _F(PARA='FREQ',
                   NUME_MODE=4,
                   REFERENCE='NON_DEFINI',
                   RESULTAT=MODPHY,
                   VALE_CALC=55.637397725,
                   VALE_REFE=55.630000000000003,
                   CRITERE='RELATIF',
                   PRECISION=0.012500000000000001,),
                _F(PARA='FREQ',
                   NUME_MODE=5,
                   REFERENCE='NON_DEFINI',
                   RESULTAT=MODPHY,
                   VALE_CALC=56.970275486,
                   VALE_REFE=56.969999999999999,
                   CRITERE='RELATIF',
                   PRECISION=0.012500000000000001,),
                ),
          )

FIN();
