# MODIF  DATE 20/10/2011   AUTEUR SELLENET N.SELLENET 
# TITRE CALCUL DES FACTEURS D INTENSITE DES CONTRAINTES POUR UNE MODE PROPRE
# sdls114d.para = tps_job 480 mem_job 256Mo liste_test S
#            CONFIGURATION MANAGEMENT OF EDF VERSION
# ======================================================================
# COPYRIGHT (C) 1991 - 2011  EDF R&D                  WWW.CODE-ASTER.ORG
# THIS PROGRAM IS FREE SOFTWARE; YOU CAN REDISTRIBUTE IT AND/OR MODIFY  
# IT UNDER THE TERMS OF THE GNU GENERAL PUBLIC LICENSE AS PUBLISHED BY  
# THE FREE SOFTWARE FOUNDATION; EITHER VERSION 2 OF THE LICENSE, OR     
# (AT YOUR OPTION) ANY LATER VERSION.                                                    
#                                                                       
# THIS PROGRAM IS DISTRIBUTED IN THE HOPE THAT IT WILL BE USEFUL, BUT   
# WITHOUT ANY WARRANTY; WITHOUT EVEN THE IMPLIED WARRANTY OF            
# MERCHANTABILITY OR FITNESS FOR A PARTICULAR PURPOSE. SEE THE GNU      
# GENERAL PUBLIC LICENSE FOR MORE DETAILS.                              
#                                                                       
# YOU SHOULD HAVE RECEIVED A COPY OF THE GNU GENERAL PUBLIC LICENSE     
# ALONG WITH THIS PROGRAM; IF NOT, WRITE TO EDF R&D CODE_ASTER,         
#    1 AVENUE DU GENERAL DE GAULLE, 92141 CLAMART CEDEX, FRANCE.        
# ======================================================================

DEBUT(CODE=_F( NOM = 'SDLS114D',NIV_PUB_WEB='INTERNET',VISU_EFICAS='NON'))

# MODELISATION D : X-FEM 3D

# DEFINITION DES PARAMETRES DU CALCUL
tau = 0.001
n_mode = 10
tfin = 0.005
pas = 5E-7
nbpas = 100

M = LIRE_MAILLAGE(FORMAT='MED',);

MODELIN=AFFE_MODELE(MAILLAGE=M,
               AFFE=(_F(GROUP_MA = ('VOL'),
                       PHENOMENE='MECANIQUE',
                       MODELISATION='3D',),
                       
                    _F(GROUP_MA = ('SR_INF','SR_SUP'),
                       PHENOMENE='MECANIQUE',
                       MODELISATION='3D',),  
                       
                       ),                    
                       );

LN = FORMULE ( NOM_PARA = ('X', 'Y', 'Z'), VALE = 'Y-0.05')
LT = FORMULE ( NOM_PARA = ('X', 'Y', 'Z'), VALE = '0.045-X')

FF2=DEFI_FISS_XFEM(MODELE=MODELIN,  
                   DEFI_FISS=_F(
                                FONC_LT = LT,
                                FONC_LN = LN,           
                                ),
                   ORIE_FOND=_F(PFON_INI=(0.045, 0.05, 0.0),
                                VECT_ORIE=(0.0, 1.0, 0.0),
                                POINT_ORIG=(0.05, 0.05, 0.0),),                  
                   GROUP_MA_ENRI='VOL',                   
                  );
                  
MO=MODI_MODELE_XFEM(MODELE_IN=MODELIN,
                         FISSURE=FF2,);                       
                         
M = MODI_MAILLAGE(reuse = M,
                  MAILLAGE = M,
                  ORIE_PEAU_3D = (_F(GROUP_MA='SR_INF'),),
                 );

MA=DEFI_MATERIAU(ELAS=_F(E=200.0E+9,
                         NU=0.3,
                         ALPHA = 0.0,
                         RHO=7800),);
                         
CM=AFFE_MATERIAU(MAILLAGE=M,
                 AFFE=_F(TOUT='OUI',
                         MATER=MA,
                         ),);  

BLOCAGE=AFFE_CHAR_MECA(MODELE=MO,
                       DDL_IMPO=_F(GROUP_MA='SR_SUP',
                                    DX = 0,
                                    DY = 0,
                                    DZ = 0,),);
                         
CHAR=AFFE_CHAR_MECA(MODELE=MO,
                    LIAISON_XFEM='OUI',
                    FORCE_FACE=_F(GROUP_MA='SR_INF',
                                  FX=-1.0E+6,
                                  FY=-5E+6,
                                  FZ=-0.4E+6,)
                                  
                                  ,);

##################################
#  CONSTRUCTION DES MATRICES
##################################

MRIGI=CALC_MATR_ELEM(OPTION='RIGI_MECA',
                     MODELE=MO,
                     CHAM_MATER=CM,
                     CHARGE=BLOCAGE,);

MMASSE=CALC_MATR_ELEM(OPTION='MASS_MECA',
                      MODELE=MO,
                      CHAM_MATER=CM,
                      CHARGE=BLOCAGE,);

VCHA=CALC_VECT_ELEM(OPTION='CHAR_MECA',
                    CHARGE =(BLOCAGE, CHAR),);


NUM=NUME_DDL(MODELE= MO,
             CHARGE=BLOCAGE,);

RIG_ASS=ASSE_MATRICE(MATR_ELEM=MRIGI,
                     NUME_DDL=NUM,);

MA_ASS=ASSE_MATRICE(MATR_ELEM=MMASSE,
                    NUME_DDL=NUM,);

###################################
#  CALCUL DES MODES PROPRES ET DES K MODAUX
###################################

MODE=MODE_ITER_SIMULT(MATR_A=RIG_ASS,
                      MATR_B=MA_ASS,
                      CALC_FREQ=_F(NMAX_FREQ=n_mode,),);


MODE=NORM_MODE(reuse=MODE,
               MODE=MODE,
               NORME='MASS_GENE',);


GLMO1=CALC_G(OPTION='K_G_MODA',
             RESULTAT=MODE,
             TOUT_MODE = 'OUI',
             THETA=_F( FISSURE=FF2,
                       R_INF=1.E-3,
                       R_SUP=3.E-3,),
             LISSAGE=_F(LISSAGE_THETA='LAGRANGE',
                        LISSAGE_G='LAGRANGE',),
            );
            
#IMPR_TABLE(TABLE=GLMO1)

                          
######################################################                       
#VALEUR REFERENCE de K1 (K_G_MODA) 
######################################################

# la reference est obtenue par fissure maillee (SDLS114B)
# on test uniquement sur le point au milieu du fond de fissure

TEST_TABLE(TABLE=GLMO1,
           NOM_PARA='K1',
           FILTRE=(_F(NOM_PARA = 'NUME_MODE',
                      VALE_I = 1),
                   _F(NOM_PARA = 'NUM_PT',
                      VALE_I = 3),  
                   ),
           VALE=4.79E+09,
           PRECISION=0.08,
           REFERENCE = 'AUTRE_ASTER',
          );
                        
FIN();         
