# MODIF  DATE 26/09/2012   AUTEUR LEBOUVIER F.LEBOUVIER 
# TITRE FREQUENCES PROPRES D'UN ANNEAU CYLINDRIQUE EPAIS
# sdls109f.para = tps_job 60 mem_job 256Mo ncpus 1 liste_test R
#            CONFIGURATION MANAGEMENT OF EDF VERSION
# ======================================================================
# COPYRIGHT (C) 1991 - 2012  EDF R&D                  WWW.CODE-ASTER.ORG
# THIS PROGRAM IS FREE SOFTWARE; YOU CAN REDISTRIBUTE IT AND/OR MODIFY
# IT UNDER THE TERMS OF THE GNU GENERAL PUBLIC LICENSE AS PUBLISHED BY
# THE FREE SOFTWARE FOUNDATION; EITHER VERSION 2 OF THE LICENSE, OR
# (AT YOUR OPTION) ANY LATER VERSION.
#
# THIS PROGRAM IS DISTRIBUTED IN THE HOPE THAT IT WILL BE USEFUL, BUT
# WITHOUT ANY WARRANTY; WITHOUT EVEN THE IMPLIED WARRANTY OF
# MERCHANTABILITY OR FITNESS FOR A PARTICULAR PURPOSE. SEE THE GNU
# GENERAL PUBLIC LICENSE FOR MORE DETAILS.
#
# YOU SHOULD HAVE RECEIVED A COPY OF THE GNU GENERAL PUBLIC LICENSE
# ALONG WITH THIS PROGRAM; IF NOT, WRITE TO EDF R&D CODE_ASTER,
#    1 AVENUE DU GENERAL DE GAULLE, 92141 CLAMART CEDEX, FRANCE.
# ======================================================================
DEBUT(CODE=_F(NOM='SDLS109F',NIV_PUB_WEB='INTERNET'),DEBUG=_F(SDVERI='OUI'))
MAIL=LIRE_MAILLAGE(FORMAT='MED',);
MODELE=AFFE_MODELE(AFFE=_F(GROUP_MA='ARC_S',
                           PHENOMENE='MECANIQUE',
                           MODELISATION='COQUE_C_PLAN',),
                   MAILLAGE=MAIL,);
M_S=DEFI_MATERIAU(ELAS=_F(NU=0.29999999999999999,
                          RHO=7800.0,
                          E=1.85000000000E11,),);
CHAM_MAT=AFFE_MATERIAU(AFFE=_F(MATER=M_S,
                               GROUP_MA='ARC_S',),
                       MAILLAGE=MAIL,);
CARATUY=AFFE_CARA_ELEM(MODELE=MODELE,
                       COQUE=_F(ANGL_REP=(45.0,-45.0),
                                GROUP_MA='ARC_S',
                                A_CIS=0.83333333300000001,
                                EPAIS=0.048000000000000001,),);
MAT_K=CALC_MATR_ELEM(OPTION='RIGI_MECA',
                     MODELE=MODELE,
                     CHAM_MATER=CHAM_MAT,
                     CARA_ELEM=CARATUY,);
MAT_M=CALC_MATR_ELEM(OPTION='MASS_MECA',
                     MODELE=MODELE,
                     CHAM_MATER=CHAM_MAT,
                     CARA_ELEM=CARATUY,);
NUM=NUME_DDL(MATR_RIGI=MAT_K,);
MATASS_K=ASSE_MATRICE(MATR_ELEM=MAT_K,
                      NUME_DDL=NUM,);
MATASS_M=ASSE_MATRICE(MATR_ELEM=MAT_M,
                      NUME_DDL=NUM,);
MODES=MODE_ITER_SIMULT(OPTION='SANS',
                       MATR_RIGI=MATASS_K,
                       MATR_MASS=MATASS_M,
                       CALC_FREQ=_F(OPTION='BANDE',
                                    FREQ=(200.0,800.0),),);

TEST_RESU(RESU=(_F(PARA='FREQ',
                   RESULTAT=MODES,
                   PRECISION=1.E-2,
                   VALE=210.55,
                   REFERENCE='AUTRE_ASTER',
                   NUME_ORDRE=1,),
                _F(PARA='FREQ',
                   RESULTAT=MODES,
                   PRECISION=1.E-2,
                   VALE=210.55,
                   REFERENCE='AUTRE_ASTER',
                   NUME_ORDRE=2,),
                _F(PARA='FREQ',
                   RESULTAT=MODES,
                   PRECISION=1.E-2,
                   VALE=587.92,
                   REFERENCE='AUTRE_ASTER',
                   NUME_ORDRE=3,),
                _F(PARA='FREQ',
                   RESULTAT=MODES,
                   PRECISION=1.E-2,
                   VALE=587.92,
                   REFERENCE='AUTRE_ASTER',
                   NUME_ORDRE=4,),),);
FIN();






