# TITRE ENVELOPPE SPHERIQUE EN ANALYSE MODALE EN DKT.
#            CONFIGURATION MANAGEMENT OF EDF VERSION
# ======================================================================
# COPYRIGHT (C) 1991 - 2013  EDF R&D                  WWW.CODE-ASTER.ORG
# THIS PROGRAM IS FREE SOFTWARE; YOU CAN REDISTRIBUTE IT AND/OR MODIFY
# IT UNDER THE TERMS OF THE GNU GENERAL PUBLIC LICENSE AS PUBLISHED BY
# THE FREE SOFTWARE FOUNDATION; EITHER VERSION 2 OF THE LICENSE, OR
# (AT YOUR OPTION) ANY LATER VERSION.
#
# THIS PROGRAM IS DISTRIBUTED IN THE HOPE THAT IT WILL BE USEFUL, BUT
# WITHOUT ANY WARRANTY; WITHOUT EVEN THE IMPLIED WARRANTY OF
# MERCHANTABILITY OR FITNESS FOR A PARTICULAR PURPOSE. SEE THE GNU
# GENERAL PUBLIC LICENSE FOR MORE DETAILS.
#
# YOU SHOULD HAVE RECEIVED A COPY OF THE GNU GENERAL PUBLIC LICENSE
# ALONG WITH THIS PROGRAM; IF NOT, WRITE TO EDF R&D CODE_ASTER,
#    1 AVENUE DU GENERAL DE GAULLE, 92141 CLAMART CEDEX, FRANCE.
# ======================================================================
#CAS_TEST__: SDLS07A

DEBUT(CODE=_F(NOM='SDLS07A',NIV_PUB_WEB='INTERNET'),DEBUG=_F(SDVERI='OUI'))

# UN HUITIEME DE SPHERE


MAT=DEFI_MATERIAU(ELAS=_F( E = 2.E11, NU = 0.3, RHO = 7800.))

MAIL=LIRE_MAILLAGE(FORMAT='MED',)

MAIL=DEFI_GROUP( reuse=MAIL,   MAILLAGE=MAIL,
  CREA_GROUP_MA=_F(  NOM = 'TOUT', TOUT = 'OUI'))

CHMAT=AFFE_MATERIAU(MAILLAGE=MAIL, AFFE=_F(  TOUT = 'OUI', MATER = MAT) )

MO=AFFE_MODELE(  MAILLAGE=MAIL, VERIF='MAILLE',
         AFFE=_F( TOUT = 'OUI', MODELISATION = 'DKT', PHENOMENE = 'MECANIQUE'))

EP=AFFE_CARA_ELEM(   MODELE=MO, COQUE=_F(
       GROUP_MA = 'TOUT',
 EPAIS = 0.10))

CH=AFFE_CHAR_MECA(MODELE=MO,DDL_IMPO=(
         _F( GROUP_NO = 'X_NUL', DX = 0., DRY = 0., DRZ = 0.),
         _F( GROUP_NO = 'Y_NUL', DY = 0., DRX = 0., DRZ = 0.),
         _F( GROUP_NO = 'Z_NUL', DZ = 0., DRX = 0., DRY = 0.),
         _F( NOEUD = 'NO2', DX = 0., DY = 0., DRX = 0., DRY = 0., DRZ = 0.),
         _F( NOEUD = 'NO1', DZ = 0., DY = 0., DRX = 0., DRY = 0., DRZ = 0.),
         _F( NOEUD = 'NO3', DX = 0., DZ = 0., DRX = 0., DRY = 0., DRZ = 0.)))

KE=CALC_MATR_ELEM(MODELE=MO, CHARGE=CH, CHAM_MATER=CHMAT,
                        CARA_ELEM=EP, OPTION='RIGI_MECA')

ME=CALC_MATR_ELEM(MODELE=MO, CHARGE=CH, CHAM_MATER=CHMAT,
                        CARA_ELEM=EP, OPTION='MASS_MECA')

NUM=NUME_DDL( MATR_RIGI=KE)

KA=ASSE_MATRICE(MATR_ELEM=KE,NUME_DDL=NUM)

MA=ASSE_MATRICE(MATR_ELEM=ME,NUME_DDL=NUM)

MD=MODE_ITER_SIMULT( MATR_RIGI=KA,
                     MATR_MASS=MA,
                     CALC_FREQ=_F(  OPTION = 'BANDE', FREQ = (230., 530.,))
                    )


TEST_RESU(RESU=(_F(NUME_ORDRE=1,
                   PARA='FREQ',
                   REFERENCE='ANALYTIQUE',
                   RESULTAT=MD,
                   VALE_CALC=237.238455508,
                   VALE_REFE=237.25,
                   PRECISION=1.E-2,),
                _F(NUME_ORDRE=2,
                   PARA='FREQ',
                   REFERENCE='ANALYTIQUE',
                   RESULTAT=MD,
                   VALE_CALC=237.242740510,
                   VALE_REFE=237.25,
                   PRECISION=1.E-2,),
                _F(NUME_ORDRE=3,
                   PARA='FREQ',
                   REFERENCE='ANALYTIQUE',
                   RESULTAT=MD,
                   VALE_CALC=304.967502770,
                   VALE_REFE=305.24000000000001,
                   PRECISION=1.E-2,),
                _F(NUME_ORDRE=4,
                   PARA='FREQ',
                   REFERENCE='ANALYTIQUE',
                   RESULTAT=MD,
                   VALE_CALC=304.994843527,
                   VALE_REFE=305.24000000000001,
                   PRECISION=1.E-2,),
                _F(NUME_ORDRE=5,
                   PARA='FREQ',
                   REFERENCE='ANALYTIQUE',
                   RESULTAT=MD,
                   VALE_CALC=305.076042956,
                   VALE_REFE=305.24000000000001,
                   PRECISION=1.E-2,),
                _F(NUME_ORDRE=6,
                   PARA='FREQ',
                   REFERENCE='ANALYTIQUE',
                   RESULTAT=MD,
                   VALE_CALC=346.114883455,
                   VALE_REFE=346.75999999999999,
                   PRECISION=1.E-2,),
                _F(NUME_ORDRE=7,
                   PARA='FREQ',
                   REFERENCE='ANALYTIQUE',
                   RESULTAT=MD,
                   VALE_CALC=346.119992871,
                   VALE_REFE=346.75999999999999,
                   PRECISION=1.E-2,),
                _F(NUME_ORDRE=8,
                   PARA='FREQ',
                   REFERENCE='ANALYTIQUE',
                   RESULTAT=MD,
                   VALE_CALC=346.298292198,
                   VALE_REFE=346.75999999999999,
                   PRECISION=1.E-2,),
                _F(NUME_ORDRE=9,
                   PARA='FREQ',
                   REFERENCE='ANALYTIQUE',
                   RESULTAT=MD,
                   VALE_CALC=346.385564099,
                   VALE_REFE=346.75999999999999,
                   PRECISION=1.E-2,),
                _F(NUME_ORDRE=10,
                   PARA='FREQ',
                   REFERENCE='ANALYTIQUE',
                   RESULTAT=MD,
                   VALE_CALC=414.894265284,
                   VALE_REFE=416.0,
                   PRECISION=1.E-2,),
                _F(NUME_ORDRE=11,
                   PARA='FREQ',
                   REFERENCE='ANALYTIQUE',
                   RESULTAT=MD,
                   VALE_CALC=414.924148655,
                   VALE_REFE=416.0,
                   PRECISION=1.E-2,),
                _F(NUME_ORDRE=12,
                   PARA='FREQ',
                   REFERENCE='ANALYTIQUE',
                   RESULTAT=MD,
                   VALE_CALC=415.163711473,
                   VALE_REFE=416.0,
                   PRECISION=1.E-2,),
                _F(NUME_ORDRE=13,
                   PARA='FREQ',
                   REFERENCE='ANALYTIQUE',
                   RESULTAT=MD,
                   VALE_CALC=415.240475976,
                   VALE_REFE=416.0,
                   PRECISION=1.E-2,),
                _F(NUME_ORDRE=14,
                   PARA='FREQ',
                   REFERENCE='ANALYTIQUE',
                   RESULTAT=MD,
                   VALE_CALC=415.330511196,
                   VALE_REFE=416.0,
                   PRECISION=1.E-2,),
                _F(NUME_ORDRE=15,
                   PARA='FREQ',
                   REFERENCE='ANALYTIQUE',
                   RESULTAT=MD,
                   VALE_CALC=524.341399210,
                   VALE_REFE=526.20000000000005,
                   PRECISION=1.E-2,),
                _F(NUME_ORDRE=16,
                   PARA='FREQ',
                   REFERENCE='ANALYTIQUE',
                   RESULTAT=MD,
                   VALE_CALC=524.428371740,
                   VALE_REFE=526.20000000000005,
                   PRECISION=1.E-2,),
                _F(NUME_ORDRE=17,
                   PARA='FREQ',
                   REFERENCE='ANALYTIQUE',
                   RESULTAT=MD,
                   VALE_CALC=524.711661458,
                   VALE_REFE=526.20000000000005,
                   PRECISION=1.E-2,),
                _F(NUME_ORDRE=18,
                   PARA='FREQ',
                   REFERENCE='ANALYTIQUE',
                   RESULTAT=MD,
                   VALE_CALC=524.937756848,
                   VALE_REFE=526.20000000000005,
                   PRECISION=1.E-2,),
                _F(NUME_ORDRE=19,
                   PARA='FREQ',
                   REFERENCE='ANALYTIQUE',
                   RESULTAT=MD,
                   VALE_CALC=524.967093502,
                   VALE_REFE=526.20000000000005,
                   PRECISION=1.E-2,),
                _F(NUME_ORDRE=20,
                   PARA='FREQ',
                   REFERENCE='ANALYTIQUE',
                   RESULTAT=MD,
                   VALE_CALC=525.119003027,
                   VALE_REFE=526.20000000000005,
                   PRECISION=1.E-2,),
                ),
          )

FIN()
#

