# TITRE FREQUENCES PROPRES D'UN ANNEAU CYLINDRIQUE EPAIS
# ======================================================================
# COPYRIGHT (C) 1991 - 2015  EDF R&D                  WWW.CODE-ASTER.ORG
# THIS PROGRAM IS FREE SOFTWARE; YOU CAN REDISTRIBUTE IT AND/OR MODIFY
# IT UNDER THE TERMS OF THE GNU GENERAL PUBLIC LICENSE AS PUBLISHED BY
# THE FREE SOFTWARE FOUNDATION; EITHER VERSION 2 OF THE LICENSE, OR
# (AT YOUR OPTION) ANY LATER VERSION.
#
# THIS PROGRAM IS DISTRIBUTED IN THE HOPE THAT IT WILL BE USEFUL, BUT
# WITHOUT ANY WARRANTY; WITHOUT EVEN THE IMPLIED WARRANTY OF
# MERCHANTABILITY OR FITNESS FOR A PARTICULAR PURPOSE. SEE THE GNU
# GENERAL PUBLIC LICENSE FOR MORE DETAILS.
#
# YOU SHOULD HAVE RECEIVED A COPY OF THE GNU GENERAL PUBLIC LICENSE
# ALONG WITH THIS PROGRAM; IF NOT, WRITE TO EDF R&D CODE_ASTER,
#    1 AVENUE DU GENERAL DE GAULLE, 92141 CLAMART CEDEX, FRANCE.
# ======================================================================
DEBUT(CODE=_F(NIV_PUB_WEB='INTERNET'),DEBUG=_F(SDVERI='OUI'))

MAIL=LIRE_MAILLAGE();

MOD_3M=AFFE_MODELE(AFFE=_F(GROUP_MA='AXE_S',
                           PHENOMENE='MECANIQUE',
                           MODELISATION='TUYAU_3M',),
                   MAILLAGE=MAIL,);

MOD_6M=AFFE_MODELE(AFFE=_F(GROUP_MA='AXE_S',
                           PHENOMENE='MECANIQUE',
                           MODELISATION='TUYAU_6M',),
                   MAILLAGE=MAIL,);
M_S=DEFI_MATERIAU(ELAS=_F(NU=0.29999999999999999,
                          RHO=7800.0,
                          E=1.85000000000E11,),);
CHAM_MAT=AFFE_MATERIAU(AFFE=_F(MATER=M_S,
                               GROUP_MA='AXE_S',),
                       MAILLAGE=MAIL,);
CARA_3M=AFFE_CARA_ELEM(MODELE=MOD_3M,
                       ORIENTATION=_F(VALE=(1.0,0.0,0.0),
                                      CARA='GENE_TUYAU',
                                      GROUP_NO='P1',),
                       POUTRE=_F(SECTION='CERCLE',
                                 GROUP_MA='AXE_S',
                                 VALE=(0.39500000000000002,0.048000000000000001),
                                 CARA=('R','EP'),),);
CARA_6M=AFFE_CARA_ELEM(MODELE=MOD_6M,
                       ORIENTATION=_F(VALE=(1.0,0.0,0.0),
                                      CARA='GENE_TUYAU',
                                      GROUP_NO='P1',),
                       POUTRE=_F(SECTION='CERCLE',
                                 GROUP_MA='AXE_S',
                                 VALE=(0.39500000000000002,0.048000000000000001),
                                 CARA=('R','EP'),),);
MK_3M=CALC_MATR_ELEM(OPTION='RIGI_MECA',
                     MODELE=MOD_3M,
                     CHAM_MATER=CHAM_MAT,
                     CARA_ELEM=CARA_3M,);
MM_3M=CALC_MATR_ELEM(OPTION='MASS_MECA',
                     MODELE=MOD_3M,
                     CHAM_MATER=CHAM_MAT,
                     CARA_ELEM=CARA_3M,);
NUM_3M=NUME_DDL(MATR_RIGI=MK_3M,);
MASK_3M=ASSE_MATRICE(MATR_ELEM=MK_3M,
                      NUME_DDL=NUM_3M,);
MASM_3M=ASSE_MATRICE(MATR_ELEM=MM_3M,
                      NUME_DDL=NUM_3M,);
MODE_3M=CALC_MODES(MATR_RIGI=MASK_3M,
                   OPTION='BANDE',
                   CALC_FREQ=_F(FREQ=(200.0,800.0),
                                ),
                   MATR_MASS=MASM_3M,
                   SOLVEUR_MODAL=_F(METHODE='SORENSEN',
                                    ),
                   )

MK_6M=CALC_MATR_ELEM(OPTION='RIGI_MECA',
                     MODELE=MOD_6M,
                     CHAM_MATER=CHAM_MAT,
                     CARA_ELEM=CARA_6M,);
MM_6M=CALC_MATR_ELEM(OPTION='MASS_MECA',
                     MODELE=MOD_6M,
                     CHAM_MATER=CHAM_MAT,
                     CARA_ELEM=CARA_6M,);
NUM_6M=NUME_DDL(MATR_RIGI=MK_6M,);
MASK_6M=ASSE_MATRICE(MATR_ELEM=MK_6M,
                      NUME_DDL=NUM_6M,);
MASM_6M=ASSE_MATRICE(MATR_ELEM=MM_6M,
                      NUME_DDL=NUM_6M,);
MODE_6M=CALC_MODES(MATR_RIGI=MASK_6M,
                   OPTION='BANDE',
                   CALC_FREQ=_F(FREQ=(200.0,800.0),
                                ),
                   MATR_MASS=MASM_6M,
                   SOLVEUR_MODAL=_F(METHODE='SORENSEN',
                                    ),
                   )

TEST_RESU(RESU=(_F(NUME_ORDRE=1,
                   PARA='FREQ',
                   REFERENCE='AUTRE_ASTER',
                   RESULTAT=MODE_3M,
                   VALE_CALC=209.024818026,
                   VALE_REFE=210.55000000000001,
                   PRECISION=1.E-2,),
                _F(NUME_ORDRE=2,
                   PARA='FREQ',
                   REFERENCE='AUTRE_ASTER',
                   RESULTAT=MODE_3M,
                   VALE_CALC=209.024818039,
                   VALE_REFE=210.55000000000001,
                   PRECISION=1.E-2,),
                _F(NUME_ORDRE=5,
                   PARA='FREQ',
                   REFERENCE='AUTRE_ASTER',
                   RESULTAT=MODE_3M,
                   VALE_CALC=591.000197179,
                   VALE_REFE=587.91999999999996,
                   PRECISION=1.E-2,),
                _F(NUME_ORDRE=6,
                   PARA='FREQ',
                   REFERENCE='AUTRE_ASTER',
                   RESULTAT=MODE_3M,
                   VALE_CALC=591.000197215,
                   VALE_REFE=587.91999999999996,
                   PRECISION=1.E-2,),
                _F(NUME_ORDRE=1,
                   PARA='FREQ',
                   REFERENCE='AUTRE_ASTER',
                   RESULTAT=MODE_6M,
                   VALE_CALC=209.024818025,
                   VALE_REFE=210.55000000000001,
                   PRECISION=1.E-2,),
                _F(NUME_ORDRE=2,
                   PARA='FREQ',
                   REFERENCE='AUTRE_ASTER',
                   RESULTAT=MODE_6M,
                   VALE_CALC=209.024818039,
                   VALE_REFE=210.55000000000001,
                   PRECISION=1.E-2,),
                _F(NUME_ORDRE=5,
                   PARA='FREQ',
                   REFERENCE='AUTRE_ASTER',
                   RESULTAT=MODE_6M,
                   VALE_CALC=591.000197180,
                   VALE_REFE=587.91999999999996,
                   PRECISION=1.E-2,),
                _F(NUME_ORDRE=6,
                   PARA='FREQ',
                   REFERENCE='AUTRE_ASTER',
                   RESULTAT=MODE_6M,
                   VALE_CALC=591.000197216,
                   VALE_REFE=587.91999999999996,
                   PRECISION=1.E-2,),
                ),
          )

FIN();
