# MODIF  DATE 26/09/2012   AUTEUR LEBOUVIER F.LEBOUVIER 
# TITRE ENVELOPPE SPHERIQUE EN ANALYSE MODALE
# sdls07c.para = tps_job 60 mem_job 512Mo ncpus 1 liste_test R
#            CONFIGURATION MANAGEMENT OF EDF VERSION
# ======================================================================
# COPYRIGHT (C) 1991 - 2012  EDF R&D                  WWW.CODE-ASTER.ORG
# THIS PROGRAM IS FREE SOFTWARE; YOU CAN REDISTRIBUTE IT AND/OR MODIFY
# IT UNDER THE TERMS OF THE GNU GENERAL PUBLIC LICENSE AS PUBLISHED BY
# THE FREE SOFTWARE FOUNDATION; EITHER VERSION 2 OF THE LICENSE, OR
# (AT YOUR OPTION) ANY LATER VERSION.
#
# THIS PROGRAM IS DISTRIBUTED IN THE HOPE THAT IT WILL BE USEFUL, BUT
# WITHOUT ANY WARRANTY; WITHOUT EVEN THE IMPLIED WARRANTY OF
# MERCHANTABILITY OR FITNESS FOR A PARTICULAR PURPOSE. SEE THE GNU
# GENERAL PUBLIC LICENSE FOR MORE DETAILS.
#
# YOU SHOULD HAVE RECEIVED A COPY OF THE GNU GENERAL PUBLIC LICENSE
# ALONG WITH THIS PROGRAM; IF NOT, WRITE TO EDF R&D CODE_ASTER,
#    1 AVENUE DU GENERAL DE GAULLE, 92141 CLAMART CEDEX, FRANCE.
# ======================================================================

DEBUT(CODE=_F(NOM='SDLS07C', NIV_PUB_WEB='INTERNET'), DEBUG=_F(SDVERI='OUI'))

#......................................................................
# MODELISATION COQUE_AXIS:   41 NOEUDS -- 20 MAILLES SEG3 ; KAPPA=1.E6
#              LOVE_KIRCHHOFF
#......................................................................



MAILL=LIRE_MAILLAGE(FORMAT='MED',   )

MAILL=DEFI_GROUP( reuse=MAILL,   MAILLAGE=MAILL,
  CREA_GROUP_MA=_F(  NOM = 'TOUT', TOUT = 'OUI'))

MATER=DEFI_MATERIAU( ELAS=_F(  E = 2.E+11,  NU = 0.3,  RHO = 7800.) )

CHMAT=AFFE_MATERIAU(  MAILLAGE=MAILL,
                            AFFE=_F( TOUT = 'OUI',   MATER = MATER) )

MODEL=AFFE_MODELE(    MAILLAGE=MAILL,
                            AFFE=_F( TOUT = 'OUI',   MODELISATION = 'COQUE_AXIS',
                            PHENOMENE = 'MECANIQUE') )

CARELEM=AFFE_CARA_ELEM(  MODELE=MODEL,
                   COQUE=_F(
       GROUP_MA = 'TOUT',
 EPAIS = 0.10,
                        A_CIS = 1.E2,  MODI_METRIQUE = 'NON') )

RIGELEM=CALC_MATR_ELEM(   MODELE=MODEL,
                                 CARA_ELEM=CARELEM,  CHAM_MATER=CHMAT,
                                 OPTION='RIGI_MECA' )

MASELEM=CALC_MATR_ELEM(   MODELE=MODEL,
                                 CARA_ELEM=CARELEM,  CHAM_MATER=CHMAT,
                                OPTION='MASS_MECA' )

NUM=NUME_DDL(   MATR_RIGI=RIGELEM,
                METHODE  ='MULT_FRONT',
                RENUM    ='MDA' ),

RIGASS=ASSE_MATRICE(   MATR_ELEM=RIGELEM,   NUME_DDL=NUM   )

MASASS=ASSE_MATRICE(   MATR_ELEM=MASELEM,   NUME_DDL=NUM   )

MODVIB=MODE_ITER_SIMULT(  MATR_RIGI=RIGASS,
                          MATR_MASS=MASASS,
                          CALC_FREQ=_F( OPTION = 'BANDE',  FREQ = (220., 540.,),)
                       )


MODITI=MODE_ITER_INV(     MATR_RIGI=RIGASS,  MATR_MASS=MASASS,
          CALC_FREQ=_F( NMAX_FREQ = 12, OPTION = 'AJUSTE', FREQ = (220., 540.,),
                     NMAX_ITER_AJUSTE = 20),
          CALC_MODE=_F( NMAX_ITER = 50)
            )


TEST_RESU(RESU=(
                 _F(   RESULTAT = MODVIB,PARA = 'FREQ',PRECISION = 1.E-2,
                         NUME_ORDRE = 1, VALE = 237.25),
                 _F(   RESULTAT = MODVIB,PARA = 'FREQ',PRECISION = 1.E-2,
                         NUME_ORDRE = 2, VALE = 282.85),
                 _F(   RESULTAT = MODVIB,PARA = 'FREQ',PRECISION = 1.E-2,
                         NUME_ORDRE = 3, VALE = 305.24),
                 _F(   RESULTAT = MODVIB,PARA = 'FREQ',PRECISION = 1.E-2,
                         NUME_ORDRE = 4, VALE = 324.17),
                 _F(   RESULTAT = MODVIB,PARA = 'FREQ',PRECISION = 1.E-2,
                         NUME_ORDRE = 5, VALE = 346.76),
                 _F(   RESULTAT = MODVIB,PARA = 'FREQ',PRECISION = 1.E-2,
                         NUME_ORDRE = 6, VALE = 376.68),
                 _F(   RESULTAT = MODVIB,PARA = 'FREQ',PRECISION = 1.E-2,
                         NUME_ORDRE = 7, VALE = 416.00),
                 _F(   RESULTAT = MODVIB,PARA = 'FREQ',PRECISION = 1.E-2,
                         NUME_ORDRE = 8, VALE = 465.75),
                 _F(   RESULTAT = MODVIB,PARA = 'FREQ',PRECISION = 1.E-2,
                         NUME_ORDRE = 9, VALE = 526.20))
                                                     )

TEST_RESU(RESU=(
                 _F(   RESULTAT = MODITI,PARA = 'FREQ',PRECISION = 1.E-2,
                         NUME_ORDRE = 1, VALE = 237.25),
                 _F(   RESULTAT = MODITI,PARA = 'FREQ',PRECISION = 1.E-2,
                         NUME_ORDRE = 2, VALE = 282.85),
                 _F(   RESULTAT = MODITI,PARA = 'FREQ',PRECISION = 1.E-2,
                         NUME_ORDRE = 3, VALE = 305.24),
                 _F(   RESULTAT = MODITI,PARA = 'FREQ',PRECISION = 1.E-2,
                         NUME_ORDRE = 4, VALE = 324.17),
                 _F(   RESULTAT = MODITI,PARA = 'FREQ',PRECISION = 1.E-2,
                         NUME_ORDRE = 5, VALE = 346.76),
                 _F(   RESULTAT = MODVIB,PARA = 'FREQ',PRECISION = 1.E-2,
                         NUME_ORDRE = 6, VALE = 376.68),
                 _F(   RESULTAT = MODVIB,PARA = 'FREQ',PRECISION = 1.E-2,
                         NUME_ORDRE = 7, VALE = 416.00),
                 _F(   RESULTAT = MODVIB,PARA = 'FREQ',PRECISION = 1.E-2,
                         NUME_ORDRE = 8, VALE = 465.75),
                 _F(   RESULTAT = MODVIB,PARA = 'FREQ',PRECISION = 1.E-2,
                         NUME_ORDRE = 9, VALE = 526.20))
                                                     )

FIN()
#






