# MODIF  DATE 03/10/2011   AUTEUR DURAND C.DURAND 
# TITRE AEROREFRIGERANT SOUMIS A UNE EXCITATION SOL
# sdls300a.para = tps_job 240 mem_job 128Mo ncpus 1 liste_test V
#            CONFIGURATION MANAGEMENT OF EDF VERSION
# ======================================================================
# COPYRIGHT (C) 1991 - 2011  EDF R&D                  WWW.CODE-ASTER.ORG
# THIS PROGRAM IS FREE SOFTWARE; YOU CAN REDISTRIBUTE IT AND/OR MODIFY
# IT UNDER THE TERMS OF THE GNU GENERAL PUBLIC LICENSE AS PUBLISHED BY
# THE FREE SOFTWARE FOUNDATION; EITHER VERSION 2 OF THE LICENSE, OR   
# (AT YOUR OPTION) ANY LATER VERSION.                                 
#
# THIS PROGRAM IS DISTRIBUTED IN THE HOPE THAT IT WILL BE USEFUL, BUT 
# WITHOUT ANY WARRANTY; WITHOUT EVEN THE IMPLIED WARRANTY OF          
# MERCHANTABILITY OR FITNESS FOR A PARTICULAR PURPOSE. SEE THE GNU    
# GENERAL PUBLIC LICENSE FOR MORE DETAILS.                            
#
# YOU SHOULD HAVE RECEIVED A COPY OF THE GNU GENERAL PUBLIC LICENSE   
# ALONG WITH THIS PROGRAM; IF NOT, WRITE TO EDF R&D CODE_ASTER,       
#    1 AVENUE DU GENERAL DE GAULLE, 92141 CLAMART CEDEX, FRANCE.      
# ======================================================================
# ELEMENTS  : QUAD4 DKT
# REFERENCE : SAMCEF
#-------------------------------------------------------------


DEBUT(CODE=_F( NOM = 'SDLS300A',NIV_PUB_WEB='INTERNET'))

MAYA=LIRE_MAILLAGE( )

#
# DEFINITION DU MODELE
#

STRUC=AFFE_MODELE(    MAILLAGE=MAYA,
                               AFFE=_F(  GROUP_MA = 'TOUT',
                                      MODELISATION = 'DKT',
                                      PHENOMENE = 'MECANIQUE'))

#
# DEFINITION DES PROPRIETES PHYSIQUES
#

ACIER=DEFI_MATERIAU(         
                         ELAS=_F(  RHO = 2244.,
                           NU = 0.166,
                           E = 2.76E10))

MATER=AFFE_MATERIAU(    MAILLAGE=MAYA,
                                 AFFE=_F(  GROUP_MA = 'TOUT',
                                        MATER = ACIER))

CARA=AFFE_CARA_ELEM(      MODELE=STRUC,
                                 COQUE=_F(  GROUP_MA = 'TOUT',
                                         EPAIS = 0.305)
                          )

#
# DEFINITION DES CONDITIONS AUX LIMITES
#

FIXA=AFFE_CHAR_MECA(      MODELE=STRUC,

                                       DDL_IMPO=_F(  GROUP_NO = 'FIXA',
                                               DX = 0.,
                                               DY = 0.,
                                               DZ = 0.,
                                               DRX = 0.,
                                               DRY = 0.,
                                               DRZ = 0.)
                          )

# CALCUL DES MATRICES ELEMENTAIRES DE RIGIDITE ET DE MASSE

K_ELEM=CALC_MATR_ELEM(        MODELE=STRUC,
                                 CARA_ELEM=CARA,
                                    CHARGE=FIXA,
                                CHAM_MATER=MATER,
                                   OPTION='RIGI_MECA' )

M_ELEM=CALC_MATR_ELEM(        MODELE=STRUC,
                                 CARA_ELEM=CARA,
                                    CHARGE=FIXA,
                                CHAM_MATER=MATER,
                                   OPTION='MASS_MECA' )

# NUMEROTATION

NUMERO=NUME_DDL(    MATR_RIGI=K_ELEM )

# ASSEMBLAGE DES MATRICES DE RIGIDITE ET DE MASSE


K_ASSE=ASSE_MATRICE(    MATR_ELEM=K_ELEM,
                             NUME_DDL=NUMERO  )

M_ASSE=ASSE_MATRICE(    MATR_ELEM=M_ELEM,
                             NUME_DDL=NUMERO   )

TABL_MAS=POST_ELEM(        MODELE=STRUC,
                          CHAM_MATER=MATER,
                           CARA_ELEM=CARA,
                          MASS_INER=_F(  TOUT = 'OUI')
                      )

MODE1=MACRO_MODE_MECA(    MATR_A=K_ASSE,
                          MATR_B=M_ASSE,
                          CALC_FREQ=_F(  FREQ_MIN = 1.,    
                                         FREQ_MAX = 7.,    
                                         COEF_DIM_ESPACE = 3,
                                         NB_BLOC_FREQ = 6),
                          NORM_MODE=_F(  NORME = 'TRAN_ROTA',),
                          FILTRE_MODE=_F(  CRIT_EXTR = 'MASS_EFFE_UN'),
                          IMPRESSION=_F(  CUMUL = 'OUI')
                       )

TEST_RESU(RESU=(
   _F(   RESULTAT = MODE1,
           PARA = 'FREQ',
           CRITERE = 'RELATIF',
           PRECISION = 1.E-7,
           NUME_MODE = 47,
           VALE = 2.800653445E+00,
           REFERENCE = 'NON_REGRESSION',
           VERSION = '5.4.4'),

   _F(   RESULTAT = MODE1,
           PARA = 'FREQ',
           CRITERE = 'RELATIF',
           PRECISION = 1.E-7,
           NUME_MODE = 48,
           VALE = 2.800653445E+00,
           REFERENCE = 'NON_REGRESSION',
           VERSION = '5.4.4'),

   _F(   RESULTAT = MODE1,
           PARA = 'FREQ',
           CRITERE = 'RELATIF',
           PRECISION = 1.E-7,
           NUME_MODE = 158,
           VALE = 5.924906673E+00,
           REFERENCE = 'NON_REGRESSION',
           VERSION = '5.4.4'),

   _F(   RESULTAT = MODE1,
           PARA = 'FREQ',
           CRITERE = 'RELATIF',
           PRECISION = 1.E-7,
           NUME_MODE = 159,
           VALE = 5.924906673E+00,
           REFERENCE = 'NON_REGRESSION',
           VERSION = '5.4.4'))
        )

FIN()
#
