# MODIF  DATE 23/02/2000   AUTEUR CIBHHPD P.DAVID 
# TITRE AUBE DE COMPRESSEUR ENCASTREE SUR UN BORD
#            CONFIGURATION MANAGEMENT OF EDF VERSION
# ======================================================================
# COPYRIGHT (C) 1991 - 2001  EDF R&D                  WWW.CODE-ASTER.ORG
# THIS PROGRAM IS FREE SOFTWARE; YOU CAN REDISTRIBUTE IT AND/OR MODIFY
# IT UNDER THE TERMS OF THE GNU GENERAL PUBLIC LICENSE AS PUBLISHED BY
# THE FREE SOFTWARE FOUNDATION; EITHER VERSION 2 OF THE LICENSE, OR   
# (AT YOUR OPTION) ANY LATER VERSION.                                 
#
# THIS PROGRAM IS DISTRIBUTED IN THE HOPE THAT IT WILL BE USEFUL, BUT 
# WITHOUT ANY WARRANTY; WITHOUT EVEN THE IMPLIED WARRANTY OF          
# MERCHANTABILITY OR FITNESS FOR A PARTICULAR PURPOSE. SEE THE GNU    
# GENERAL PUBLIC LICENSE FOR MORE DETAILS.                            
#
# YOU SHOULD HAVE RECEIVED A COPY OF THE GNU GENERAL PUBLIC LICENSE   
# ALONG WITH THIS PROGRAM; IF NOT, WRITE TO EDF R&D CODE_ASTER,       
#    1 AVENUE DU GENERAL DE GAULLE, 92141 CLAMART CEDEX, FRANCE.      
# ======================================================================

DEBUT(CODE=_F( NOM = 'SDLS102A',NIV_PUB_WEB='INTERNET'))

# AUBE DE COMPRESSEUR ENCASTREE SUR UN BORD   REF:MESURES DES FREQURNCES
#
# MODELISATION MEC3QU9H: 133 NOEUDS --  36 MAILLES QUAD9
#

MA=LIRE_MAILLAGE( )

MA=DEFI_GROUP( reuse=MA,   MAILLAGE=MA,
  CREA_GROUP_MA=_F(  NOM = 'TOUT', TOUT = 'OUI'))

MO=AFFE_MODELE(  MAILLAGE=MA, 
                  AFFE=_F(  TOUT = 'OUI',       PHENOMENE = 'MECANIQUE',
                         MODELISATION = 'COQUE_3D') )

CARELEM=AFFE_CARA_ELEM(   MODELE=MO,
                            COQUE=_F(  
       GROUP_MA = 'TOUT',
  EPAIS = 0.003048,
                                  A_CIS = 0.83333333333333) )

MAT=DEFI_MATERIAU( ELAS=_F(  E = 2.0685E+11,  NU = 0.3,  RHO = 7857.2) )

CHMAT=AFFE_MATERIAU(  MAILLAGE=MA, 
                       AFFE=_F(  TOUT = 'OUI',  MATER = MAT) )

#--------------------------------------------------------------------

CHCAS1=AFFE_CHAR_MECA(  MODELE=MO, 
           DDL_IMPO=_F(  GROUP_NO = 'BD',       DX = 0.,  DY = 0., DZ = 0.,
                                        DRX = 0., DRY = 0., DRZ = 0.) )

MACRO_MATR_ASSE(   MODELE=MO,           CARA_ELEM=CARELEM,
                       CHARGE=CHCAS1,       CHAM_MATER=CHMAT,
                      NUME_DDL=CO("NUM"),MATR_ASSE=(
                _F(  MATRICE = CO("MATASSR1"),  OPTION = 'RIGI_MECA'),
                          _F(  MATRICE = CO("MATASSM1"),  OPTION = 'MASS_MECA'))
                   )

#====================================================================
#                CALCUL MODAL

MODE=MODE_ITER_INV(  MATR_A=MATASSR1,      MATR_B=MATASSM1,
                     CALC_FREQ=_F(  FREQ = (80., 570.,))
                        )

TEST_RESU(RESU=(
   _F(   RESULTAT = MODE,        PARA = 'FREQ',
           CRITERE = 'RELATIF',     PRECISION = 5.E-2,
           NUME_ORDRE = 1,       VALE = 85.600),
   _F(   RESULTAT = MODE,        PARA = 'FREQ',
           CRITERE = 'RELATIF',     PRECISION = 5.E-2,
           NUME_ORDRE = 2,       VALE = 134.500),
   _F(   RESULTAT = MODE,        PARA = 'FREQ',
           CRITERE = 'RELATIF',     PRECISION = 5.E-2,
           NUME_ORDRE = 3,       VALE = 259.000),
   _F(   RESULTAT = MODE,        PARA = 'FREQ',
           CRITERE = 'RELATIF',     PRECISION = 5.E-2,
           NUME_ORDRE = 4,       VALE = 351.000),
   _F(   RESULTAT = MODE,        PARA = 'FREQ',
           CRITERE = 'RELATIF',     PRECISION = 5.E-2,
           NUME_ORDRE = 5,       VALE = 395.000),
   _F(   RESULTAT = MODE,        PARA = 'FREQ',
           CRITERE = 'RELATIF',     PRECISION = 5.E-2,
           NUME_ORDRE = 6,       VALE = 531.000))
          )

#====================================================================
FIN()
#
