
DEBUT(CODE=_F(
NIV_PUB_WEB='INTERNET',),DEBUG=_F(SDVERI='OUI'))
# TITRE DYNAMIQUE D'UNE FISSURE FINIE STATIONNAIRE DANS UN MILIEU
# ======================================================================
# COPYRIGHT (C) 1991 - 2012  EDF R&D                  WWW.CODE-ASTER.ORG
# THIS PROGRAM IS FREE SOFTWARE; YOU CAN REDISTRIBUTE IT AND/OR MODIFY
# IT UNDER THE TERMS OF THE GNU GENERAL PUBLIC LICENSE AS PUBLISHED BY
# THE FREE SOFTWARE FOUNDATION; EITHER VERSION 2 OF THE LICENSE, OR
# (AT YOUR OPTION) ANY LATER VERSION.
#
# THIS PROGRAM IS DISTRIBUTED IN THE HOPE THAT IT WILL BE USEFUL, BUT
# WITHOUT ANY WARRANTY; WITHOUT EVEN THE IMPLIED WARRANTY OF
# MERCHANTABILITY OR FITNESS FOR A PARTICULAR PURPOSE. SEE THE GNU
# GENERAL PUBLIC LICENSE FOR MORE DETAILS.
#
# YOU SHOULD HAVE RECEIVED A COPY OF THE GNU GENERAL PUBLIC LICENSE
# ALONG WITH THIS PROGRAM; IF NOT, WRITE TO EDF R&D CODE_ASTER,
#    1 AVENUE DU GENERAL DE GAULLE, 92141 CLAMART CEDEX, FRANCE.
# ======================================================================
# INFINI EN 3D SOUMISE A UNE PRESSION

MAIL=LIRE_MAILLAGE(FORMAT='MED',);

MAIL=DEFI_GROUP(reuse =MAIL,
                MAILLAGE=MAIL,
                CREA_GROUP_NO=_F(GROUP_MA=('SP1P111','SP2P4','LP4P8','LP2P7'),),);

IMPR_RESU(FORMAT='MED',RESU=_F(MAILLAGE=MAIL))

MODELE=AFFE_MODELE(MAILLAGE=MAIL,
                   AFFE=(_F(GROUP_MA=('VTOT',),
                            PHENOMENE='MECANIQUE',
                            MODELISATION='3D',),
                         _F(GROUP_MA=('SP4P41','SP111P41',),
                            PHENOMENE='MECANIQUE',
                            MODELISATION='3D_ABSO',),),);


acier=DEFI_MATERIAU(ELAS=_F(E=200000000000.0,
                            NU=0.3,
                            RHO=7500.0,),);


CHAMPMAT=AFFE_MATERIAU(MAILLAGE=MAIL,
                       AFFE=(_F(GROUP_MA=('VTOT',),
                                MATER=acier,),),);

CH_P=AFFE_CHAR_MECA(MODELE=MODELE,
                        DDL_IMPO=(_F(GROUP_NO='SP2P4',
                                     DY=0.0,),
                                   _F(GROUP_NO='SP1P111',
                                      DX=0.0,),
                                   _F(GROUP_MA=('SUT2','SUT',),
                                      DZ=0.0,),
                                  _F(GROUP_NO='LP4P8',
                                     DX=0.0,DY=0.0,),),
                        PRES_REP=_F(GROUP_MA='SP1P2',
                                    PRES=100000000.0,),);

FONC=DEFI_FONCTION(NOM_PARA='INST',
                   VALE=(0.0,0.0,1.E-6,1.0,0.02,1.0,),);

TEMPLI=DEFI_LIST_REEL(DEBUT=0.0,
                      INTERVALLE=_F(JUSQU_A=0.02,
                                    NOMBRE=1000,),);

RIGIEL=CALC_MATR_ELEM( MODELE=MODELE,
                       CHAM_MATER=CHAMPMAT,
                       CHARGE=CH_P,
                       OPTION='RIGI_MECA')

MASSEL=CALC_MATR_ELEM( MODELE=MODELE,
                       CHAM_MATER=CHAMPMAT,
                       OPTION='MASS_MECA')

AMOR_ELE=CALC_MATR_ELEM(    MODELE=MODELE,
                              OPTION='AMOR_MECA',
                              CHAM_MATER=CHAMPMAT,
                              RIGI_MECA = RIGIEL,
                              MASS_MECA = MASSEL,
                              CHARGE=CH_P
                            )

NUMEROTA=NUME_DDL( MATR_RIGI=RIGIEL)

RIGI=ASSE_MATRICE( MATR_ELEM=RIGIEL,
                   NUME_DDL=NUMEROTA
                  )

MASSE=ASSE_MATRICE( MATR_ELEM=MASSEL,
                   NUME_DDL=NUMEROTA
                  )

AMORT=ASSE_MATRICE( MATR_ELEM=AMOR_ELE,
                    NUME_DDL=NUMEROTA
                  )

#-----------------------------------------------------------------------
# 1 -ER NON AMORTI
evol=DYNA_VIBRA(TYPE_CALCUL='TRAN',BASE_CALCUL='PHYS',
                       MODELE=MODELE,
                       CHAM_MATER=CHAMPMAT,
                       MATR_MASS=MASSE,
                       MATR_RIGI=RIGI,
                       MATR_AMOR=AMORT,
                       SCHEMA_TEMPS=_F(SCHEMA='NEWMARK',),
                       EXCIT=_F(CHARGE=CH_P,
                                FONC_MULT=FONC,),
                       INCREMENT=_F(LIST_INST=TEMPLI,),
                       ARCHIVAGE=_F(PAS_ARCH=20,),);

FF=DEFI_FOND_FISS( MAILLAGE=MAIL,
                   FOND_FISS=_F( GROUP_NO='LP2P7',),
                   SYME='OUI',
                   LEVRE_SUP=_F(GROUP_MA='SP1P2',),
                  )

THETA1=CALC_THETA( MODELE=MODELE,
                   FOND_FISS=FF,
                   DIRECTION=(1.,0.,0.,),
                   THETA_3D=_F (GROUP_NO='LP2P7',
                                MODULE = 1. ,
                                R_INF = 3.,
                                R_SUP = 10.)
                               )

THETA2=CALC_THETA( MODELE=MODELE,
                   FOND_FISS=FF,
                   DIRECTION=(1.,0.,0.,),
                   THETA_3D=_F (GROUP_NO='LP2P7',
                                MODULE = 1. ,
                                R_INF = 5.,
                                R_SUP = 15.)
                               )

THETA3=CALC_THETA( MODELE=MODELE,
                   FOND_FISS=FF,
                   DIRECTION=(1.,0.,0.,),
                   THETA_3D=_F (GROUP_NO='LP2P7',
                                MODULE = 1. ,
                                R_INF = 5.,
                                R_SUP = 18.)
                               )

G1=CALC_G(          OPTION='CALC_G_GLOB',
                    RESULTAT=evol,
                    TOUT_ORDRE='OUI',
                    THETA=_F(THETA=THETA1,SYME='OUI'),
                    EXCIT=_F(CHARGE=CH_P,),
                  )

GL1=CALC_G(         THETA=_F(FOND_FISS=FF,
                             R_INF = 3.,
                             R_SUP = 10.),
                    RESULTAT=evol,
                    TOUT_ORDRE='OUI',
                    EXCIT=_F(CHARGE=CH_P,),
                    LISSAGE=_F(LISSAGE_THETA='LAGRANGE',LISSAGE_G='LAGRANGE'),
                  )

# ICI IL FAUT FOURNIR LA DIRECTION CAR LE FOND FF N'EST DEFINI QUE PAR DES NOEUDS
# DONC ON NE CONNAIT PAS LE SENS DE LA DIRECTION DU CHAMP THETA
# (RQ : CELA EST CORRECT CAR LE FOND DE FISSURE EST DROIT)
GL11=CALC_G(         THETA=_F( DIRECTION=(1.,0.,0.,),
                               FOND_FISS=FF,
                               R_INF = 3.,
                               R_SUP = 10.),
                    RESULTAT=evol,
                    NUME_ORDRE=50,
                    EXCIT=_F(CHARGE=CH_P,),
                    LISSAGE=_F(LISSAGE_THETA='LAGRANGE',
                              DEGRE = 2),
                  )

G2=CALC_G(          OPTION='CALC_G_GLOB',
                    RESULTAT=evol,
                    TOUT_ORDRE='OUI',
                    THETA=_F(THETA=THETA2,SYME='OUI'),
                    EXCIT=_F(CHARGE=CH_P,),
                  )

G3=CALC_G(          RESULTAT=evol,
                    OPTION='CALC_G_GLOB',
                    TOUT_ORDRE='OUI',
                    THETA=_F(THETA=THETA3,SYME='OUI'),
                    EXCIT=_F(CHARGE=CH_P,),
                  )

IMPR_TABLE ( TABLE   = G1  );

IMPR_TABLE ( TABLE   = GL1 );

IMPR_TABLE ( TABLE   = GL11 );

IMPR_TABLE ( TABLE   = G2  );

IMPR_TABLE ( TABLE   = G3  );

#

TEST_TABLE(REFERENCE='ANALYTIQUE',
           PRECISION=0.014,
           VALE_CALC= 5.64807008E+06,
           VALE_REFE=5.677000E6,
           NOM_PARA='G',
           TABLE=G1,
           FILTRE=_F(NOM_PARA='NUME_ORDRE',
                     VALE_I=5,),
           )

TEST_TABLE(REFERENCE='ANALYTIQUE',
           PRECISION=0.014,
           VALE_CALC= 1.12973435E+07,
           VALE_REFE=1.1350000E7,
           NOM_PARA='G',
           TABLE=G1,
           FILTRE=_F(NOM_PARA='NUME_ORDRE',
                     VALE_I=10,),
           )

TEST_TABLE(REFERENCE='ANALYTIQUE',
           PRECISION=0.014,
           VALE_CALC= 1.68312143E+07,
           VALE_REFE=1.7030000E7,
           NOM_PARA='G',
           TABLE=G1,
           FILTRE=_F(NOM_PARA='NUME_ORDRE',
                     VALE_I=15,),
           )

TEST_TABLE(REFERENCE='ANALYTIQUE',
           PRECISION=0.014,
           VALE_CALC= 5.69165277E+06,
           VALE_REFE=5.677000E6,
           NOM_PARA='G',
           TABLE=G2,
           FILTRE=_F(NOM_PARA='NUME_ORDRE',
                     VALE_I=5,),
           )

TEST_TABLE(REFERENCE='ANALYTIQUE',
           PRECISION=0.014,
           VALE_CALC= 1.13176716E+07,
           VALE_REFE=1.1350000E7,
           NOM_PARA='G',
           TABLE=G2,
           FILTRE=_F(NOM_PARA='NUME_ORDRE',
                     VALE_I=10,),
           )

TEST_TABLE(REFERENCE='ANALYTIQUE',
           PRECISION=0.014,
           VALE_CALC= 1.68567971E+07,
           VALE_REFE=1.7030000E7,
           NOM_PARA='G',
           TABLE=G2,
           FILTRE=_F(NOM_PARA='NUME_ORDRE',
                     VALE_I=15,),
           )

TEST_TABLE(REFERENCE='NON_DEFINI',
           PRECISION=0.014,
           VALE_CALC= 4.03453978E+06,
           VALE_REFE=4.034500E6,
           NOM_PARA='G',
           TABLE=GL11,
           FILTRE=_F(NOM_PARA='ABSC_CURV',
                     VALE=5.0,),
           )

FIN();
