# MODIF  DATE 17/01/2012   AUTEUR SELLENET N.SELLENET 
# TITRE CALCUL DES FREQUENCES PROPRES D'UNE SPHERE PLEINE LIBRE-LIBRE
#            CONFIGURATION MANAGEMENT OF EDF VERSION
# ======================================================================
# COPYRIGHT (C) 1991 - 2012  EDF R&D                  WWW.CODE-ASTER.ORG
# THIS PROGRAM IS FREE SOFTWARE; YOU CAN REDISTRIBUTE IT AND/OR MODIFY
# IT UNDER THE TERMS OF THE GNU GENERAL PUBLIC LICENSE AS PUBLISHED BY
# THE FREE SOFTWARE FOUNDATION; EITHER VERSION 2 OF THE LICENSE, OR   
# (AT YOUR OPTION) ANY LATER VERSION.                                 
#
# THIS PROGRAM IS DISTRIBUTED IN THE HOPE THAT IT WILL BE USEFUL, BUT 
# WITHOUT ANY WARRANTY; WITHOUT EVEN THE IMPLIED WARRANTY OF          
# MERCHANTABILITY OR FITNESS FOR A PARTICULAR PURPOSE. SEE THE GNU    
# GENERAL PUBLIC LICENSE FOR MORE DETAILS.                            
#
# YOU SHOULD HAVE RECEIVED A COPY OF THE GNU GENERAL PUBLIC LICENSE   
# ALONG WITH THIS PROGRAM; IF NOT, WRITE TO EDF R&D CODE_ASTER,       
#    1 AVENUE DU GENERAL DE GAULLE, 92141 CLAMART CEDEX, FRANCE.      
# ======================================================================
# ELEMENTS  : HEXA8
# REFERENCE : SAMCEF

DEBUT(CODE=_F( NOM = 'SDLV401A',NIV_PUB_WEB='INTERNET'))

ACIER=DEFI_MATERIAU(          
                         ELAS=_F(  RHO = 10000.,  
                           NU = 0.3, 
                           E = 1.E8))

MAYA=LIRE_MAILLAGE(FORMAT='MED', )

MATER=AFFE_MATERIAU(    MAILLAGE=MAYA, 
                                 AFFE=_F(  TOUT = 'OUI', 
                                        MATER = ACIER))

STRUCTUR=AFFE_MODELE(    MAILLAGE=MAYA,
                               AFFE=_F(  TOUT = 'OUI', 
                                      MODELISATION = '3D', 
                                      PHENOMENE = 'MECANIQUE'))

# CALCUL DES MATRICES ELEMENTAIRES DE RIGIDITE ET DE MASSE

K_ELEM=CALC_MATR_ELEM(        MODELE=STRUCTUR,
                                CHAM_MATER=MATER, 
                                   OPTION='RIGI_MECA' )

M_ELEM=CALC_MATR_ELEM(        MODELE=STRUCTUR,
                                CHAM_MATER=MATER, 
                                   OPTION='MASS_MECA' )

# NUMEROTATION

NUMERO=NUME_DDL(    MATR_RIGI=K_ELEM )

# ASSEMBLAGE DES MATRICES DE RIGIDITE ET DE MASSE


K_ASSE=ASSE_MATRICE(    MATR_ELEM=K_ELEM, 
                             NUME_DDL=NUMERO )

M_ASSE=ASSE_MATRICE(    MATR_ELEM=M_ELEM, 
                             NUME_DDL=NUMERO )

# CALCUL DES MODES

MODES=MODE_ITER_SIMULT(       MATR_A=K_ASSE, 
                                   MATR_B=M_ASSE, 
                               CALC_FREQ=_F(  OPTION = 'BANDE', 
                                           FREQ = ( 1., 3000., )))

TEST_RESU(RESU=(
   _F(   RESULTAT = MODES,
           PARA = 'FREQ',
           CRITERE = 'RELATIF',
           PRECISION = 1.E-4,
           NUME_MODE = 7,
           VALE = 2542.31,     
           REFERENCE = 'SOURCE_EXTERNE'),

   _F(   RESULTAT = MODES,
           PARA = 'FREQ',
           CRITERE = 'RELATIF',
           PRECISION = 1.E-4,
           NUME_MODE = 8,
           VALE = 2542.31,      
           REFERENCE = 'SOURCE_EXTERNE'),

   _F(   RESULTAT = MODES,
           PARA = 'FREQ',
           CRITERE = 'RELATIF',
           PRECISION = 1.E-4,
           NUME_MODE = 9,
           VALE = 2607.47,   
           REFERENCE = 'SOURCE_EXTERNE'),

   _F(   RESULTAT = MODES,
           PARA = 'FREQ',
           CRITERE = 'RELATIF',
           PRECISION = 1.E-4,
           NUME_MODE = 10,
           VALE = 2607.47,      
           REFERENCE = 'SOURCE_EXTERNE'),

   _F(   RESULTAT = MODES,
           PARA = 'FREQ',
           CRITERE = 'RELATIF',
           PRECISION = 1.E-4,
           NUME_MODE = 11,
           VALE = 2607.47,   
           REFERENCE = 'SOURCE_EXTERNE'),

   _F(   RESULTAT = MODES,
           PARA = 'FREQ',
           CRITERE = 'RELATIF',
           PRECISION = 1.E-4,
           NUME_MODE = 12,
           VALE = 2740.95,    
           REFERENCE = 'SOURCE_EXTERNE'),

   _F(   RESULTAT = MODES,
           PARA = 'FREQ',
           CRITERE = 'RELATIF',
           PRECISION = 1.E-4,
           NUME_MODE = 13,
           VALE = 2740.95,     
           REFERENCE = 'SOURCE_EXTERNE'),

   _F(   RESULTAT = MODES,
           PARA = 'FREQ',
           CRITERE = 'RELATIF',
           PRECISION = 1.E-4,
           NUME_MODE = 14,
           VALE = 2740.95,    
           REFERENCE = 'SOURCE_EXTERNE'),

   _F(   RESULTAT = MODES,
           PARA = 'FREQ',
           CRITERE = 'RELATIF',
           PRECISION = 1.E-4,
           NUME_MODE = 15,
           VALE = 2763.13,    
           REFERENCE = 'SOURCE_EXTERNE'),

   _F(   RESULTAT = MODES,
           PARA = 'FREQ',
           CRITERE = 'RELATIF',
           PRECISION = 1.E-4,
           NUME_MODE = 16,
           VALE = 2763.13,     
           REFERENCE = 'SOURCE_EXTERNE'))

          )

FIN()
#
