# TITRE PRISE EN COMPTE D'UN MASSIF GENERALISE DANS LES ETUDES DE ROTORS
# ======================================================================
# COPYRIGHT (C) 1991 - 2012  EDF R&D                  WWW.CODE-ASTER.ORG
# THIS PROGRAM IS FREE SOFTWARE; YOU CAN REDISTRIBUTE IT AND/OR MODIFY  
# IT UNDER THE TERMS OF THE GNU GENERAL PUBLIC LICENSE AS PUBLISHED BY  
# THE FREE SOFTWARE FOUNDATION; EITHER VERSION 2 OF THE LICENSE, OR     
# (AT YOUR OPTION) ANY LATER VERSION.                                                    
#                                                                       
# THIS PROGRAM IS DISTRIBUTED IN THE HOPE THAT IT WILL BE USEFUL, BUT   
# WITHOUT ANY WARRANTY; WITHOUT EVEN THE IMPLIED WARRANTY OF            
# MERCHANTABILITY OR FITNESS FOR A PARTICULAR PURPOSE. SEE THE GNU      
# GENERAL PUBLIC LICENSE FOR MORE DETAILS.                              
#                                                                       
# YOU SHOULD HAVE RECEIVED A COPY OF THE GNU GENERAL PUBLIC LICENSE     
# ALONG WITH THIS PROGRAM; IF NOT, WRITE TO EDF R&D CODE_ASTER,         
#    1 AVENUE DU GENERAL DE GAULLE, 92141 CLAMART CEDEX, FRANCE.        
# ======================================================================
# person_in_charge: mohamed.torkhani at edf.fr
#

DEBUT(CODE=_F(
              NIV_PUB_WEB='INTERNET',
              VISU_EFICAS='OUI',),
              PAR_LOT='OUI',
              DEBUG=_F(SDVERI='OUI'),);

MAIL=LIRE_MAILLAGE(FORMAT='MED',)

MAIL=DEFI_GROUP(reuse=MAIL,   
                MAILLAGE=MAIL,
                CREA_GROUP_NO=_F(GROUP_MA = ('ROTOR')),
                );

MODELE=AFFE_MODELE(MAILLAGE=MAIL,
                   AFFE=(_F(GROUP_MA=('ROTOR','MASSIF'),
                           PHENOMENE='MECANIQUE',
                           MODELISATION='POU_D_T',),
                         _F(GROUP_MA=('PALIER1','PALIER2'),
                           PHENOMENE='MECANIQUE',
                           MODELISATION='DIS_TR',),
                         )
                       )

ACIER=DEFI_MATERIAU(ELAS=_F(E=2.1E11,
                            NU=0.,
                            RHO=7800.,),);



CHMAT=AFFE_MATERIAU(MAILLAGE=MAIL,
                    AFFE=(_F(GROUP_MA=('ROTOR','MASSIF'),
                            MATER=ACIER,),))

CARELEM=AFFE_CARA_ELEM(INFO=1,
                       POUTRE=(_F(GROUP_MA='ROTOR',
                                 SECTION='CERCLE',
                                 VALE=(0.1),
                                 CARA=('R'),),
                               _F(GROUP_MA='MASSIF',
                                 SECTION='CERCLE',
                                 VALE=(0.4),
                                 CARA=('R'),),
                               ),
                       DISCRET=(_F(GROUP_MA='PALIER1',
                                   CARA='K_TR_D_L',
                                   VALE=(0.0,1.E12,1.E12,0.0,0.0,0.0,),),
                                 _F(GROUP_MA='PALIER1',
                                   CARA='M_TR_L',
                                   VALE=(0.,0.,0.,0.,0.,0.,0.,0.,0.,0.,0.,0.,0.,0.,0.,0.,0.,0.,0.,0.,
                                   0.,0.,0.,0.,0.,0.,0.,0.,0.,0.,0.,0.,0.,0.,0.,0.,0.,0.,0.,0.,
                                   0.,0.,0.,0.,0.,0.,0.,0.,0.,0.,0.,0.,0.,0.,0.,0.,0.,0.,0.,0.,
                                   0.,0.,0.,0.,0.,0.,0.,0.,0.,0.,0.,0.,0.,0.,0.,0.,0.,0.,),),
                                _F(GROUP_MA='PALIER2',
                                   CARA='K_TR_D_L',
                                   VALE=(0.0,1.E12,1.E12,0.0,0.0,0.0,),),
                                 _F(GROUP_MA='PALIER2',
                                   CARA='M_TR_L',
                                   VALE=(0.,0.,0.,0.,0.,0.,0.,0.,0.,0.,0.,0.,0.,0.,0.,0.,0.,0.,0.,0.,
                                   0.,0.,0.,0.,0.,0.,0.,0.,0.,0.,0.,0.,0.,0.,0.,0.,0.,0.,0.,0.,
                                   0.,0.,0.,0.,0.,0.,0.,0.,0.,0.,0.,0.,0.,0.,0.,0.,0.,0.,0.,0.,
                                   0.,0.,0.,0.,0.,0.,0.,0.,0.,0.,0.,0.,0.,0.,0.,0.,0.,0.,),),
                                _F(GROUP_MA='PALIER1',
                                   CARA='A_TR_D_L',
                                   VALE=(0.0,0.0,0.0,0.0,0.0,0.0,),),
                                _F(GROUP_MA='PALIER2',
                                   CARA='A_TR_D_L',
                                   VALE=(0.0,0.0,0.0,0.0,0.0,0.0,),),
                                ),
                       MODELE=MODELE,
                       );
                                 
BLOQUAGE=AFFE_CHAR_MECA(MODELE=MODELE,
                       DDL_IMPO=(_F(GROUP_NO=('BLOC'),
                                   DX=0, DY=0, DZ=0,
                                   DRX=0, DRY=0, DRZ=0,),
                                   ),
                       );
                                    
ASSEMBLAGE(MODELE=MODELE,
                CHAM_MATER=CHMAT,
                CARA_ELEM=CARELEM,
                CHARGE=BLOQUAGE,
                NUME_DDL=CO('NUMEDDL'),
                MATR_ASSE=(_F(MATRICE=CO('RIGIDITE'),
                              OPTION='RIGI_MECA',),
                           _F(MATRICE=CO('MASSE'),
                              OPTION='MASS_MECA',),
                           _F(MATRICE=CO('GYASS'),
                              OPTION='MECA_GYRO',),
                           _F(MATRICE=CO('AMOR'),
                              OPTION='AMOR_MECA',),),
                );

MODES=CALC_MODES(MATR_RIGI=RIGIDITE,
                 VERI_MODE=_F(STOP_ERREUR='NON',
                              SEUIL=9.9999999999999995E-07,
                              ),
                 OPTION='BANDE',
                 CALC_FREQ=_F(FREQ=(100.,400.),
                              ),
                 MATR_MASS=MASSE,
                 )

TEST_RESU(RESU=(_F(NUME_ORDRE=1,
                   PARA='FREQ',
                   REFERENCE='SOURCE_EXTERNE',
                   RESULTAT=MODES,
                   VALE_CALC=100.675702327,
                   VALE_REFE=100.717,
                   CRITERE='RELATIF',
                   PRECISION=1.E-2,),
                _F(NUME_ORDRE=2,
                   PARA='FREQ',
                   REFERENCE='SOURCE_EXTERNE',
                   RESULTAT=MODES,
                   VALE_CALC=100.827931231,
                   VALE_REFE=100.866,
                   CRITERE='RELATIF',
                   PRECISION=1.E-2,),
                _F(NUME_ORDRE=3,
                   PARA='FREQ',
                   REFERENCE='SOURCE_EXTERNE',
                   RESULTAT=MODES,
                   VALE_CALC=219.250238256,
                   VALE_REFE=221.06399999999999,
                   CRITERE='RELATIF',
                   PRECISION=1.E-2,),
                _F(NUME_ORDRE=4,
                   PARA='FREQ',
                   REFERENCE='SOURCE_EXTERNE',
                   RESULTAT=MODES,
                   VALE_CALC=256.711015116,
                   VALE_REFE=259.14299999999997,
                   CRITERE='RELATIF',
                   PRECISION=1.E-2,),
                _F(NUME_ORDRE=5,
                   PARA='FREQ',
                   REFERENCE='SOURCE_EXTERNE',
                   RESULTAT=MODES,
                   VALE_CALC=340.422534664,
                   VALE_REFE=342.98099999999999,
                   CRITERE='RELATIF',
                   PRECISION=1.E-2,),
                _F(NUME_ORDRE=6,
                   PARA='FREQ',
                   REFERENCE='SOURCE_EXTERNE',
                   RESULTAT=MODES,
                   VALE_CALC=391.994426993,
                   VALE_REFE=392.524,
                   CRITERE='RELATIF',
                   PRECISION=1.E-2,),
                _F(NUME_ORDRE=7,
                   PARA='FREQ',
                   REFERENCE='SOURCE_EXTERNE',
                   RESULTAT=MODES,
                   VALE_CALC=396.857080883,
                   VALE_REFE=397.55599999999998,
                   CRITERE='RELATIF',
                   PRECISION=1.E-2,),
                ),
          )

MODEN=NORM_MODE(MODE=MODES,
                 NORME='EUCL_TRAN',);


MA1=LIRE_MAILLAGE(UNITE=22);
#--------------------------------------------------------------------

MO1=AFFE_MODELE(MAILLAGE=MA1,
                AFFE=_F(TOUT='OUI',
                        PHENOMENE='MECANIQUE',
                        MODELISATION='POU_D_T',),);
#--------------------------------------------------------------------

CARELEM1=AFFE_CARA_ELEM(MODELE=MO1,
                        POUTRE=_F(GROUP_MA='MASSIF',
                                  SECTION='CERCLE',
                                  CARA=('R',),
                                  VALE=(0.4,),),);
#--------------------------------------------------------------------

MAT1=DEFI_MATERIAU(ELAS=_F(E=2.1E11,
                          NU=0.,
                          RHO=7800.,
                          ),);
# ---------------------------------------------------------------------

CHMAT1=AFFE_MATERIAU(MAILLAGE=MA1,
                     AFFE=_F(TOUT='OUI',
                             MATER=MAT1,),);

CH1_CB=AFFE_CHAR_MECA(MODELE=MO1,
                   DDL_IMPO=(_F(GROUP_NO='BLOC',
                               DX=0.0,
                               DY=0.0,
                               DZ=0.0,
                               DRX=0.0,
                               DRY=0.0,
                               DRZ=0.0,),
                            _F(GROUP_NO=('NOPAL1','NOPAL2'),
                               DX=0.0,
                               DY=0.0,
                               DZ=0.0,
                               DRX=0.0,
                               DRY=0.0,
                               DRZ=0.0,),
                             ),
                             );

CH1_MN=AFFE_CHAR_MECA(MODELE=MO1,
                   DDL_IMPO=(_F(GROUP_NO='BLOC',
                               DX=0.0,
                               DY=0.0,
                               DZ=0.0,
                               DRX=0.0,
                               DRY=0.0,
                               DRZ=0.0,),
                             ),
                             );
# ------------------------------------------------------------------
# CALCULS DES MATRICES
#----------------------------------------------------------------

MELR1_CB=CALC_MATR_ELEM(OPTION='RIGI_MECA',
                     MODELE=MO1,
                     CHAM_MATER=CHMAT1,
                     CARA_ELEM=CARELEM1,
                     CHARGE=CH1_CB,);

MELM1_CB=CALC_MATR_ELEM(OPTION='MASS_MECA',
                     MODELE=MO1,
                     CHAM_MATER=CHMAT1,
                     CARA_ELEM=CARELEM1,
                     CHARGE=CH1_CB,);

NUM1_CB=NUME_DDL(MATR_RIGI=MELR1_CB,
              METHODE='LDLT',);

ASSR1_CB=ASSE_MATRICE(MATR_ELEM=MELR1_CB,
                      NUME_DDL=NUM1_CB,);

ASSM1_CB=ASSE_MATRICE(MATR_ELEM=MELM1_CB,
                      NUME_DDL=NUM1_CB,);

MELR1_MN=CALC_MATR_ELEM(OPTION='RIGI_MECA',
                     MODELE=MO1,
                     CHAM_MATER=CHMAT1,
                     CARA_ELEM=CARELEM1,
                     CHARGE=CH1_MN,);

MELM1_MN=CALC_MATR_ELEM(OPTION='MASS_MECA',
                     MODELE=MO1,
                     CHAM_MATER=CHMAT1,
                     CARA_ELEM=CARELEM1,
                     CHARGE=CH1_MN,);

NUM1_MN=NUME_DDL(MATR_RIGI=MELR1_MN,
              METHODE='LDLT',);

ASSR1_MN=ASSE_MATRICE(MATR_ELEM=MELR1_MN,
                      NUME_DDL=NUM1_MN,);

ASSM1_MN=ASSE_MATRICE(MATR_ELEM=MELM1_MN,
                      NUME_DDL=NUM1_MN,);
#--------------------------------------------------------------------
#                      CALCUL MODAL
#--------------------------------------------------------------------

MODE1_CB=CALC_MODES(MATR_RIGI=ASSR1_CB,
                    VERI_MODE=_F(STOP_ERREUR='NON',
                                 SEUIL=9.9999999999999995E-07,
                                 ),
                    OPTION='BANDE',
                    CALC_FREQ=_F(FREQ=(200.,800.),
                                 ),
                    MATR_MASS=ASSM1_CB,
                    )

MODE1_MN=CALC_MODES(MATR_RIGI=ASSR1_MN,
                    VERI_MODE=_F(STOP_ERREUR='NON',
                                 SEUIL=9.9999999999999995E-07,
                                 ),
                    OPTION='BANDE',
                    CALC_FREQ=_F(FREQ=(200.,800.),
                                 ),
                    MATR_MASS=ASSM1_MN,
                    )

TEST_RESU(RESU=(_F(NUME_ORDRE=1,
                   PARA='FREQ',
                   RESULTAT=MODE1_CB,
                   VALE_CALC=515.01015597596995,
                   CRITERE='RELATIF',
                   ),
                _F(NUME_ORDRE=2,
                   PARA='FREQ',
                   RESULTAT=MODE1_CB,
                   VALE_CALC=515.01481211797,
                   CRITERE='RELATIF',
                   ),
                _F(NUME_ORDRE=3,
                   PARA='FREQ',
                   RESULTAT=MODE1_CB,
                   VALE_CALC=520.40186719459996,
                   CRITERE='RELATIF',
                   ),
                _F(NUME_ORDRE=4,
                   PARA='FREQ',
                   RESULTAT=MODE1_CB,
                   VALE_CALC=520.40649906900001,
                   CRITERE='RELATIF',
                   ),
                _F(NUME_ORDRE=5,
                   PARA='FREQ',
                   RESULTAT=MODE1_CB,
                   VALE_CALC=772.74772958870005,
                   CRITERE='RELATIF',
                   ),
                _F(NUME_ORDRE=6,
                   PARA='FREQ',
                   RESULTAT=MODE1_CB,
                   VALE_CALC=772.77340521670999,
                   CRITERE='RELATIF',
                   ),
                ),
          )

TEST_RESU(RESU=(_F(NUME_ORDRE=1,
                   PARA='FREQ',
                   REFERENCE='SOURCE_EXTERNE',
                   RESULTAT=MODE1_MN,
                   VALE_CALC=219.224857221,
                   VALE_REFE=221.04499999999999,
                   CRITERE='RELATIF',
                   PRECISION=1.E-2,),
                _F(NUME_ORDRE=2,
                   PARA='FREQ',
                   REFERENCE='SOURCE_EXTERNE',
                   RESULTAT=MODE1_MN,
                   VALE_CALC=256.714566653,
                   VALE_REFE=259.14699999999999,
                   CRITERE='RELATIF',
                   PRECISION=1.E-2,),
                _F(NUME_ORDRE=3,
                   PARA='FREQ',
                   REFERENCE='SOURCE_EXTERNE',
                   RESULTAT=MODE1_MN,
                   VALE_CALC=344.965486940,
                   VALE_REFE=347.70600000000002,
                   CRITERE='RELATIF',
                   PRECISION=1.E-2,),
                _F(NUME_ORDRE=4,
                   PARA='FREQ',
                   REFERENCE='SOURCE_EXTERNE',
                   RESULTAT=MODE1_MN,
                   VALE_CALC=417.655421394,
                   VALE_REFE=420.21499999999997,
                   CRITERE='RELATIF',
                   PRECISION=1.E-2,),
                _F(NUME_ORDRE=5,
                   PARA='FREQ',
                   REFERENCE='SOURCE_EXTERNE',
                   RESULTAT=MODE1_MN,
                   VALE_CALC=488.441301097,
                   VALE_REFE=492.291,
                   CRITERE='RELATIF',
                   PRECISION=1.E-2,),
                _F(NUME_ORDRE=6,
                   PARA='FREQ',
                   REFERENCE='SOURCE_EXTERNE',
                   RESULTAT=MODE1_MN,
                   VALE_CALC=517.576387530,
                   VALE_REFE=521.76700000000005,
                   CRITERE='RELATIF',
                   PRECISION=1.E-2,),
                _F(NUME_ORDRE=7,
                   PARA='FREQ',
                   REFERENCE='SOURCE_EXTERNE',
                   RESULTAT=MODE1_MN,
                   VALE_CALC=619.092581846,
                   VALE_REFE=624.72699999999998,
                   CRITERE='RELATIF',
                   PRECISION=1.E-2,),
                _F(NUME_ORDRE=8,
                   PARA='FREQ',
                   REFERENCE='SOURCE_EXTERNE',
                   RESULTAT=MODE1_MN,
                   VALE_CALC=641.466975468,
                   VALE_REFE=645.54700000000003,
                   CRITERE='RELATIF',
                   PRECISION=1.E-2,),
                _F(NUME_ORDRE=9,
                   PARA='FREQ',
                   REFERENCE='SOURCE_EXTERNE',
                   RESULTAT=MODE1_MN,
                   VALE_CALC=732.139627192,
                   VALE_REFE=736.375,
                   CRITERE='RELATIF',
                   PRECISION=1.E-2,),
                _F(NUME_ORDRE=10,
                   PARA='FREQ',
                   REFERENCE='SOURCE_EXTERNE',
                   RESULTAT=MODE1_MN,
                   VALE_CALC=776.297793253,
                   VALE_REFE=778.04100000000005,
                   CRITERE='RELATIF',
                   PRECISION=1.E-2,),
                ),
          )

MODE1N=NORM_MODE(MODE=MODE1_CB,
                 NORME='MASS_GENE',);

#-------------------------------------------------------------------
# CALCUL DU MACRO-ELEMENT DYNAMIQUE
#-------------------------------------------------------------------

INTERF1=DEFI_INTERF_DYNA(NUME_DDL=NUM1_CB,
                        INTERFACE=(_F(NOM='PALIER_S',
                                      TYPE='CRAIGB',
                                      NOEUD=('N31','N32'),
                                      #MASQUE=('DX','DRX','DRY','DRZ',),
                                      ),),);

BAMO1=DEFI_BASE_MODALE(CLASSIQUE=_F(INTERF_DYNA=INTERF1,
                                   MODE_MECA=MODE1N,
                                   NMAX_MODE=10,
                                   ),);

MACR1=MACR_ELEM_DYNA(BASE_MODALE=BAMO1,
                     MATR_RIGI=ASSR1_CB,
                     MATR_MASS=ASSM1_CB,);



MA2=LIRE_MAILLAGE(UNITE=23);
#--------------------------------------------------------------------

MO2=AFFE_MODELE(MAILLAGE=MA2,
                   AFFE=(_F(GROUP_MA=('ROTOR'),
                           PHENOMENE='MECANIQUE',
                           MODELISATION='POU_D_T',),
                         _F(GROUP_MA=('PALIER1','PALIER2'),
                           PHENOMENE='MECANIQUE',
                           MODELISATION='DIS_TR',),
                         )
                       )
#--------------------------------------------------------------------

CARELEM2=AFFE_CARA_ELEM(MODELE=MO2,
                        POUTRE=_F(GROUP_MA='ROTOR',
                                  SECTION='CERCLE',
                                  CARA=('R',),
                                  VALE=(0.1,),),
                        DISCRET=(_F(GROUP_MA='PALIER1',
                                   CARA='K_TR_D_L',
                                   VALE=(0.0,1.E12,1.E12,0.0,0.0,0.0,),),
                                 _F(GROUP_MA='PALIER1',
                                   CARA='M_TR_L',
                                   VALE=(0.,0.,0.,0.,0.,0.,0.,0.,0.,0.,0.,0.,0.,0.,0.,0.,0.,0.,0.,0.,
                                   0.,0.,0.,0.,0.,0.,0.,0.,0.,0.,0.,0.,0.,0.,0.,0.,0.,0.,0.,0.,
                                   0.,0.,0.,0.,0.,0.,0.,0.,0.,0.,0.,0.,0.,0.,0.,0.,0.,0.,0.,0.,
                                   0.,0.,0.,0.,0.,0.,0.,0.,0.,0.,0.,0.,0.,0.,0.,0.,0.,0.,),),
                                _F(GROUP_MA='PALIER2',
                                   CARA='K_TR_D_L',
                                   VALE=(0.0,1.E12,1.E12,0.0,0.0,0.0,),),
                                 _F(GROUP_MA='PALIER2',
                                   CARA='M_TR_L',
                                   VALE=(0.,0.,0.,0.,0.,0.,0.,0.,0.,0.,0.,0.,0.,0.,0.,0.,0.,0.,0.,0.,
                                   0.,0.,0.,0.,0.,0.,0.,0.,0.,0.,0.,0.,0.,0.,0.,0.,0.,0.,0.,0.,
                                   0.,0.,0.,0.,0.,0.,0.,0.,0.,0.,0.,0.,0.,0.,0.,0.,0.,0.,0.,0.,
                                   0.,0.,0.,0.,0.,0.,0.,0.,0.,0.,0.,0.,0.,0.,0.,0.,0.,0.,),),
                                _F(GROUP_MA='PALIER1',
                                   CARA='A_TR_D_L',
                                   VALE=(0.0,0.0,0.0,0.0,0.0,0.0,),),
                                _F(GROUP_MA='PALIER2',
                                   CARA='A_TR_D_L',
                                   VALE=(0.0,0.0,0.0,0.0,0.0,0.0,),),
                                ),
                        );
#--------------------------------------------------------------------

MAT2=DEFI_MATERIAU(ELAS=_F(E=2.1E11,
                          NU=0.,
                          RHO=7800.,
                                         AMOR_HYST=0.0,
                          ),);
# ---------------------------------------------------------------------

CHMAT2=AFFE_MATERIAU(MAILLAGE=MA2,
                     AFFE=_F(TOUT='OUI',
                             MATER=MAT2,),);

CH2=AFFE_CHAR_MECA(MODELE=MO2,
                   DDL_IMPO=(
                             _F(GROUP_NO=('NOPAL1','NOPAL2'),
                               DX=0.0,
                               DY=0.0,
                               DZ=0.0,
                               DRX=0.0,
                               DRY=0.0,
                               DRZ=0.0,
                               ),
                             _F(NOEUD=('N37'),
                               DX=0.0,
                               DRX=0.0,),
                             ),
                             );
# ------------------------------------------------------------------
# CALCULS DES MATRICES
#-------------------------------------------------------------------
ASSEMBLAGE(MODELE=MO2,
                CHAM_MATER=CHMAT2,
                CARA_ELEM=CARELEM2,
                CHARGE=CH2,
                NUME_DDL=CO('NUM2'),
                MATR_ASSE=(_F(MATRICE=CO('MATASSM2'),
                              OPTION='MASS_MECA',),
                           _F(MATRICE=CO('MATASSR2'),
                              OPTION='RIGI_MECA',),                   
                              ),);
#--------------------------------------------------------------------
#                      CALCUL MODAL
#--------------------------------------------------------------------

MODE2=CALC_MODES(MATR_RIGI=MATASSR2,
                 VERI_MODE=_F(STOP_ERREUR='NON',
                              SEUIL=9.9999999999999995E-07,
                              ),
                 OPTION='BANDE',
                 CALC_FREQ=_F(FREQ=(1.,900.),
                              ),
                 MATR_MASS=MATASSM2,
                 )

TEST_RESU(RESU=(_F(NUME_ORDRE=1,
                   PARA='FREQ',
                   RESULTAT=MODE2,
                   VALE_CALC=100.86023296597,
                   CRITERE='RELATIF',
                   ),
                _F(NUME_ORDRE=2,
                   PARA='FREQ',
                   RESULTAT=MODE2,
                   VALE_CALC=100.86023296597,
                   CRITERE='RELATIF',
                   ),
                _F(NUME_ORDRE=3,
                   PARA='FREQ',
                   RESULTAT=MODE2,
                   VALE_CALC=392.52906542749002,
                   CRITERE='RELATIF',
                   ),
                _F(NUME_ORDRE=4,
                   PARA='FREQ',
                   RESULTAT=MODE2,
                   VALE_CALC=392.52906542749002,
                   CRITERE='RELATIF',
                   ),
                _F(NUME_ORDRE=5,
                   PARA='FREQ',
                   RESULTAT=MODE2,
                   VALE_CALC=850.23956741107997,
                   CRITERE='RELATIF',
                   ),
                _F(NUME_ORDRE=6,
                   PARA='FREQ',
                   RESULTAT=MODE2,
                   VALE_CALC=850.23956741107997,
                   CRITERE='RELATIF',
                   ),
                ),
          )

TEST_RESU(RESU=(_F(NUME_ORDRE=1,
                   PARA='FREQ',
                   REFERENCE='SOURCE_EXTERNE',
                   RESULTAT=MODE2,
                   VALE_CALC=100.860232966,
                   VALE_REFE=100.90000000000001,
                   CRITERE='RELATIF',
                   PRECISION=1.E-2,),
                _F(NUME_ORDRE=2,
                   PARA='FREQ',
                   REFERENCE='SOURCE_EXTERNE',
                   RESULTAT=MODE2,
                   VALE_CALC=100.860232966,
                   VALE_REFE=100.90000000000001,
                   CRITERE='RELATIF',
                   PRECISION=1.E-2,),
                _F(NUME_ORDRE=3,
                   PARA='FREQ',
                   REFERENCE='SOURCE_EXTERNE',
                   RESULTAT=MODE2,
                   VALE_CALC=392.529065427,
                   VALE_REFE=393.05000000000001,
                   CRITERE='RELATIF',
                   PRECISION=1.E-2,),
                _F(NUME_ORDRE=4,
                   PARA='FREQ',
                   REFERENCE='SOURCE_EXTERNE',
                   RESULTAT=MODE2,
                   VALE_CALC=392.529065427,
                   VALE_REFE=393.05000000000001,
                   CRITERE='RELATIF',
                   PRECISION=1.E-2,),
                _F(NUME_ORDRE=5,
                   PARA='FREQ',
                   REFERENCE='SOURCE_EXTERNE',
                   RESULTAT=MODE2,
                   VALE_CALC=850.239567411,
                   VALE_REFE=852.41999999999996,
                   CRITERE='RELATIF',
                   PRECISION=1.E-2,),
                _F(NUME_ORDRE=6,
                   PARA='FREQ',
                   REFERENCE='SOURCE_EXTERNE',
                   RESULTAT=MODE2,
                   VALE_CALC=850.239567411,
                   VALE_REFE=852.41999999999996,
                   CRITERE='RELATIF',
                   PRECISION=1.E-2,),
                ),
          )

MODE2N=NORM_MODE(MODE=MODE2,
                 NORME='EUCL_TRAN',
                 INFO=2,);
#-------------------------------------------------------------------
# CALCUL DU MACRO-ELEMENT DYNAMIQUE
#-------------------------------------------------------------------

INTERF2=DEFI_INTERF_DYNA(NUME_DDL=NUM2,
                        INTERFACE=(_F(NOM='PALIER_R',
                                      TYPE='CRAIGB',
                                      NOEUD=('N31','N32'),
                                      #MASQUE=('DX','DRX','DRY','DRZ',),
                                      ),),);

BAMO2=DEFI_BASE_MODALE(CLASSIQUE=_F(MODE_MECA=MODE2N,
                                    INTERF_DYNA=INTERF2,
                                    NMAX_MODE=10,),
                       );

MACR2=MACR_ELEM_DYNA(BASE_MODALE=BAMO2,
                     MATR_RIGI=MATASSR2,
                     MATR_MASS=MATASSM2,);

#
#  DEFINITION DU MODELE GENERALISE
#------------------------------------------------------------------

MODEGE=DEFI_MODELE_GENE(  SOUS_STRUC=(_F( NOM = 'COTE1',
                                          MACR_ELEM_DYNA = MACR1,
                                                                   ANGL_NAUT = (0., 0., 0.,),
                                                                   TRANS = (0.,0.,0.),),
                                      _F( NOM = 'COTE2',
                                          MACR_ELEM_DYNA = MACR2,
                                                                   ANGL_NAUT = (0., 0., 0.,),
                                                                   TRANS = (0.,0.,0.),)),
                          LIAISON=_F( SOUS_STRUC_1 = 'COTE1',
                                      SOUS_STRUC_2 = 'COTE2',
                                      INTERFACE_1 = 'PALIER_S',
                                      INTERFACE_2 = 'PALIER_R'),
                          VERIF=_F( STOP_ERREUR = 'OUI',
                                    PRECISION = 1.E-6,
                                    CRITERE = 'RELATIF'))

#  NUMEROTATION DU PROBLEME GENERALISE DES SOUS-STRUCTURES
#------------------------------------------------------------------

NUMEGE=NUME_DDL_GENE(  MODELE_GENE=MODEGE)

#  ASSEMBLAGE DES MATRICES
#------------------------------------------------------------------

MASGEN=ASSE_MATR_GENE(  NUME_DDL_GENE=NUMEGE,
                                  OPTION='MASS_GENE')
#
RIGGEN=ASSE_MATR_GENE(  NUME_DDL_GENE=NUMEGE,
                                  OPTION='RIGI_GENE')

#  CALCUL DES MODES PROPRES DE LA STRUCTURE GLOBALE
#------------------------------------------------------------------

RESGEN=CALC_MODES(MATR_RIGI=RIGGEN,
                  VERI_MODE=_F(STOP_ERREUR='NON',
                               SEUIL=9.9999999999999995E-07,
                               ),
                  OPTION='BANDE',
                  CALC_FREQ=_F(FREQ=(0.,400.),
                               ),
                  MATR_MASS=MASGEN,
                  )

#
#   CREATION DU MAILLAGE SQUELETTE DE LA STRUCTURE GLOBALE
#
SQUEL=DEFI_SQUELETTE(  MODELE_GENE=MODEGE,SOUS_STRUC=(
                            _F( NOM = 'COTE1',
                                        GROUP_MA = ('MASSIF',)),
                            _F( NOM = 'COTE2',
                                        GROUP_MA = ('ROTOR',)))
                           )

#
#   RESTITUTION SUR MAILLAGE SQUELETTE
#
MODGLO=REST_SOUS_STRUC(   RESU_GENE=RESGEN,
                          SQUELETTE=SQUEL,
                          TOUT_ORDRE='OUI')

TEST_RESU(RESU=(_F(NUME_ORDRE=1,
                   PARA='FREQ',
                   REFERENCE='SOURCE_EXTERNE',
                   RESULTAT=RESGEN,
                   VALE_CALC=100.675773342,
                   VALE_REFE=100.717,
                   CRITERE='RELATIF',
                   PRECISION=1.E-2,),
                _F(NUME_ORDRE=2,
                   PARA='FREQ',
                   REFERENCE='SOURCE_EXTERNE',
                   RESULTAT=RESGEN,
                   VALE_CALC=100.827932088,
                   VALE_REFE=100.866,
                   CRITERE='RELATIF',
                   PRECISION=1.E-2,),
                _F(NUME_ORDRE=3,
                   PARA='FREQ',
                   REFERENCE='SOURCE_EXTERNE',
                   RESULTAT=RESGEN,
                   VALE_CALC=219.933911602,
                   VALE_REFE=221.06399999999999,
                   CRITERE='RELATIF',
                   PRECISION=1.E-2,),
                _F(NUME_ORDRE=4,
                   PARA='FREQ',
                   REFERENCE='SOURCE_EXTERNE',
                   RESULTAT=RESGEN,
                   VALE_CALC=256.822711721,
                   VALE_REFE=259.14299999999997,
                   CRITERE='RELATIF',
                   PRECISION=1.E-2,),
                _F(NUME_ORDRE=5,
                   PARA='FREQ',
                   REFERENCE='SOURCE_EXTERNE',
                   RESULTAT=RESGEN,
                   VALE_CALC=348.884519856,
                   VALE_REFE=342.98099999999999,
                   CRITERE='RELATIF',
                   PRECISION=0.05,),
                _F(NUME_ORDRE=6,
                   PARA='FREQ',
                   REFERENCE='SOURCE_EXTERNE',
                   RESULTAT=RESGEN,
                   VALE_CALC=392.003587181,
                   VALE_REFE=392.524,
                   CRITERE='RELATIF',
                   PRECISION=1.E-2,),
                _F(NUME_ORDRE=7,
                   PARA='FREQ',
                   REFERENCE='SOURCE_EXTERNE',
                   RESULTAT=RESGEN,
                   VALE_CALC=398.334886252,
                   VALE_REFE=397.55599999999998,
                   CRITERE='RELATIF',
                   PRECISION=1.E-2,),
                ),
          )

FIN();
