# MODIF  DATE 30/07/2012   AUTEUR LEFEBVRE J-P.LEFEBVRE 
# TITRE CALCUL DES FREQUENCES PROPRES D'UNE POUTRE BI APPUYEE AMORTIE
# sdlv302c.para = tps_job 60 mem_job 256Mo ncpus 1 liste_test V
#            CONFIGURATION MANAGEMENT OF EDF VERSION
# ======================================================================
# COPYRIGHT (C) 1991 - 2012  EDF R&D                  WWW.CODE-ASTER.ORG
# THIS PROGRAM IS FREE SOFTWARE; YOU CAN REDISTRIBUTE IT AND/OR MODIFY
# IT UNDER THE TERMS OF THE GNU GENERAL PUBLIC LICENSE AS PUBLISHED BY
# THE FREE SOFTWARE FOUNDATION; EITHER VERSION 2 OF THE LICENSE, OR   
# (AT YOUR OPTION) ANY LATER VERSION.                                 
#
# THIS PROGRAM IS DISTRIBUTED IN THE HOPE THAT IT WILL BE USEFUL, BUT 
# WITHOUT ANY WARRANTY; WITHOUT EVEN THE IMPLIED WARRANTY OF          
# MERCHANTABILITY OR FITNESS FOR A PARTICULAR PURPOSE. SEE THE GNU    
# GENERAL PUBLIC LICENSE FOR MORE DETAILS.                            
#
# YOU SHOULD HAVE RECEIVED A COPY OF THE GNU GENERAL PUBLIC LICENSE   
# ALONG WITH THIS PROGRAM; IF NOT, WRITE TO EDF R&D CODE_ASTER,       
#    1 AVENUE DU GENERAL DE GAULLE, 92141 CLAMART CEDEX, FRANCE.      
# ======================================================================
# AMORTISSEMENT VISQUEUX PROPORTIONNEL
# ELEMENTS  : HEXA20
# REFERENCE : ANALYTIQUE

DEBUT(CODE=_F( NOM = 'SDLV302C',NIV_PUB_WEB='INTERNET'))

ACIER=DEFI_MATERIAU(          
                         ELAS=_F(  RHO = 7.8E03,  
                           NU = 0.3, 
                           E = 2.1E11, 
                           AMOR_ALPHA = 0.2852750549E-04,
                           AMOR_BETA = 57.62031174))

#AMOR_ALPHA : 0.1141100220E-03

#AMOR_BETA  : 230.4812469 ));

MAYA=LIRE_MAILLAGE(FORMAT='MED', )

MATER=AFFE_MATERIAU(    MAILLAGE=MAYA, 
                                 AFFE=_F(  TOUT = 'OUI', 
                                        MATER = ACIER))

STRUCTUR=AFFE_MODELE(    MAILLAGE=MAYA,
                               AFFE=_F(  TOUT = 'OUI', 
                                      MODELISATION = '3D', 
                                      PHENOMENE = 'MECANIQUE'))

FIXA=AFFE_CHAR_MECA(     MODELE=STRUCTUR,DDL_IMPO=(
                    _F(  GROUP_NO = 'COND1',  DX = 0.,  DY = 0.), 
                    _F(  GROUP_NO = 'COND2',  DY = 0.), 
                    _F(  GROUP_NO = 'COND3',  DZ = 0.)))

PLAN_X0=AFFE_CHAR_MECA(         MODELE=STRUCTUR,LIAISON_DDL=(
                             

     _F( NOEUD = ('N1','N21','N9',), DDL = ('DX','DX','DX',),
     COEF_MULT = ( 1.00,   .00000, -1.00000,), COEF_IMPO = 0.),
     _F( NOEUD = ('N2','N21','N9',), DDL = ('DX','DX','DX',),
     COEF_MULT = ( 1.00, -2.00000,  1.00000,), COEF_IMPO = 0.),
     _F( NOEUD = ('N3','N21','N9',), DDL = ('DX','DX','DX',),
     COEF_MULT = ( 1.00, -2.00000,  1.00000,), COEF_IMPO = 0.),
     _F( NOEUD = ('N4','N21','N9',), DDL = ('DX','DX','DX',),
     COEF_MULT = ( 1.00,   .00000, -1.00000,), COEF_IMPO = 0.),
     _F( NOEUD = ('N5','N21','N9',), DDL = ('DX','DX','DX',),
     COEF_MULT = ( 1.00, -2.00000,  1.00000,), COEF_IMPO = 0.),
     _F( NOEUD = ('N6','N21','N9',), DDL = ('DX','DX','DX',),
     COEF_MULT = ( 1.00, -2.00000,  1.00000,), COEF_IMPO = 0.),
     _F( NOEUD = ('N7','N21','N9',), DDL = ('DX','DX','DX',),
     COEF_MULT = ( 1.00, -2.00000,  1.00000,), COEF_IMPO = 0.),
     _F( NOEUD = ('N8','N21','N9',), DDL = ('DX','DX','DX',),
     COEF_MULT = ( 1.00,   .00000, -1.00000,), COEF_IMPO = 0.),
     _F( NOEUD = ('N10','N21','N9',), DDL = ('DX','DX','DX',),
     COEF_MULT = ( 1.00,   .00000, -1.00000,), COEF_IMPO = 0.),
     _F( NOEUD = ('N11','N21','N9',), DDL = ('DX','DX','DX',),
     COEF_MULT = ( 1.00, -1.75000,   .75000,), COEF_IMPO = 0.),
     _F( NOEUD = ('N12','N21','N9',), DDL = ('DX','DX','DX',),
     COEF_MULT = ( 1.00, -1.50000,   .50000,), COEF_IMPO = 0.),
     _F( NOEUD = ('N13','N21','N9',), DDL = ('DX','DX','DX',),
     COEF_MULT = ( 1.00, -1.25000,   .25000,), COEF_IMPO = 0.),
     _F( NOEUD = ('N15','N21','N9',), DDL = ('DX','DX','DX',),
     COEF_MULT = ( 1.00,  -.75000,  -.25000,), COEF_IMPO = 0.),
     _F( NOEUD = ('N16','N21','N9',), DDL = ('DX','DX','DX',),
     COEF_MULT = ( 1.00,  -.50000,  -.50000,), COEF_IMPO = 0.),
     _F( NOEUD = ('N17','N21','N9',), DDL = ('DX','DX','DX',),
     COEF_MULT = ( 1.00,  -.25000,  -.75000,), COEF_IMPO = 0.),
     _F( NOEUD = ('N18','N21','N9',), DDL = ('DX','DX','DX',),
     COEF_MULT = ( 1.00,  -.25000,  -.75000,), COEF_IMPO = 0.),
     _F( NOEUD = ('N19','N21','N9',), DDL = ('DX','DX','DX',),
     COEF_MULT = ( 1.00,  -.50000,  -.50000,), COEF_IMPO = 0.),
     _F( NOEUD = ('N20','N21','N9',), DDL = ('DX','DX','DX',),
     COEF_MULT = ( 1.00,  -.75000,  -.25000,), COEF_IMPO = 0.),
     _F( NOEUD = ('N22','N21','N9',), DDL = ('DX','DX','DX',),
     COEF_MULT = ( 1.00, -1.25000,   .25000,), COEF_IMPO = 0.),
     _F( NOEUD = ('N23','N21','N9',), DDL = ('DX','DX','DX',),
     COEF_MULT = ( 1.00, -1.50000,   .50000,), COEF_IMPO = 0.),
# ... 21 like lines cut
     COEF_MULT = ( 1.00, -1.75000,   .75000,), COEF_IMPO = 0.))
       )

PLAN_XL=AFFE_CHAR_MECA(         MODELE=STRUCTUR,LIAISON_DDL=(
                             

     _F( NOEUD = ('N1481','N1501','N1489',), DDL = ('DX','DX','DX',),
     COEF_MULT = ( 1.00,   .00000, -1.00000,), COEF_IMPO = 0.),
     _F( NOEUD = ('N1482','N1501','N1489',), DDL = ('DX','DX','DX',),
     COEF_MULT = ( 1.00, -2.00000,  1.00000,), COEF_IMPO = 0.),
     _F( NOEUD = ('N1483','N1501','N1489',), DDL = ('DX','DX','DX',),
     COEF_MULT = ( 1.00, -2.00000,  1.00000,), COEF_IMPO = 0.),
     _F( NOEUD = ('N1484','N1501','N1489',), DDL = ('DX','DX','DX',),
     COEF_MULT = ( 1.00,   .00000, -1.00000,), COEF_IMPO = 0.),
     _F( NOEUD = ('N1485','N1501','N1489',), DDL = ('DX','DX','DX',),
     COEF_MULT = ( 1.00, -2.00000,  1.00000,), COEF_IMPO = 0.),
     _F( NOEUD = ('N1486','N1501','N1489',), DDL = ('DX','DX','DX',),
     COEF_MULT = ( 1.00, -2.00000,  1.00000,), COEF_IMPO = 0.),
     _F( NOEUD = ('N1487','N1501','N1489',), DDL = ('DX','DX','DX',),
     COEF_MULT = ( 1.00, -2.00000,  1.00000,), COEF_IMPO = 0.),
     _F( NOEUD = ('N1488','N1501','N1489',), DDL = ('DX','DX','DX',),
     COEF_MULT = ( 1.00,   .00000, -1.00000,), COEF_IMPO = 0.),
     _F( NOEUD = ('N1490','N1501','N1489',), DDL = ('DX','DX','DX',),
     COEF_MULT = ( 1.00,   .00000, -1.00000,), COEF_IMPO = 0.),
     _F( NOEUD = ('N1491','N1501','N1489',), DDL = ('DX','DX','DX',),
     COEF_MULT = ( 1.00, -1.75000,   .75000,), COEF_IMPO = 0.),
     _F( NOEUD = ('N1492','N1501','N1489',), DDL = ('DX','DX','DX',),
     COEF_MULT = ( 1.00, -1.50000,   .50000,), COEF_IMPO = 0.),
     _F( NOEUD = ('N1493','N1501','N1489',), DDL = ('DX','DX','DX',),
     COEF_MULT = ( 1.00, -1.25000,   .25000,), COEF_IMPO = 0.),
     _F( NOEUD = ('N1495','N1501','N1489',), DDL = ('DX','DX','DX',),
     COEF_MULT = ( 1.00,  -.75000,  -.25000,), COEF_IMPO = 0.),
     _F( NOEUD = ('N1496','N1501','N1489',), DDL = ('DX','DX','DX',),
     COEF_MULT = ( 1.00,  -.50000,  -.50000,), COEF_IMPO = 0.),
     _F( NOEUD = ('N1497','N1501','N1489',), DDL = ('DX','DX','DX',),
     COEF_MULT = ( 1.00,  -.25000,  -.75000,), COEF_IMPO = 0.),
     _F( NOEUD = ('N1498','N1501','N1489',), DDL = ('DX','DX','DX',),
     COEF_MULT = ( 1.00,  -.25000,  -.75000,), COEF_IMPO = 0.),
     _F( NOEUD = ('N1499','N1501','N1489',), DDL = ('DX','DX','DX',),
     COEF_MULT = ( 1.00,  -.50000,  -.50000,), COEF_IMPO = 0.),
     _F( NOEUD = ('N1500','N1501','N1489',), DDL = ('DX','DX','DX',),
     COEF_MULT = ( 1.00,  -.75000,  -.25000,), COEF_IMPO = 0.),
     _F( NOEUD = ('N1502','N1501','N1489',), DDL = ('DX','DX','DX',),
     COEF_MULT = ( 1.00, -1.25000,   .25000,), COEF_IMPO = 0.),
     _F( NOEUD = ('N1503','N1501','N1489',), DDL = ('DX','DX','DX',),
     COEF_MULT = ( 1.00, -1.50000,   .50000,), COEF_IMPO = 0.),
# ... 21 like lines cut
     COEF_MULT = ( 1.00, -1.75000,   .75000,), COEF_IMPO = 0.))
       )

# CALCUL DES MATRICES ELEMENTAIRES DE RIGIDITE ET DE MASSE

K_ELEM=CALC_MATR_ELEM(        MODELE=STRUCTUR,
                                CHAM_MATER=MATER, 
                                   OPTION='RIGI_MECA', 
                                    CHARGE=( FIXA,     
                                             PLAN_X0, 
                                             PLAN_XL, ))

M_ELEM=CALC_MATR_ELEM(        MODELE=STRUCTUR,
                                CHAM_MATER=MATER, 
                                   OPTION='MASS_MECA', 
                                    CHARGE=( FIXA,     
                                             PLAN_X0, 
                                             PLAN_XL,  ))

C_ELEM=CALC_MATR_ELEM(        MODELE=STRUCTUR,
                                 RIGI_MECA=K_ELEM,
                                 MASS_MECA=M_ELEM,
                                CHAM_MATER=MATER, 
                                   OPTION='AMOR_MECA' )

# NUMEROTATION

NUMERO=NUME_DDL(    MATR_RIGI=K_ELEM )

# ASSEMBLAGE DES MATRICES DE RIGIDITE ET DE MASSE


K_ASSE=ASSE_MATRICE(    MATR_ELEM=K_ELEM, 
                             NUME_DDL=NUMERO )

M_ASSE=ASSE_MATRICE(    MATR_ELEM=M_ELEM, 
                             NUME_DDL=NUMERO )

C_ASSE=ASSE_MATRICE(    MATR_ELEM=C_ELEM, 
                             NUME_DDL=NUMERO )

# CALCUL DES MODES

MODES=MODE_ITER_SIMULT(       MATR_A=K_ASSE, 
                                   MATR_B=M_ASSE, 
                                   MATR_C=C_ASSE, 
                                  METHODE='TRI_DIAG',
                               CALC_FREQ=_F(  OPTION = 'PLUS_PETITE',
                                          NMAX_FREQ = 10)
                             )

TEST_RESU(RESU=(
   _F(   RESULTAT = MODES,
           PARA = 'FREQ',
           CRITERE = 'RELATIF',
           PRECISION = 0.1E-2,
           NUME_ORDRE = 1,
           VALE = 115.6,      
           REFERENCE = 'SOURCE_EXTERNE'),

   _F(   RESULTAT = MODES,
           PARA = 'FREQ',
           CRITERE = 'RELATIF',
           PRECISION = 0.16E-2,
           NUME_ORDRE = 2,
           VALE = 441.6,       
           REFERENCE = 'SOURCE_EXTERNE'),

   _F(   RESULTAT = MODES,
           PARA = 'FREQ',
           CRITERE = 'RELATIF',
           PRECISION = 0.1E-2,
           NUME_ORDRE = 3,
           VALE = 647.2,     
           REFERENCE = 'SOURCE_EXTERNE'),

   _F(   RESULTAT = MODES,
           PARA = 'FREQ',
           CRITERE = 'RELATIF',
           PRECISION = 0.35E-2,
           NUME_ORDRE = 4,
           VALE = 928.0,     
           REFERENCE = 'SOURCE_EXTERNE'),

   _F(   RESULTAT = MODES,
           PARA = 'FREQ',
           CRITERE = 'RELATIF',
           PRECISION = 0.5E-2,
           NUME_ORDRE = 5,
           VALE = 1518.8,      
           REFERENCE = 'SOURCE_EXTERNE'))

          )

FIN()
#
