# MODIF  DATE 20/07/2010   AUTEUR MAHFOUZ D.MAHFOUZ 
# TITRE SOUS-STRUCTURATION DYNAMIQUE : POUTRE BI-APPUYEE 
#            CONFIGURATION MANAGEMENT OF EDF VERSION
# ======================================================================
# COPYRIGHT (C) 1991 - 2001  EDF R&D                  WWW.CODE-ASTER.ORG
# THIS PROGRAM IS FREE SOFTWARE; YOU CAN REDISTRIBUTE IT AND/OR MODIFY
# IT UNDER THE TERMS OF THE GNU GENERAL PUBLIC LICENSE AS PUBLISHED BY
# THE FREE SOFTWARE FOUNDATION; EITHER VERSION 2 OF THE LICENSE, OR   
# (AT YOUR OPTION) ANY LATER VERSION.                                 
#
# THIS PROGRAM IS DISTRIBUTED IN THE HOPE THAT IT WILL BE USEFUL, BUT 
# WITHOUT ANY WARRANTY; WITHOUT EVEN THE IMPLIED WARRANTY OF          
# MERCHANTABILITY OR FITNESS FOR A PARTICULAR PURPOSE. SEE THE GNU    
# GENERAL PUBLIC LICENSE FOR MORE DETAILS.                            
#
# YOU SHOULD HAVE RECEIVED A COPY OF THE GNU GENERAL PUBLIC LICENSE   
# ALONG WITH THIS PROGRAM; IF NOT, WRITE TO EDF R&D CODE_ASTER,       
#    1 AVENUE DU GENERAL DE GAULLE, 92141 CLAMART CEDEX, FRANCE.      
# ======================================================================
# CAS_TEST__: SDLV302B
# VALIDATION INDEPENDANTE PAR SAMTECH (H.DRION)
#
# CE FICHIER DE COMMANDE CONTIENT LES INSTRUCTIONS POUR CALCULER LES
# FREQUENCES  PROPRES D'UNE POUTRE BI-APPUYEE.
# LES VALEURS DE REFERENCE SONT CALCULEES SUR UNE POUTRE DE 
# TIMOSHENKO DEFORMABLE A L'EFFORT TRANCHANT ET TENANT COMPTE DE
# L'INERTIE ROTATOIRE DES SECTIONS.
#
#################################################################
#
# LA POUTRE EST DIVISEE EN DEUX SUPER-ELEMENTS DE TYPE CRAIG-BAMPTON
# 
#################################################################
#
DEBUT(CODE=_F( NOM = 'SDLV302B',NIV_PUB_WEB='INTERNET'))

#
MAT=DEFI_MATERIAU(  ELAS=_F( RHO = 7.8E03,  NU = 0.3,  E = 2.1E11))

#
MAYA=LIRE_MAILLAGE( UNITE=20)

#
CHMAT=AFFE_MATERIAU(  MAILLAGE=MAYA, 
                              AFFE=_F( TOUT = 'OUI', 
                                    MATER = MAT))

#
POVOL=AFFE_MODELE(  MAILLAGE=MAYA,
                              AFFE=_F( TOUT = 'OUI', 
                                  MODELISATION = '3D', 
                                  PHENOMENE = 'MECANIQUE'))

#
#################################################################
#
#  MODELISATION DU SUPER ELEMENT  DE GAUCHE    
#
#################################################################
#
#
FIXAT1=AFFE_CHAR_MECA(    MODELE=POVOL,DDL_IMPO=(
                 _F(  GROUP_NO = 'COND1',  DX = 0.,  DY = 0.),
                 _F(  GROUP_NO = 'COND3',  DZ = 0.), 
#
#  INTERFACE DE CRAIG BAMPTON --> FIXATION DE L'INTERFACE
#
                 _F(  GROUP_NO = 'DROITE',  DX = 0., DY = 0., DZ = 0.)))

#
PLAN_F1=AFFE_CHAR_MECA(   MODELE=POVOL,LIAISON_DDL=(
                            
     _F( NOEUD = ('N1','N21','N9',), DDL = ('DX','DX','DX',),
     COEF_MULT = ( 1.00,   .00000, -1.00000,), COEF_IMPO = 0.),
     _F( NOEUD = ('N2','N21','N9',), DDL = ('DX','DX','DX',),
     COEF_MULT = ( 1.00, -2.00000,  1.00000,), COEF_IMPO = 0.),
     _F( NOEUD = ('N3','N21','N9',), DDL = ('DX','DX','DX',),
     COEF_MULT = ( 1.00, -2.00000,  1.00000,), COEF_IMPO = 0.),
     _F( NOEUD = ('N4','N21','N9',), DDL = ('DX','DX','DX',),
     COEF_MULT = ( 1.00,   .00000, -1.00000,), COEF_IMPO = 0.),
     _F( NOEUD = ('N5','N21','N9',), DDL = ('DX','DX','DX',),
     COEF_MULT = ( 1.00, -2.00000,  1.00000,), COEF_IMPO = 0.),
     _F( NOEUD = ('N6','N21','N9',), DDL = ('DX','DX','DX',),
     COEF_MULT = ( 1.00, -2.00000,  1.00000,), COEF_IMPO = 0.),
     _F( NOEUD = ('N7','N21','N9',), DDL = ('DX','DX','DX',),
     COEF_MULT = ( 1.00, -2.00000,  1.00000,), COEF_IMPO = 0.),
     _F( NOEUD = ('N8','N21','N9',), DDL = ('DX','DX','DX',),
     COEF_MULT = ( 1.00,   .00000, -1.00000,), COEF_IMPO = 0.),
     _F( NOEUD = ('N10','N21','N9',), DDL = ('DX','DX','DX',),
     COEF_MULT = ( 1.00,   .00000, -1.00000,), COEF_IMPO = 0.),
     _F( NOEUD = ('N11','N21','N9',), DDL = ('DX','DX','DX',),
     COEF_MULT = ( 1.00, -1.75000,   .75000,), COEF_IMPO = 0.),
     _F( NOEUD = ('N12','N21','N9',), DDL = ('DX','DX','DX',),
     COEF_MULT = ( 1.00, -1.50000,   .50000,), COEF_IMPO = 0.),
     _F( NOEUD = ('N13','N21','N9',), DDL = ('DX','DX','DX',),
     COEF_MULT = ( 1.00, -1.25000,   .25000,), COEF_IMPO = 0.),
     _F( NOEUD = ('N15','N21','N9',), DDL = ('DX','DX','DX',),
     COEF_MULT = ( 1.00,  -.75000,  -.25000,), COEF_IMPO = 0.),
     _F( NOEUD = ('N16','N21','N9',), DDL = ('DX','DX','DX',),
     COEF_MULT = ( 1.00,  -.50000,  -.50000,), COEF_IMPO = 0.),
     _F( NOEUD = ('N17','N21','N9',), DDL = ('DX','DX','DX',),
     COEF_MULT = ( 1.00,  -.25000,  -.75000,), COEF_IMPO = 0.),
     _F( NOEUD = ('N18','N21','N9',), DDL = ('DX','DX','DX',),
     COEF_MULT = ( 1.00,  -.25000,  -.75000,), COEF_IMPO = 0.),
     _F( NOEUD = ('N19','N21','N9',), DDL = ('DX','DX','DX',),
     COEF_MULT = ( 1.00,  -.50000,  -.50000,), COEF_IMPO = 0.),
     _F( NOEUD = ('N20','N21','N9',), DDL = ('DX','DX','DX',),
     COEF_MULT = ( 1.00,  -.75000,  -.25000,), COEF_IMPO = 0.),
     _F( NOEUD = ('N22','N21','N9',), DDL = ('DX','DX','DX',),
     COEF_MULT = ( 1.00, -1.25000,   .25000,), COEF_IMPO = 0.),
     _F( NOEUD = ('N23','N21','N9',), DDL = ('DX','DX','DX',),
     COEF_MULT = ( 1.00, -1.50000,   .50000,), COEF_IMPO = 0.),
# ... 21 like lines cut
     COEF_MULT = ( 1.00, -1.75000,   .75000,), COEF_IMPO = 0.))
           )

#
K_ELEM1=CALC_MATR_ELEM(      MODELE=POVOL, 
                            CHAM_MATER=CHMAT, 
                               OPTION='RIGI_MECA', 
                                CHARGE=( FIXAT1,
                                       PLAN_F1, ))

#
M_ELEM1=CALC_MATR_ELEM(      MODELE=POVOL, 
                            CHAM_MATER=CHMAT,
                               OPTION='MASS_MECA', 
                                CHARGE=( FIXAT1, 
                                       PLAN_F1, ))

#
NUM1=NUME_DDL(  MATR_RIGI=K_ELEM1)

#
K_ASSE1=ASSE_MATRICE(  MATR_ELEM=K_ELEM1,
                           NUME_DDL=NUM1)

#
M_ASSE1=ASSE_MATRICE(  MATR_ELEM=M_ELEM1,
                           NUME_DDL=NUM1)

#
MODES1=MODE_ITER_SIMULT(     MATR_A=K_ASSE1,
                                 MATR_B=M_ASSE1,
                             CALC_FREQ=_F( NMAX_FREQ = 22))

#
INTERF1=DEFI_INTERF_DYNA(  NUME_DDL=NUM1,
                              INTERFACE=_F( NOM = 'DROITE',
                             TYPE = 'CRAIGB',
                             GROUP_NO = 'DROITE') )

#
BAMO1=DEFI_BASE_MODALE(  CLASSIQUE=_F( INTERF_DYNA = INTERF1,
                                         MODE_MECA = MODES1,
                                         NMAX_MODE = 05))

#
MACRO1=MACR_ELEM_DYNA(  BASE_MODALE=BAMO1,)

#
#
#################################################################
#
#  MODELISATION DU SUPER ELEMENT DE DROITE 
#
#################################################################
#
FIXAT2=AFFE_CHAR_MECA(    MODELE=POVOL,DDL_IMPO=(
                    _F(  GROUP_NO = 'COND2',  DY = 0.),
                    _F(  GROUP_NO = 'COND3',  DZ = 0.),
#
#  INTERFACE DE CRAIG BAMPTON --> FIXATION DE L'INTERFACE
#
                 _F(  GROUP_NO = 'GAUCHE',  DX = 0., DY = 0., DZ = 0.)))

#
PLAN_F2=AFFE_CHAR_MECA(   MODELE=POVOL,LIAISON_DDL=(
                            
     _F( NOEUD = ('N741','N761','N749',), DDL = ('DX','DX','DX',),
     COEF_MULT = ( 1.00,   .00000, -1.00000,), COEF_IMPO = 0.),
     _F( NOEUD = ('N742','N761','N749',), DDL = ('DX','DX','DX',),
     COEF_MULT = ( 1.00, -2.00000,  1.00000,), COEF_IMPO = 0.),
     _F( NOEUD = ('N743','N761','N749',), DDL = ('DX','DX','DX',),
     COEF_MULT = ( 1.00, -2.00000,  1.00000,), COEF_IMPO = 0.),
     _F( NOEUD = ('N744','N761','N749',), DDL = ('DX','DX','DX',),
     COEF_MULT = ( 1.00,   .00000, -1.00000,), COEF_IMPO = 0.),
     _F( NOEUD = ('N745','N761','N749',), DDL = ('DX','DX','DX',),
     COEF_MULT = ( 1.00, -2.00000,  1.00000,), COEF_IMPO = 0.),
     _F( NOEUD = ('N746','N761','N749',), DDL = ('DX','DX','DX',),
     COEF_MULT = ( 1.00, -2.00000,  1.00000,), COEF_IMPO = 0.),
     _F( NOEUD = ('N747','N761','N749',), DDL = ('DX','DX','DX',),
     COEF_MULT = ( 1.00, -2.00000,  1.00000,), COEF_IMPO = 0.),
     _F( NOEUD = ('N748','N761','N749',), DDL = ('DX','DX','DX',),
     COEF_MULT = ( 1.00,   .00000, -1.00000,), COEF_IMPO = 0.),
     _F( NOEUD = ('N750','N761','N749',), DDL = ('DX','DX','DX',),
     COEF_MULT = ( 1.00,   .00000, -1.00000,), COEF_IMPO = 0.),
     _F( NOEUD = ('N751','N761','N749',), DDL = ('DX','DX','DX',),
     COEF_MULT = ( 1.00, -1.75000,   .75000,), COEF_IMPO = 0.),
     _F( NOEUD = ('N752','N761','N749',), DDL = ('DX','DX','DX',),
     COEF_MULT = ( 1.00, -1.50000,   .50000,), COEF_IMPO = 0.),
     _F( NOEUD = ('N753','N761','N749',), DDL = ('DX','DX','DX',),
     COEF_MULT = ( 1.00, -1.25000,   .25000,), COEF_IMPO = 0.),
     _F( NOEUD = ('N755','N761','N749',), DDL = ('DX','DX','DX',),
     COEF_MULT = ( 1.00,  -.75000,  -.25000,), COEF_IMPO = 0.),
     _F( NOEUD = ('N756','N761','N749',), DDL = ('DX','DX','DX',),
     COEF_MULT = ( 1.00,  -.50000,  -.50000,), COEF_IMPO = 0.),
     _F( NOEUD = ('N757','N761','N749',), DDL = ('DX','DX','DX',),
     COEF_MULT = ( 1.00,  -.25000,  -.75000,), COEF_IMPO = 0.),
     _F( NOEUD = ('N758','N761','N749',), DDL = ('DX','DX','DX',),
     COEF_MULT = ( 1.00,  -.25000,  -.75000,), COEF_IMPO = 0.),
     _F( NOEUD = ('N759','N761','N749',), DDL = ('DX','DX','DX',),
     COEF_MULT = ( 1.00,  -.50000,  -.50000,), COEF_IMPO = 0.),
     _F( NOEUD = ('N760','N761','N749',), DDL = ('DX','DX','DX',),
     COEF_MULT = ( 1.00,  -.75000,  -.25000,), COEF_IMPO = 0.),
     _F( NOEUD = ('N762','N761','N749',), DDL = ('DX','DX','DX',),
     COEF_MULT = ( 1.00, -1.25000,   .25000,), COEF_IMPO = 0.),
     _F( NOEUD = ('N763','N761','N749',), DDL = ('DX','DX','DX',),
     COEF_MULT = ( 1.00, -1.50000,   .50000,), COEF_IMPO = 0.),
# ... 21 like lines cut
     COEF_MULT = ( 1.00, -1.75000,   .75000,), COEF_IMPO = 0.))
               )

#
K_ELEM2=CALC_MATR_ELEM(      MODELE=POVOL, 
                            CHAM_MATER=CHMAT, 
                               OPTION='RIGI_MECA', 
                                CHARGE=( FIXAT2,
                                         PLAN_F2, ))

#
M_ELEM2=CALC_MATR_ELEM(      MODELE=POVOL, 
                            CHAM_MATER=CHMAT,
                               OPTION='MASS_MECA', 
                                CHARGE=( FIXAT2, 
                                         PLAN_F2, ))

#
NUM2=NUME_DDL(  MATR_RIGI=K_ELEM2)

#
K_ASSE2=ASSE_MATRICE(  MATR_ELEM=K_ELEM2,
                           NUME_DDL=NUM2)

#
M_ASSE2=ASSE_MATRICE(  MATR_ELEM=M_ELEM2,
                           NUME_DDL=NUM2)

#
MODES2=MODE_ITER_SIMULT(     MATR_A=K_ASSE2,
                                 MATR_B=M_ASSE2,
                             CALC_FREQ=_F( NMAX_FREQ = 22))

#
INTERF2=DEFI_INTERF_DYNA(   NUME_DDL=NUM2,
                              INTERFACE=_F( NOM = 'GAUCHE',
                                         TYPE = 'CRAIGB',
                                         GROUP_NO = 'GAUCHE') )

#
BAMO2=DEFI_BASE_MODALE(  CLASSIQUE=_F( INTERF_DYNA = INTERF2,
                                         MODE_MECA = MODES2,
                                         NMAX_MODE = 05))

#
MACRO2=MACR_ELEM_DYNA(  BASE_MODALE=BAMO2,)

#
#################################################################
#
#       CALCUL SUR LE MODELE GENERALISE   
#
#################################################################
#    
#   CREATION DU MODELE GENERALISE
#
MODEGE=DEFI_MODELE_GENE( SOUS_STRUC=( _F( NOM = 'COTE1',
                                          MACR_ELEM_DYNA = MACRO1),
                              _F( NOM = 'COTE2',
                                          MACR_ELEM_DYNA = MACRO2)),
                                 LIAISON=_F( SOUS_STRUC_1 = 'COTE1',
                                          SOUS_STRUC_2 = 'COTE2',
                                          INTERFACE_1 = 'DROITE',
                                          INTERFACE_2 = 'GAUCHE'))

#
NUMEGE=NUME_DDL_GENE(  MODELE_GENE=MODEGE)

#
RIGGEN=ASSE_MATR_GENE(  NUME_DDL_GENE=NUMEGE,
                                   OPTION='RIGI_GENE' )

#
MASGEN=ASSE_MATR_GENE(  NUME_DDL_GENE=NUMEGE,
                                   OPTION='MASS_GENE' )

#
#  RECHERCHE DES MODES PROPRES DE LA STRUCTURE COMPLETE
#
RESGEN=MODE_ITER_SIMULT(     MATR_A=RIGGEN,
                                 MATR_B=MASGEN,
                             CALC_FREQ=_F( OPTION = 'BANDE',
                                        FREQ = (100., 2000.,)))

#
#  RESTITUTION SUR LE MAILLAGE GLOBAL
#
GLOBAL=DEFI_SQUELETTE(    MODELE_GENE=MODEGE,SOUS_STRUC=(  
                              _F(  NOM = 'COTE1',
                                           TOUT = 'OUI'), 
                              _F(  NOM = 'COTE2',
                                           TOUT = 'OUI')))

#
MODGLO=REST_SOUS_STRUC(    RESU_GENE=RESGEN,   
                             SQUELETTE=GLOBAL,
                            TOUT_ORDRE='OUI' )

#

TEST_RESU(RESU=(
   _F(   RESULTAT = RESGEN,      PARA = 'FREQ',
           CRITERE = 'RELATIF',     PRECISION = 1.E-2,
           NUME_MODE = 1,       VALE = 115.7),
   _F(   RESULTAT = RESGEN,      PARA = 'FREQ',
           CRITERE = 'RELATIF',     PRECISION = 1.E-2,
           NUME_MODE = 2,       VALE = 442.2),
   _F(   RESULTAT = RESGEN,      PARA = 'FREQ',
           CRITERE = 'RELATIF',     PRECISION = 1.E-2,
           NUME_MODE = 3,         VALE = 648.6),
   _F(   RESULTAT = RESGEN,      PARA = 'FREQ',
           CRITERE = 'RELATIF',     PRECISION = 1.E-2,
           NUME_MODE = 4,       VALE = 931.6),
   _F(   RESULTAT = RESGEN,      PARA = 'FREQ',
           CRITERE = 'RELATIF',     PRECISION = 1.E-2,
           NUME_MODE = 5,       VALE = 1534.))
          )

#
FIN()
#
