# ======================================================================
# COPYRIGHT (C) 1991 - 2016  EDF R&D                  WWW.CODE-ASTER.ORG
# THIS PROGRAM IS FREE SOFTWARE; YOU CAN REDISTRIBUTE IT AND/OR MODIFY
# IT UNDER THE TERMS OF THE GNU GENERAL PUBLIC LICENSE AS PUBLISHED BY
# THE FREE SOFTWARE FOUNDATION; EITHER VERSION 2 OF THE LICENSE, OR
# (AT YOUR OPTION) ANY LATER VERSION.
#
# THIS PROGRAM IS DISTRIBUTED IN THE HOPE THAT IT WILL BE USEFUL, BUT
# WITHOUT ANY WARRANTY; WITHOUT EVEN THE IMPLIED WARRANTY OF
# MERCHANTABILITY OR FITNESS FOR A PARTICULAR PURPOSE. SEE THE GNU
# GENERAL PUBLIC LICENSE FOR MORE DETAILS.
#
# YOU SHOULD HAVE RECEIVED A COPY OF THE GNU GENERAL PUBLIC LICENSE
# ALONG WITH THIS PROGRAM; IF NOT, WRITE TO EDF R&D CODE_ASTER,
#    1 AVENUE DU GENERAL DE GAULLE, 92141 CLAMART CEDEX, FRANCE.
# ======================================================================
# CAS_TEST__: SDLV121E
#
# PROPAGATION, REFLEXION ET ABSORPTION D'UNE ONDE PLANE DANS UN MASSIF
# ELASTIQUE MODELISE SOUS LA FORME D'UNE COLONNE 1D.
# CAS 3D
#=======================================================================
import numpy as N

DEBUT(CODE=_F(NIV_PUB_WEB='INTERNET'));

# PRE_GIBI( );

MAIL=LIRE_MAILLAGE( )

MAIL = MODI_MAILLAGE(reuse=MAIL,
                       MAILLAGE=MAIL,
                       ORIE_PEAU_3D=_F(GROUP_MA=('CONTOUR', ),
                                       GROUP_MA_VOLU=('VOLU', ),),
                       INFO=1,)

MAT1=DEFI_MATERIAU( ELAS=_F(  E = 4.44E+8, RHO = 1900.,  NU = 0.48)
                    )
                    
MAT2=DEFI_MATERIAU( ELAS=_F(  E = 4.44E+8, RHO = 1900.,  NU = 0.48, LONG_CARA=5.)
                    )

INCLUDE(   UNITE=11,   INFO=1 )

MODELE=AFFE_MODELE(    MAILLAGE=MAIL,AFFE=(
                         _F(  GROUP_MA = 'VOLU',
                                PHENOMENE = 'MECANIQUE',
                                MODELISATION = '3D'),
                         _F(  GROUP_MA = 'CONTOUR', 
                                PHENOMENE = 'MECANIQUE',
                                MODELISATION = '3D_ABSO'))
                        )

CHAMPMAT=AFFE_MATERIAU(    MAILLAGE=MAIL,AFFE=(
                   _F(  GROUP_MA = 'VOLU',
                          MATER = MAT1),
                   _F(  GROUP_MA = 'CONTOUR', 
                          MATER = MAT2))
                           )
                           
FONCD=CALC_FONCTION(INTEGRE=_F(FONCTION=FONCT,),   
   PROL_DROITE='CONSTANT',PROL_GAUCHE='CONSTANT',);

ONDE=AFFE_CHAR_MECA_F(  MODELE=MODELE,

                ONDE_PLANE=_F( DIRECTION = (0., 0., 1.,), TYPE_ONDE = 'SH',
                 DIST=-50., DIST_REFLECHI = 0., DEPL_IMPO=FONCD,
                 FONC_SIGNAL = FONCT,GROUP_MA='CONTOUR'))

RIGI_ELE=CALC_MATR_ELEM(    MODELE=MODELE,
                              OPTION='RIGI_MECA',
                              CHAM_MATER=CHAMPMAT,
                              #CHARGE=LIAISON
                            )

MASS_ELE=CALC_MATR_ELEM(    MODELE=MODELE,
                              OPTION='MASS_MECA',
                              CHAM_MATER=CHAMPMAT,
                              #CHARGE=LIAISON
                            )

AMOR_ELE=CALC_MATR_ELEM(    MODELE=MODELE,
                              OPTION='AMOR_MECA',
                              CHAM_MATER=CHAMPMAT,
                              #CHARGE=LIAISON,
                              RIGI_MECA=RIGI_ELE,
                              MASS_MECA=MASS_ELE,
                            )

NUMEDDL=NUME_DDL(    MATR_RIGI=RIGI_ELE,   )


#------------------------------------------------------------------------------------

RIGIDITE=ASSE_MATRICE(    MATR_ELEM=RIGI_ELE,
                            NUME_DDL=NUMEDDL
                          )

AMORT=ASSE_MATRICE(    MATR_ELEM=AMOR_ELE,
                            NUME_DDL=NUMEDDL
                          )

MASSE=ASSE_MATRICE(    MATR_ELEM=MASS_ELE,
                         NUME_DDL=NUMEDDL
                       )

TEMPLI=DEFI_LIST_REEL(DEBUT=0., INTERVALLE=_F( JUSQU_A = 0.8, NOMBRE = 1000))

INTLI=DEFI_LIST_ENTI( DEBUT=1, INTERVALLE=_F( JUSQU_A = 1001, PAS = 1))

DYNA=DYNA_VIBRA(TYPE_CALCUL='TRAN',BASE_CALCUL='PHYS',
                        MODELE=MODELE,
                        MATR_MASS=MASSE,
                        MATR_RIGI=RIGIDITE,
                        MATR_AMOR=AMORT,
                        EXCIT=(
                          _F(  CHARGE = ONDE)),
                        INCREMENT=_F( LIST_INST = TEMPLI),
#                        ARCHIVAGE=_F( LIST_ARCH = INTLI),
                        SCHEMA_TEMPS=_F(SCHEMA='NEWMARK',),
                        )

DXN26=RECU_FONCTION(     RESULTAT=DYNA,   NOEUD='N26',
                         NOM_CHAM='DEPL',
                         NOM_CMP='DX'
                       )

DYN26=RECU_FONCTION(     RESULTAT=DYNA,   NOEUD='N26',
                         NOM_CHAM='DEPL',
                         NOM_CMP='DY'
                       )

DZN26=RECU_FONCTION(     RESULTAT=DYNA,   NOEUD='N26',
                         NOM_CHAM='DEPL',
                         NOM_CMP='DZ'
                       )
                       
IMPR_FONCTION(FORMAT='TABLEAU',
                COURBE=(
                        _F(FONCTION=DXN26,),
                        _F(FONCTION=DYN26,),
                        _F(FONCTION=DZN26,),
                        ),
                UNITE=8,);

TEST_FONCTION(VALEUR=(_F(VALE_CALC=0.0,
                         VALE_REFE=0.0,
                         REFERENCE='ANALYTIQUE',
                         CRITERE='ABSOLU',
                         VALE_PARA=0.2656,
                         FONCTION=DXN26,),
                      _F(VALE_CALC=1.020434271052E-3,
                         VALE_REFE=1.E-3,
                         PRECISION=2.1E-2,
                         REFERENCE='ANALYTIQUE',
                         CRITERE='RELATIF',
                         VALE_PARA=0.2656,
                         FONCTION=DYN26,),
                      _F(VALE_CALC=1.011514250226E-3,
                         VALE_REFE=1.E-3,
                         PRECISION=2.0E-2,
                         REFERENCE='ANALYTIQUE',
                         CRITERE='RELATIF',
                         VALE_PARA=0.44,
                         FONCTION=DYN26,),
                      _F(VALE_CALC=-1.397448169822E-9,
                         VALE_REFE=0.0,
                         REFERENCE='ANALYTIQUE',
                         CRITERE='ABSOLU',
                         VALE_PARA=0.8,
                         FONCTION=DYN26,),
                      _F(VALE_CALC=-9.630528739434E-8,
                         VALE_REFE=0.0,
                         REFERENCE='ANALYTIQUE',
                         CRITERE='ABSOLU',
                         VALE_PARA=0.2656,
                         FONCTION=DZN26,),
                      ),
              )

TEMLI=DEFI_LIST_REEL(DEBUT=0., INTERVALLE=_F( JUSQU_A = 0.72, NOMBRE = 450))

TEMLI2=DEFI_LIST_REEL(DEBUT=0.0016,
        INTERVALLE=_F( JUSQU_A = 0.72, NOMBRE = 449))

INLI=DEFI_LIST_ENTI( DEBUT=1, INTERVALLE=_F( JUSQU_A = 451, PAS = 1))

DYNB=DYNA_NON_LINE(     MODELE=MODELE,
                        CHAM_MATER=CHAMPMAT,
                        EXCIT=(
                          _F(  CHARGE = ONDE)),
                        COMPORTEMENT=_F( RELATION = 'ELAS',
                                      TOUT = 'OUI'),
                        CONVERGENCE=_F( RESI_GLOB_RELA = 1.E-8),
                        SOLVEUR=_F(  #METHODE = 'LDLT',
                                     STOP_SINGULIER = 'NON'),
                        NEWTON=_F(  MATRICE = 'ELASTIQUE',
                                    REAC_INCR = 0,
                                    REAC_ITER = 0),
                        INCREMENT=_F( LIST_INST = TEMLI),
                        SCHEMA_TEMPS=_F(SCHEMA='NEWMARK',
                                FORMULATION='DEPLACEMENT',),
                        )

DXNB26=RECU_FONCTION(   LIST_INST=TEMLI2,   PRECISION=1.E-4,
                         RESULTAT=DYNB,   NOEUD='N26',
                         NOM_CHAM='DEPL',
                         NOM_CMP='DX'
                       )

DYNB26=RECU_FONCTION(   LIST_INST=TEMLI2,   PRECISION=1.E-4,
                         RESULTAT=DYNB,   NOEUD='N26',
                         NOM_CHAM='DEPL',
                         NOM_CMP='DY'
                       )

DZNB26=RECU_FONCTION(   LIST_INST=TEMLI2,   PRECISION=1.E-4,
                         RESULTAT=DYNB,   NOEUD='N26',
                         NOM_CHAM='DEPL',
                         NOM_CMP='DZ'
                       )
                       
IMPR_FONCTION(FORMAT='TABLEAU',
                COURBE=(
                        _F(FONCTION=DXNB26,),
                        _F(FONCTION=DYNB26,),
                        _F(FONCTION=DZNB26,),
                        ),
                UNITE=8,);

TEST_FONCTION(VALEUR=(_F(VALE_CALC=0.0,
                         CRITERE='ABSOLU',
                         VALE_PARA=0.2656,
                         FONCTION=DXNB26,),
                      _F(VALE_CALC=1.020989687779E-3,
                         VALE_REFE=1.0E-3,
                         REFERENCE='AUTRE_ASTER',
                         CRITERE='RELATIF',
                         VALE_PARA=0.2656,
                         PRECISION=2.1E-2,
                         FONCTION=DYNB26,),
                      _F(VALE_CALC=1.014426921099E-3,
                         VALE_REFE=1.0E-3,
                         REFERENCE='AUTRE_ASTER',
                         CRITERE='RELATIF',
                         VALE_PARA=0.44,
                         PRECISION=2.0E-2,
                         FONCTION=DYNB26,),
                      _F(VALE_CALC=-1.397484112993E-9,
                         CRITERE='ABSOLU',
                         VALE_PARA=0.72,
                         FONCTION=DYNB26,),
                      _F(VALE_CALC=-8.044305003452E-8 ,
                         CRITERE='ABSOLU',
                         VALE_PARA=0.2656,
                         FONCTION=DZNB26,),
                      ),
              )

FIN();
