# MODIF  DATE 26/09/2012   AUTEUR LEBOUVIER F.LEBOUVIER 
# TITRE SOUS-STRUCTURATION DYNAMIQUE : POUTRE BI-APPUYEE 
# sdlv302a.para = tps_job 60 mem_job 256Mo ncpus 1 liste_test V
#            CONFIGURATION MANAGEMENT OF EDF VERSION
# ======================================================================
# COPYRIGHT (C) 1991 - 2012  EDF R&D                  WWW.CODE-ASTER.ORG
# THIS PROGRAM IS FREE SOFTWARE; YOU CAN REDISTRIBUTE IT AND/OR MODIFY
# IT UNDER THE TERMS OF THE GNU GENERAL PUBLIC LICENSE AS PUBLISHED BY
# THE FREE SOFTWARE FOUNDATION; EITHER VERSION 2 OF THE LICENSE, OR   
# (AT YOUR OPTION) ANY LATER VERSION.                                 
#
# THIS PROGRAM IS DISTRIBUTED IN THE HOPE THAT IT WILL BE USEFUL, BUT 
# WITHOUT ANY WARRANTY; WITHOUT EVEN THE IMPLIED WARRANTY OF          
# MERCHANTABILITY OR FITNESS FOR A PARTICULAR PURPOSE. SEE THE GNU    
# GENERAL PUBLIC LICENSE FOR MORE DETAILS.                            
#
# YOU SHOULD HAVE RECEIVED A COPY OF THE GNU GENERAL PUBLIC LICENSE   
# ALONG WITH THIS PROGRAM; IF NOT, WRITE TO EDF R&D CODE_ASTER,       
#    1 AVENUE DU GENERAL DE GAULLE, 92141 CLAMART CEDEX, FRANCE.      
# ======================================================================
# CAS_TEST__: SDLV302A
# VALIDATION INDEPENDANTE PAR SAMTECH (H.DRION)
#
#12345678901234567890123456789012345678901234567890123456789012345678901
#
# CE FICHIER DE COMMANDE CONTIENT LES INSTRUCTIONS POUR CALCULER LES
# FREQUENCES  PROPRES D'UNE POUTRE BI-APPUYEE.
# LES VALEURS DE REFERENCE SONT CALCULEES SUR UNE POUTRE DE 
# TIMOSHENKO DEFORMABLE A L'EFFORT TRANCHANT ET TENANT COMPTE DE
# L'INERTIE ROTATOIRE DES SECTIONS.
# 
#
DEBUT(CODE=_F( NOM = 'SDLV302A',NIV_PUB_WEB='INTERNET'))

#
MAT=DEFI_MATERIAU(  ELAS=_F( RHO = 7.8E03,  NU = 0.3,  E = 2.1E11))

#
MAYA=LIRE_MAILLAGE(FORMAT='MED', UNITE=20)

#
CHMAT=AFFE_MATERIAU(  MAILLAGE=MAYA, 
                              AFFE=_F( TOUT = 'OUI', 
                                    MATER = MAT))

#
POVOL=AFFE_MODELE(  MAILLAGE=MAYA,
                              AFFE=_F( TOUT = 'OUI', 
                                  MODELISATION = '3D', 
                                  PHENOMENE = 'MECANIQUE'))

#
FIXAT=AFFE_CHAR_MECA(    MODELE=POVOL,DDL_IMPO=(
                    _F(  GROUP_NO = 'COND1',  DX = 0.,  DY = 0.), 
                    _F(  GROUP_NO = 'COND2',  DY = 0.), 
                    _F(  GROUP_NO = 'COND3',  DZ = 0.)))

#
PLAN_F1=AFFE_CHAR_MECA(   MODELE=POVOL,LIAISON_DDL=(
                            
     _F( NOEUD = ('N1','N21','N9',), DDL = ('DX','DX','DX',),
     COEF_MULT = ( 1.00,   .00000, -1.00000,), COEF_IMPO = 0.),
     _F( NOEUD = ('N2','N21','N9',), DDL = ('DX','DX','DX',),
     COEF_MULT = ( 1.00, -2.00000,  1.00000,), COEF_IMPO = 0.),
     _F( NOEUD = ('N3','N21','N9',), DDL = ('DX','DX','DX',),
     COEF_MULT = ( 1.00, -2.00000,  1.00000,), COEF_IMPO = 0.),
     _F( NOEUD = ('N4','N21','N9',), DDL = ('DX','DX','DX',),
     COEF_MULT = ( 1.00,   .00000, -1.00000,), COEF_IMPO = 0.),
     _F( NOEUD = ('N5','N21','N9',), DDL = ('DX','DX','DX',),
     COEF_MULT = ( 1.00, -2.00000,  1.00000,), COEF_IMPO = 0.),
     _F( NOEUD = ('N6','N21','N9',), DDL = ('DX','DX','DX',),
     COEF_MULT = ( 1.00, -2.00000,  1.00000,), COEF_IMPO = 0.),
     _F( NOEUD = ('N7','N21','N9',), DDL = ('DX','DX','DX',),
     COEF_MULT = ( 1.00, -2.00000,  1.00000,), COEF_IMPO = 0.),
     _F( NOEUD = ('N8','N21','N9',), DDL = ('DX','DX','DX',),
     COEF_MULT = ( 1.00,   .00000, -1.00000,), COEF_IMPO = 0.),
     _F( NOEUD = ('N10','N21','N9',), DDL = ('DX','DX','DX',),
     COEF_MULT = ( 1.00,   .00000, -1.00000,), COEF_IMPO = 0.),
     _F( NOEUD = ('N11','N21','N9',), DDL = ('DX','DX','DX',),
     COEF_MULT = ( 1.00, -1.75000,   .75000,), COEF_IMPO = 0.),
     _F( NOEUD = ('N12','N21','N9',), DDL = ('DX','DX','DX',),
     COEF_MULT = ( 1.00, -1.50000,   .50000,), COEF_IMPO = 0.),
     _F( NOEUD = ('N13','N21','N9',), DDL = ('DX','DX','DX',),
     COEF_MULT = ( 1.00, -1.25000,   .25000,), COEF_IMPO = 0.),
     _F( NOEUD = ('N15','N21','N9',), DDL = ('DX','DX','DX',),
     COEF_MULT = ( 1.00,  -.75000,  -.25000,), COEF_IMPO = 0.),
     _F( NOEUD = ('N16','N21','N9',), DDL = ('DX','DX','DX',),
     COEF_MULT = ( 1.00,  -.50000,  -.50000,), COEF_IMPO = 0.),
     _F( NOEUD = ('N17','N21','N9',), DDL = ('DX','DX','DX',),
     COEF_MULT = ( 1.00,  -.25000,  -.75000,), COEF_IMPO = 0.),
     _F( NOEUD = ('N18','N21','N9',), DDL = ('DX','DX','DX',),
     COEF_MULT = ( 1.00,  -.25000,  -.75000,), COEF_IMPO = 0.),
     _F( NOEUD = ('N19','N21','N9',), DDL = ('DX','DX','DX',),
     COEF_MULT = ( 1.00,  -.50000,  -.50000,), COEF_IMPO = 0.),
     _F( NOEUD = ('N20','N21','N9',), DDL = ('DX','DX','DX',),
     COEF_MULT = ( 1.00,  -.75000,  -.25000,), COEF_IMPO = 0.),
     _F( NOEUD = ('N22','N21','N9',), DDL = ('DX','DX','DX',),
     COEF_MULT = ( 1.00, -1.25000,   .25000,), COEF_IMPO = 0.),
     _F( NOEUD = ('N23','N21','N9',), DDL = ('DX','DX','DX',),
     COEF_MULT = ( 1.00, -1.50000,   .50000,), COEF_IMPO = 0.),
# ... 21 like lines cut
     COEF_MULT = ( 1.00, -1.75000,   .75000,), COEF_IMPO = 0.))
       )

PLAN_F2=AFFE_CHAR_MECA(   MODELE=POVOL,LIAISON_DDL=(
                            
     _F( NOEUD = ('N1481','N1501','N1489',), DDL = ('DX','DX','DX',),
     COEF_MULT = ( 1.00,   .00000, -1.00000,), COEF_IMPO = 0.),
     _F( NOEUD = ('N1482','N1501','N1489',), DDL = ('DX','DX','DX',),
     COEF_MULT = ( 1.00, -2.00000,  1.00000,), COEF_IMPO = 0.),
     _F( NOEUD = ('N1483','N1501','N1489',), DDL = ('DX','DX','DX',),
     COEF_MULT = ( 1.00, -2.00000,  1.00000,), COEF_IMPO = 0.),
     _F( NOEUD = ('N1484','N1501','N1489',), DDL = ('DX','DX','DX',),
     COEF_MULT = ( 1.00,   .00000, -1.00000,), COEF_IMPO = 0.),
     _F( NOEUD = ('N1485','N1501','N1489',), DDL = ('DX','DX','DX',),
     COEF_MULT = ( 1.00, -2.00000,  1.00000,), COEF_IMPO = 0.),
     _F( NOEUD = ('N1486','N1501','N1489',), DDL = ('DX','DX','DX',),
     COEF_MULT = ( 1.00, -2.00000,  1.00000,), COEF_IMPO = 0.),
     _F( NOEUD = ('N1487','N1501','N1489',), DDL = ('DX','DX','DX',),
     COEF_MULT = ( 1.00, -2.00000,  1.00000,), COEF_IMPO = 0.),
     _F( NOEUD = ('N1488','N1501','N1489',), DDL = ('DX','DX','DX',),
     COEF_MULT = ( 1.00,   .00000, -1.00000,), COEF_IMPO = 0.),
     _F( NOEUD = ('N1490','N1501','N1489',), DDL = ('DX','DX','DX',),
     COEF_MULT = ( 1.00,   .00000, -1.00000,), COEF_IMPO = 0.),
     _F( NOEUD = ('N1491','N1501','N1489',), DDL = ('DX','DX','DX',),
     COEF_MULT = ( 1.00, -1.75000,   .75000,), COEF_IMPO = 0.),
     _F( NOEUD = ('N1492','N1501','N1489',), DDL = ('DX','DX','DX',),
     COEF_MULT = ( 1.00, -1.50000,   .50000,), COEF_IMPO = 0.),
     _F( NOEUD = ('N1493','N1501','N1489',), DDL = ('DX','DX','DX',),
     COEF_MULT = ( 1.00, -1.25000,   .25000,), COEF_IMPO = 0.),
     _F( NOEUD = ('N1495','N1501','N1489',), DDL = ('DX','DX','DX',),
     COEF_MULT = ( 1.00,  -.75000,  -.25000,), COEF_IMPO = 0.),
     _F( NOEUD = ('N1496','N1501','N1489',), DDL = ('DX','DX','DX',),
     COEF_MULT = ( 1.00,  -.50000,  -.50000,), COEF_IMPO = 0.),
     _F( NOEUD = ('N1497','N1501','N1489',), DDL = ('DX','DX','DX',),
     COEF_MULT = ( 1.00,  -.25000,  -.75000,), COEF_IMPO = 0.),
     _F( NOEUD = ('N1498','N1501','N1489',), DDL = ('DX','DX','DX',),
     COEF_MULT = ( 1.00,  -.25000,  -.75000,), COEF_IMPO = 0.),
     _F( NOEUD = ('N1499','N1501','N1489',), DDL = ('DX','DX','DX',),
     COEF_MULT = ( 1.00,  -.50000,  -.50000,), COEF_IMPO = 0.),
     _F( NOEUD = ('N1500','N1501','N1489',), DDL = ('DX','DX','DX',),
     COEF_MULT = ( 1.00,  -.75000,  -.25000,), COEF_IMPO = 0.),
     _F( NOEUD = ('N1502','N1501','N1489',), DDL = ('DX','DX','DX',),
     COEF_MULT = ( 1.00, -1.25000,   .25000,), COEF_IMPO = 0.),
     _F( NOEUD = ('N1503','N1501','N1489',), DDL = ('DX','DX','DX',),
     COEF_MULT = ( 1.00, -1.50000,   .50000,), COEF_IMPO = 0.),
# ... 21 like lines cut
     COEF_MULT = ( 1.00, -1.75000,   .75000,), COEF_IMPO = 0.))
       )

#
K_ELEM=CALC_MATR_ELEM(      MODELE=POVOL, 
                            CHAM_MATER=CHMAT, 
                               OPTION='RIGI_MECA', 
                                CHARGE=( FIXAT, 
                                       PLAN_F1, 
                                       PLAN_F2, ))

#
M_ELEM=CALC_MATR_ELEM(      MODELE=POVOL, 
                            CHAM_MATER=CHMAT,
                               OPTION='MASS_MECA', 
                                CHARGE=( FIXAT, 
                                       PLAN_F1, 
                                       PLAN_F2, ))

#
NUMERO=NUME_DDL(  MATR_RIGI=K_ELEM)

#
K_ASSE=ASSE_MATRICE(  MATR_ELEM=K_ELEM, 
                           NUME_DDL=NUMERO)

#
M_ASSE=ASSE_MATRICE(  MATR_ELEM=M_ELEM, 
                           NUME_DDL=NUMERO)

#
MODES=MODE_ITER_SIMULT(     MATR_RIGI=K_ASSE, 
                                 MATR_MASS=M_ASSE, 
                             CALC_FREQ=_F( NMAX_FREQ = 10))


#

TEST_RESU(RESU=(
   _F(   RESULTAT = MODES,       PARA = 'FREQ',
           CRITERE = 'RELATIF',     PRECISION = 1.E-2,
           NUME_ORDRE = 1,       VALE = 115.7),
   _F(   RESULTAT = MODES,       PARA = 'FREQ',
           CRITERE = 'RELATIF',     PRECISION = 1.E-2,
           NUME_ORDRE = 2,       VALE = 442.2),
   _F(   RESULTAT = MODES,       PARA = 'FREQ',
           CRITERE = 'RELATIF',     PRECISION = 1.E-2,
           NUME_ORDRE = 3,         VALE = 648.6),
   _F(   RESULTAT = MODES,       PARA = 'FREQ',
           CRITERE = 'RELATIF',     PRECISION = 1.E-2,
           NUME_ORDRE = 4,       VALE = 931.6),
   _F(   RESULTAT = MODES,       PARA = 'FREQ',
           CRITERE = 'RELATIF',     PRECISION = 1.E-2,
           NUME_ORDRE = 5,       VALE = 1534.))
          )

#
FIN()
#






