# TITRE PRISE EN COMPTE D'UN MASSIF GENERALISE DANS LES ETUDES DE ROTORS
#            CONFIGURATION MANAGEMENT OF EDF VERSION
# ======================================================================
# COPYRIGHT (C) 1991 - 2012  EDF R&D                  WWW.CODE-ASTER.ORG
# THIS PROGRAM IS FREE SOFTWARE; YOU CAN REDISTRIBUTE IT AND/OR MODIFY  
# IT UNDER THE TERMS OF THE GNU GENERAL PUBLIC LICENSE AS PUBLISHED BY  
# THE FREE SOFTWARE FOUNDATION; EITHER VERSION 2 OF THE LICENSE, OR     
# (AT YOUR OPTION) ANY LATER VERSION.                                                    
#                                                                       
# THIS PROGRAM IS DISTRIBUTED IN THE HOPE THAT IT WILL BE USEFUL, BUT   
# WITHOUT ANY WARRANTY; WITHOUT EVEN THE IMPLIED WARRANTY OF            
# MERCHANTABILITY OR FITNESS FOR A PARTICULAR PURPOSE. SEE THE GNU      
# GENERAL PUBLIC LICENSE FOR MORE DETAILS.                              
#                                                                       
# YOU SHOULD HAVE RECEIVED A COPY OF THE GNU GENERAL PUBLIC LICENSE     
# ALONG WITH THIS PROGRAM; IF NOT, WRITE TO EDF R&D CODE_ASTER,         
#    1 AVENUE DU GENERAL DE GAULLE, 92141 CLAMART CEDEX, FRANCE.        
# ======================================================================
# CAS_TEST__: SDLV132B  (EQUIVALENT SDLV132A AVEC UTILISATION DE
#          CREA_ELEM_SSD ET ASSE_ELEM_SSD ET SANS LE CALCUL DIRECT)
#

DEBUT(CODE=_F(NOM='SDLV132B',
              NIV_PUB_WEB='INTERNET',
              VISU_EFICAS='OUI',),
              PAR_LOT='OUI',
#              IMPR_MACRO='OUI',
              DEBUG=_F(SDVERI='OUI'),);


MA1=LIRE_MAILLAGE(UNITE=22);
#--------------------------------------------------------------------

MO1=AFFE_MODELE(MAILLAGE=MA1,
                AFFE=_F(TOUT='OUI',
                        PHENOMENE='MECANIQUE',
                        MODELISATION='POU_D_T',),);
#--------------------------------------------------------------------

CARELEM1=AFFE_CARA_ELEM(MODELE=MO1,
                        POUTRE=_F(GROUP_MA='MASSIF',
                                  SECTION='CERCLE',
                                  CARA=('R',),
                                  VALE=(0.4,),),);
#--------------------------------------------------------------------

MAT1=DEFI_MATERIAU(ELAS=_F(E=2.1E11,
                          NU=0.,
                          RHO=7800.,
                          ),);
# ---------------------------------------------------------------------

CHMAT1=AFFE_MATERIAU(MAILLAGE=MA1,
                     AFFE=_F(TOUT='OUI',
                             MATER=MAT1,),);

CH1_CB=AFFE_CHAR_MECA(MODELE=MO1,
                   DDL_IMPO=(_F(GROUP_NO='BLOC',
                               DX=0.0,
                               DY=0.0,
                               DZ=0.0,
                               DRX=0.0,
                               DRY=0.0,
                               DRZ=0.0,),
                            _F(GROUP_NO=('NOPAL1','NOPAL2'),
                               DX=0.0,
                               DY=0.0,
                               DZ=0.0,
                               DRX=0.0,
                               DRY=0.0,
                               DRZ=0.0,),
                             ),
                             );

#-------------------------------------------------------------------
# CALCUL DU MACRO-ELEMENT DYNAMIQUE
#-------------------------------------------------------------------

MACR1 = CREA_ELEM_SSD(
                 MODELE=MO1,
                 CHAM_MATER=CHMAT1,
                 CARA_ELEM=CARELEM1,
                 CHARGE=CH1_CB,
                 NUME_DDL=CO('NUMDDL1'),
                 INTERFACE=_F(NOM='PALIER_S',
                              TYPE='CRAIGB',
                              GROUP_NO=('NOPAL1','NOPAL2'),), #NOEUD=('N31','N32')
                 BASE_MODALE = _F( TYPE = 'CLASSIQUE',),
                 CALC_FREQ = _F(
                       OPTION='BANDE',
                     #  FREQ=(200.,800.),
                       FREQ=(200.,600.,800.),
                       DIM_SOUS_ESPACE=9,),
                )


#IMPR_CO(CONCEPT=_F(NOM=MACR1))

MA2=LIRE_MAILLAGE(UNITE=23);
#--------------------------------------------------------------------

MO2=AFFE_MODELE(MAILLAGE=MA2,
                   AFFE=(_F(GROUP_MA=('ROTOR'),
                           PHENOMENE='MECANIQUE',
                           MODELISATION='POU_D_T',),
                         _F(GROUP_MA=('PALIER1','PALIER2'),
                           PHENOMENE='MECANIQUE',
                           MODELISATION='DIS_TR',),
                         )
                       )
#--------------------------------------------------------------------

CARELEM2=AFFE_CARA_ELEM(MODELE=MO2,
                        POUTRE=_F(GROUP_MA='ROTOR',
                                  SECTION='CERCLE',
                                  CARA=('R',),
                                  VALE=(0.1,),),
                        DISCRET=(_F(GROUP_MA='PALIER1',
                                   CARA='K_TR_D_L',
                                   VALE=(0.0,1.E12,1.E12,0.0,0.0,0.0,),),
                                 _F(GROUP_MA='PALIER1',
                                   CARA='M_TR_L',
                                   VALE=(0.,0.,0.,0.,0.,0.,0.,0.,0.,0.,0.,0.,0.,0.,0.,0.,0.,0.,0.,0.,
                                   0.,0.,0.,0.,0.,0.,0.,0.,0.,0.,0.,0.,0.,0.,0.,0.,0.,0.,0.,0.,
                                   0.,0.,0.,0.,0.,0.,0.,0.,0.,0.,0.,0.,0.,0.,0.,0.,0.,0.,0.,0.,
                                   0.,0.,0.,0.,0.,0.,0.,0.,0.,0.,0.,0.,0.,0.,0.,0.,0.,0.,),),
                                _F(GROUP_MA='PALIER2',
                                   CARA='K_TR_D_L',
                                   VALE=(0.0,1.E12,1.E12,0.0,0.0,0.0,),),
                                 _F(GROUP_MA='PALIER2',
                                   CARA='M_TR_L',
                                   VALE=(0.,0.,0.,0.,0.,0.,0.,0.,0.,0.,0.,0.,0.,0.,0.,0.,0.,0.,0.,0.,
                                   0.,0.,0.,0.,0.,0.,0.,0.,0.,0.,0.,0.,0.,0.,0.,0.,0.,0.,0.,0.,
                                   0.,0.,0.,0.,0.,0.,0.,0.,0.,0.,0.,0.,0.,0.,0.,0.,0.,0.,0.,0.,
                                   0.,0.,0.,0.,0.,0.,0.,0.,0.,0.,0.,0.,0.,0.,0.,0.,0.,0.,),),
                                _F(GROUP_MA='PALIER1',
                                   CARA='A_TR_D_L',
                                   VALE=(0.0,0.0,0.0,0.0,0.0,0.0,),),
                                _F(GROUP_MA='PALIER2',
                                   CARA='A_TR_D_L',
                                   VALE=(0.0,0.0,0.0,0.0,0.0,0.0,),),
                                ),
                        );
#--------------------------------------------------------------------

MAT2=DEFI_MATERIAU(ELAS=_F(E=2.1E11,
                          NU=0.,
                          RHO=7800.,
                                         AMOR_HYST=0.0,
                          ),);
# ---------------------------------------------------------------------

CHMAT2=AFFE_MATERIAU(MAILLAGE=MA2,
                     AFFE=_F(TOUT='OUI',
                             MATER=MAT2,),);

CH2=AFFE_CHAR_MECA(MODELE=MO2,
                   DDL_IMPO=(
                             _F(GROUP_NO=('NOPAL1','NOPAL2'),
                               DX=0.0,
                               DY=0.0,
                               DZ=0.0,
                               DRX=0.0,
                               DRY=0.0,
                               DRZ=0.0,
                               ),
                             _F(NOEUD=('N37'),
                               DX=0.0,
                               DRX=0.0,),
                             ),
                             );
#-------------------------------------------------------------------
# CALCUL DU MACRO-ELEMENT DYNAMIQUE
#-------------------------------------------------------------------

MACR2 = CREA_ELEM_SSD(
                 MODELE=MO2,
                 CHAM_MATER=CHMAT2,
                 CARA_ELEM=CARELEM2,
                 CHARGE=CH2,
                 INTERFACE=_F(NOM='PALIER_R',
                              TYPE='CRAIGB',
                              GROUP_NO=('NOPAL1','NOPAL2'),), #NOEUD=('N31','N32')
                 BASE_MODALE = _F( TYPE = 'CLASSIQUE',),
                 CALC_FREQ = _F(
                       DIM_SOUS_ESPACE=9,
                       OPTION='BANDE',
                     #  FREQ=(1.,900.),
                       FREQ=(1.,300.,700.,900.),
                       STOP_ERREUR = 'NON',),
                )


#
#  DEFINITION DU MODELE GENERALISE
#------------------------------------------------------------------

ASSE_ELEM_SSD(
                RESU_ASSE_SSD = _F(
                               MODELE = CO('MODEGE'),
                               NUME_DDL_GENE = CO('NUMEGE'),
                               RIGI_GENE = CO('RIGGEN'),
                               MASS_GENE = CO('MASGEN'),
                             ),
                SOUS_STRUC=(_F( NOM = 'COTE1',
                                MACR_ELEM_DYNA = MACR1,),
                            _F( NOM = 'COTE2',
                                MACR_ELEM_DYNA = MACR2,),
                           ),
                LIAISON=_F( SOUS_STRUC_1 = 'COTE1',
                            SOUS_STRUC_2 = 'COTE2',
                            INTERFACE_1 = 'PALIER_S',
                            INTERFACE_2 = 'PALIER_R'),
                VERIF=_F( STOP_ERREUR = 'OUI',
                          PRECISION = 1.E-6,
                          CRITERE = 'RELATIF'),
              )


#  CALCUL DES MODES PROPRES DE LA STRUCTURE GLOBALE
#------------------------------------------------------------------

RESGEN=MODE_ITER_SIMULT(MATR_RIGI=RIGGEN,
                        MATR_MASS=MASGEN,
                                  CALC_FREQ=_F(OPTION='BANDE',
                                     FREQ=(0.,400.),),
                                  VERI_MODE=_F(STOP_ERREUR='NON',
                                     SEUIL=9.9999999999999995E-07),
                            );


#
#   CREATION DU MAILLAGE SQUELETTE DE LA STRUCTURE GLOBALE
#
SQUEL=DEFI_SQUELETTE(  MODELE_GENE=MODEGE,SOUS_STRUC=(
                            _F( NOM = 'COTE1',
                                        GROUP_MA = ('MASSIF',)),
                            _F( NOM = 'COTE2',
                                        GROUP_MA = ('ROTOR',)))
                           )

#
#   RESTITUTION SUR MAILLAGE SQUELETTE
#
MODGLO=REST_SOUS_STRUC(   RESU_GENE=RESGEN,
                          SQUELETTE=SQUEL,
                          TOUT_ORDRE='OUI')

TEST_RESU(RESU=(_F(NUME_ORDRE=1,
                   PARA='FREQ',
                   REFERENCE='SOURCE_EXTERNE',
                   RESULTAT=RESGEN,
                   VALE_CALC=100.675773342,
                   VALE_REFE=100.717,
                   CRITERE='RELATIF',
                   PRECISION=1.E-2,),
                _F(NUME_ORDRE=2,
                   PARA='FREQ',
                   REFERENCE='SOURCE_EXTERNE',
                   RESULTAT=RESGEN,
                   VALE_CALC=100.827932088,
                   VALE_REFE=100.866,
                   CRITERE='RELATIF',
                   PRECISION=1.E-2,),
                _F(NUME_ORDRE=3,
                   PARA='FREQ',
                   REFERENCE='SOURCE_EXTERNE',
                   RESULTAT=RESGEN,
                   VALE_CALC=219.933911602,
                   VALE_REFE=221.06399999999999,
                   CRITERE='RELATIF',
                   PRECISION=1.E-2,),
                _F(NUME_ORDRE=4,
                   PARA='FREQ',
                   REFERENCE='SOURCE_EXTERNE',
                   RESULTAT=RESGEN,
                   VALE_CALC=256.822711721,
                   VALE_REFE=259.14299999999997,
                   CRITERE='RELATIF',
                   PRECISION=1.E-2,),
                _F(NUME_ORDRE=5,
                   PARA='FREQ',
                   REFERENCE='SOURCE_EXTERNE',
                   RESULTAT=RESGEN,
                   VALE_CALC=348.884519856,
                   VALE_REFE=342.98099999999999,
                   CRITERE='RELATIF',
                   PRECISION=0.050000000000000003,),
                _F(NUME_ORDRE=6,
                   PARA='FREQ',
                   REFERENCE='SOURCE_EXTERNE',
                   RESULTAT=RESGEN,
                   VALE_CALC=392.003587181,
                   VALE_REFE=392.524,
                   CRITERE='RELATIF',
                   PRECISION=1.E-2,),
                _F(NUME_ORDRE=7,
                   PARA='FREQ',
                   REFERENCE='SOURCE_EXTERNE',
                   RESULTAT=RESGEN,
                   VALE_CALC=398.334886252,
                   VALE_REFE=397.55599999999998,
                   CRITERE='RELATIF',
                   PRECISION=1.E-2,),
                ),
          )

FIN();

