# MODIF  DATE 26/09/2012   AUTEUR LEBOUVIER F.LEBOUVIER 
# TITRE CALCUL DES FREQUENCES PROPRES D''UNE POUTRE BI APPUYEE AMORTIE
# sdlv302d.para = tps_job 70 mem_job 256Mo ncpus 1 liste_test V
#            CONFIGURATION MANAGEMENT OF EDF VERSION
# ======================================================================
# COPYRIGHT (C) 1991 - 2012  EDF R&D                  WWW.CODE-ASTER.ORG
# THIS PROGRAM IS FREE SOFTWARE; YOU CAN REDISTRIBUTE IT AND/OR MODIFY  
# IT UNDER THE TERMS OF THE GNU GENERAL PUBLIC LICENSE AS PUBLISHED BY  
# THE FREE SOFTWARE FOUNDATION; EITHER VERSION 2 OF THE LICENSE, OR     
# (AT YOUR OPTION) ANY LATER VERSION.                                                    
#                                                                       
# THIS PROGRAM IS DISTRIBUTED IN THE HOPE THAT IT WILL BE USEFUL, BUT   
# WITHOUT ANY WARRANTY; WITHOUT EVEN THE IMPLIED WARRANTY OF            
# MERCHANTABILITY OR FITNESS FOR A PARTICULAR PURPOSE. SEE THE GNU      
# GENERAL PUBLIC LICENSE FOR MORE DETAILS.                              
#                                                                       
# YOU SHOULD HAVE RECEIVED A COPY OF THE GNU GENERAL PUBLIC LICENSE     
# ALONG WITH THIS PROGRAM; IF NOT, WRITE TO EDF R&D CODE_ASTER,         
#    1 AVENUE DU GENERAL DE GAULLE, 92141 CLAMART CEDEX, FRANCE.        
# ======================================================================
#
# AMORTISSEMENT VISQUEUX PROPORTIONNEL
# ELEMENTS  : HEXA20
# REFERENCE : ANALYTIQUE

DEBUT(CODE=_F( NOM = 'SDLV302D',NIV_PUB_WEB='INTERNET'))


ACIER=DEFI_MATERIAU(ELAS=_F(E=210000000000.0,
                            NU=0.3,
                            RHO=7800.0,
                            AMOR_ALPHA=0.000114110022,
                            AMOR_BETA=230.4812469,
                            ),);

MAYA=LIRE_MAILLAGE(FORMAT='MED',);

MATER=AFFE_MATERIAU(MAILLAGE=MAYA,
                    AFFE=_F(TOUT='OUI',
                            MATER=ACIER,),);

STRUCTUR=AFFE_MODELE(MAILLAGE=MAYA,
                     AFFE=_F(TOUT='OUI',
                             PHENOMENE='MECANIQUE',
                             MODELISATION='3D',),);

FIXA=AFFE_CHAR_MECA(MODELE=STRUCTUR,
                    DDL_IMPO=(_F(GROUP_NO='COND1',
                                 DX=0.0,
                                 DY=0.0,),
                              _F(GROUP_NO='COND2',
                                 DY=0.0,),
                              _F(GROUP_NO='COND3',
                                 DZ=0.0,),),);

PLAN_X0=AFFE_CHAR_MECA(MODELE=STRUCTUR,
                       LIAISON_DDL=(_F(NOEUD=('N1','N21','N9',),
                                       DDL=('DX','DX','DX',),
                                       COEF_MULT=(1.0,0.0,-1.0,),
                                       COEF_IMPO=0.0,),
                                    _F(NOEUD=('N2','N21','N9',),
                                       DDL=('DX','DX','DX',),
                                       COEF_MULT=(1.0,-2.0,1.0,),
                                       COEF_IMPO=0.0,),
                                    _F(NOEUD=('N3','N21','N9',),
                                       DDL=('DX','DX','DX',),
                                       COEF_MULT=(1.0,-2.0,1.0,),
                                       COEF_IMPO=0.0,),
                                    _F(NOEUD=('N4','N21','N9',),
                                       DDL=('DX','DX','DX',),
                                       COEF_MULT=(1.0,0.0,-1.0,),
                                       COEF_IMPO=0.0,),
                                    _F(NOEUD=('N5','N21','N9',),
                                       DDL=('DX','DX','DX',),
                                       COEF_MULT=(1.0,-2.0,1.0,),
                                       COEF_IMPO=0.0,),
                                    _F(NOEUD=('N6','N21','N9',),
                                       DDL=('DX','DX','DX',),
                                       COEF_MULT=(1.0,-2.0,1.0,),
                                       COEF_IMPO=0.0,),
                                    _F(NOEUD=('N7','N21','N9',),
                                       DDL=('DX','DX','DX',),
                                       COEF_MULT=(1.0,-2.0,1.0,),
                                       COEF_IMPO=0.0,),
                                    _F(NOEUD=('N8','N21','N9',),
                                       DDL=('DX','DX','DX',),
                                       COEF_MULT=(1.0,0.0,-1.0,),
                                       COEF_IMPO=0.0,),
                                    _F(NOEUD=('N10','N21','N9',),
                                       DDL=('DX','DX','DX',),
                                       COEF_MULT=(1.0,0.0,-1.0,),
                                       COEF_IMPO=0.0,),
                                    _F(NOEUD=('N11','N21','N9',),
                                       DDL=('DX','DX','DX',),
                                       COEF_MULT=(1.0,-1.75,0.75,),
                                       COEF_IMPO=0.0,),
                                    _F(NOEUD=('N12','N21','N9',),
                                       DDL=('DX','DX','DX',),
                                       COEF_MULT=(1.0,-1.5,0.5,),
                                       COEF_IMPO=0.0,),
                                    _F(NOEUD=('N13','N21','N9',),
                                       DDL=('DX','DX','DX',),
                                       COEF_MULT=(1.0,-1.25,0.25,),
                                       COEF_IMPO=0.0,),
                                    _F(NOEUD=('N15','N21','N9',),
                                       DDL=('DX','DX','DX',),
                                       COEF_MULT=(1.0,-0.75,-0.25,),
                                       COEF_IMPO=0.0,),
                                    _F(NOEUD=('N16','N21','N9',),
                                       DDL=('DX','DX','DX',),
                                       COEF_MULT=(1.0,-0.5,-0.5,),
                                       COEF_IMPO=0.0,),
                                    _F(NOEUD=('N17','N21','N9',),
                                       DDL=('DX','DX','DX',),
                                       COEF_MULT=(1.0,-0.25,-0.75,),
                                       COEF_IMPO=0.0,),
                                    _F(NOEUD=('N18','N21','N9',),
                                       DDL=('DX','DX','DX',),
                                       COEF_MULT=(1.0,-0.25,-0.75,),
                                       COEF_IMPO=0.0,),
                                    _F(NOEUD=('N19','N21','N9',),
                                       DDL=('DX','DX','DX',),
                                       COEF_MULT=(1.0,-0.5,-0.5,),
                                       COEF_IMPO=0.0,),
                                    _F(NOEUD=('N20','N21','N9',),
                                       DDL=('DX','DX','DX',),
                                       COEF_MULT=(1.0,-0.75,-0.25,),
                                       COEF_IMPO=0.0,),
                                    _F(NOEUD=('N22','N21','N9',),
                                       DDL=('DX','DX','DX',),
                                       COEF_MULT=(1.0,-1.25,0.25,),
                                       COEF_IMPO=0.0,),
                                    _F(NOEUD=('N23','N21','N9',),
                                       DDL=('DX','DX','DX',),
                                       COEF_MULT=(1.0,-1.5,0.5,),
                                       COEF_IMPO=0.0,),
                                    _F(NOEUD=('N24','N21','N9',),
                                       DDL=('DX','DX','DX',),
                                       COEF_MULT=(1.0,-1.75,0.75,),
                                       COEF_IMPO=0.0,),
                                    _F(NOEUD=('N25','N21','N9',),
                                       DDL=('DX','DX','DX',),
                                       COEF_MULT=(1.0,-0.5,-0.5,),
                                       COEF_IMPO=0.0,),
                                    _F(NOEUD=('N27','N21','N9',),
                                       DDL=('DX','DX','DX',),
                                       COEF_MULT=(1.0,-1.5,0.5,),
                                       COEF_IMPO=0.0,),
                                    _F(NOEUD=('N28','N21','N9',),
                                       DDL=('DX','DX','DX',),
                                       COEF_MULT=(1.0,-0.5,-0.5,),
                                       COEF_IMPO=0.0,),
                                    _F(NOEUD=('N29','N21','N9',),
                                       DDL=('DX','DX','DX',),
                                       COEF_MULT=(1.0,-0.25,-0.75,),
                                       COEF_IMPO=0.0,),
                                    _F(NOEUD=('N30','N21','N9',),
                                       DDL=('DX','DX','DX',),
                                       COEF_MULT=(1.0,-0.5,-0.5,),
                                       COEF_IMPO=0.0,),
                                    _F(NOEUD=('N32','N21','N9',),
                                       DDL=('DX','DX','DX',),
                                       COEF_MULT=(1.0,-0.75,-0.25,),
                                       COEF_IMPO=0.0,),
                                    _F(NOEUD=('N34','N21','N9',),
                                       DDL=('DX','DX','DX',),
                                       COEF_MULT=(1.0,-1.5,0.5,),
                                       COEF_IMPO=0.0,),
                                    _F(NOEUD=('N35','N21','N9',),
                                       DDL=('DX','DX','DX',),
                                       COEF_MULT=(1.0,-1.25,0.25,),
                                       COEF_IMPO=0.0,),
                                    _F(NOEUD=('N36','N21','N9',),
                                       DDL=('DX','DX','DX',),
                                       COEF_MULT=(1.0,-1.5,0.5,),
                                       COEF_IMPO=0.0,),
                                    _F(NOEUD=('N37','N21','N9',),
                                       DDL=('DX','DX','DX',),
                                       COEF_MULT=(1.0,-1.75,0.75,),
                                       COEF_IMPO=0.0,),),);

PLAN_XL=AFFE_CHAR_MECA(MODELE=STRUCTUR,
                       LIAISON_DDL=(_F(NOEUD=('N1481','N1501','N1489',),
                                       DDL=('DX','DX','DX',),
                                       COEF_MULT=(1.0,0.0,-1.0,),
                                       COEF_IMPO=0.0,),
                                    _F(NOEUD=('N1482','N1501','N1489',),
                                       DDL=('DX','DX','DX',),
                                       COEF_MULT=(1.0,-2.0,1.0,),
                                       COEF_IMPO=0.0,),
                                    _F(NOEUD=('N1483','N1501','N1489',),
                                       DDL=('DX','DX','DX',),
                                       COEF_MULT=(1.0,-2.0,1.0,),
                                       COEF_IMPO=0.0,),
                                    _F(NOEUD=('N1484','N1501','N1489',),
                                       DDL=('DX','DX','DX',),
                                       COEF_MULT=(1.0,0.0,-1.0,),
                                       COEF_IMPO=0.0,),
                                    _F(NOEUD=('N1485','N1501','N1489',),
                                       DDL=('DX','DX','DX',),
                                       COEF_MULT=(1.0,-2.0,1.0,),
                                       COEF_IMPO=0.0,),
                                    _F(NOEUD=('N1486','N1501','N1489',),
                                       DDL=('DX','DX','DX',),
                                       COEF_MULT=(1.0,-2.0,1.0,),
                                       COEF_IMPO=0.0,),
                                    _F(NOEUD=('N1487','N1501','N1489',),
                                       DDL=('DX','DX','DX',),
                                       COEF_MULT=(1.0,-2.0,1.0,),
                                       COEF_IMPO=0.0,),
                                    _F(NOEUD=('N1488','N1501','N1489',),
                                       DDL=('DX','DX','DX',),
                                       COEF_MULT=(1.0,0.0,-1.0,),
                                       COEF_IMPO=0.0,),
                                    _F(NOEUD=('N1490','N1501','N1489',),
                                       DDL=('DX','DX','DX',),
                                       COEF_MULT=(1.0,0.0,-1.0,),
                                       COEF_IMPO=0.0,),
                                    _F(NOEUD=('N1491','N1501','N1489',),
                                       DDL=('DX','DX','DX',),
                                       COEF_MULT=(1.0,-1.75,0.75,),
                                       COEF_IMPO=0.0,),
                                    _F(NOEUD=('N1492','N1501','N1489',),
                                       DDL=('DX','DX','DX',),
                                       COEF_MULT=(1.0,-1.5,0.5,),
                                       COEF_IMPO=0.0,),
                                    _F(NOEUD=('N1493','N1501','N1489',),
                                       DDL=('DX','DX','DX',),
                                       COEF_MULT=(1.0,-1.25,0.25,),
                                       COEF_IMPO=0.0,),
                                    _F(NOEUD=('N1495','N1501','N1489',),
                                       DDL=('DX','DX','DX',),
                                       COEF_MULT=(1.0,-0.75,-0.25,),
                                       COEF_IMPO=0.0,),
                                    _F(NOEUD=('N1496','N1501','N1489',),
                                       DDL=('DX','DX','DX',),
                                       COEF_MULT=(1.0,-0.5,-0.5,),
                                       COEF_IMPO=0.0,),
                                    _F(NOEUD=('N1497','N1501','N1489',),
                                       DDL=('DX','DX','DX',),
                                       COEF_MULT=(1.0,-0.25,-0.75,),
                                       COEF_IMPO=0.0,),
                                    _F(NOEUD=('N1498','N1501','N1489',),
                                       DDL=('DX','DX','DX',),
                                       COEF_MULT=(1.0,-0.25,-0.75,),
                                       COEF_IMPO=0.0,),
                                    _F(NOEUD=('N1499','N1501','N1489',),
                                       DDL=('DX','DX','DX',),
                                       COEF_MULT=(1.0,-0.5,-0.5,),
                                       COEF_IMPO=0.0,),
                                    _F(NOEUD=('N1500','N1501','N1489',),
                                       DDL=('DX','DX','DX',),
                                       COEF_MULT=(1.0,-0.75,-0.25,),
                                       COEF_IMPO=0.0,),
                                    _F(NOEUD=('N1502','N1501','N1489',),
                                       DDL=('DX','DX','DX',),
                                       COEF_MULT=(1.0,-1.25,0.25,),
                                       COEF_IMPO=0.0,),
                                    _F(NOEUD=('N1503','N1501','N1489',),
                                       DDL=('DX','DX','DX',),
                                       COEF_MULT=(1.0,-1.5,0.5,),
                                       COEF_IMPO=0.0,),
                                    _F(NOEUD=('N1504','N1501','N1489',),
                                       DDL=('DX','DX','DX',),
                                       COEF_MULT=(1.0,-1.75,0.75,),
                                       COEF_IMPO=0.0,),
                                    _F(NOEUD=('N1505','N1501','N1489',),
                                       DDL=('DX','DX','DX',),
                                       COEF_MULT=(1.0,-0.5,-0.5,),
                                       COEF_IMPO=0.0,),
                                    _F(NOEUD=('N1507','N1501','N1489',),
                                       DDL=('DX','DX','DX',),
                                       COEF_MULT=(1.0,-1.5,0.5,),
                                       COEF_IMPO=0.0,),
                                    _F(NOEUD=('N1508','N1501','N1489',),
                                       DDL=('DX','DX','DX',),
                                       COEF_MULT=(1.0,-0.5,-0.5,),
                                       COEF_IMPO=0.0,),
                                    _F(NOEUD=('N1509','N1501','N1489',),
                                       DDL=('DX','DX','DX',),
                                       COEF_MULT=(1.0,-0.25,-0.75,),
                                       COEF_IMPO=0.0,),
                                    _F(NOEUD=('N1510','N1501','N1489',),
                                       DDL=('DX','DX','DX',),
                                       COEF_MULT=(1.0,-0.5,-0.5,),
                                       COEF_IMPO=0.0,),
                                    _F(NOEUD=('N1512','N1501','N1489',),
                                       DDL=('DX','DX','DX',),
                                       COEF_MULT=(1.0,-0.75,-0.25,),
                                       COEF_IMPO=0.0,),
                                    _F(NOEUD=('N1514','N1501','N1489',),
                                       DDL=('DX','DX','DX',),
                                       COEF_MULT=(1.0,-1.5,0.5,),
                                       COEF_IMPO=0.0,),
                                    _F(NOEUD=('N1515','N1501','N1489',),
                                       DDL=('DX','DX','DX',),
                                       COEF_MULT=(1.0,-1.25,0.25,),
                                       COEF_IMPO=0.0,),
                                    _F(NOEUD=('N1516','N1501','N1489',),
                                       DDL=('DX','DX','DX',),
                                       COEF_MULT=(1.0,-1.5,0.5,),
                                       COEF_IMPO=0.0,),
                                    _F(NOEUD=('N1517','N1501','N1489',),
                                       DDL=('DX','DX','DX',),
                                       COEF_MULT=(1.0,-1.75,0.75,),
                                       COEF_IMPO=0.0,),),);
# CALCUL DES MATRICES ELEMENTAIRES DE RIGIDITE ET DE MASSE
#
#
#


K_ELEM=CALC_MATR_ELEM(OPTION='RIGI_MECA',
                      MODELE=STRUCTUR,
                      CHAM_MATER=MATER,
                      CHARGE=(FIXA,PLAN_X0,PLAN_XL,),);

M_ELEM=CALC_MATR_ELEM(OPTION='MASS_MECA',
                      MODELE=STRUCTUR,
                      CHAM_MATER=MATER,
                      CHARGE=(FIXA,PLAN_X0,PLAN_XL,),);

C_ELEM=CALC_MATR_ELEM(OPTION='AMOR_MECA',
                      MODELE=STRUCTUR,
                      CHAM_MATER=MATER,
                      RIGI_MECA=K_ELEM,
                      MASS_MECA=M_ELEM,);
# NUMEROTATION
#
#
#


NUMERO=NUME_DDL(MATR_RIGI=K_ELEM,);
# ASSEMBLAGE DES MATRICES DE RIGIDITE ET DE MASSE
#
#
#


K_ASSE=ASSE_MATRICE(MATR_ELEM=K_ELEM,
                    NUME_DDL=NUMERO,);

M_ASSE=ASSE_MATRICE(MATR_ELEM=M_ELEM,
                    NUME_DDL=NUMERO,);

C_ASSE=ASSE_MATRICE(MATR_ELEM=C_ELEM,
                    NUME_DDL=NUMERO,);
# CALCUL DES MODES
#
#
#


MODES=MODE_ITER_SIMULT(MATR_RIGI=K_ASSE,
                       MATR_MASS=M_ASSE,
                       MATR_AMOR=C_ASSE,
                       METHODE='SORENSEN',
                       CALC_FREQ=_F(OPTION='CENTRE',
                                    FREQ=100.,
                                    NMAX_FREQ=10,
                                    APPROCHE='IMAG',),
                       VERI_MODE=_F(STOP_ERREUR='NON',),
                       INFO=1,);


TEST_RESU(RESU=(_F(RESULTAT=MODES,
                   NUME_ORDRE=1,
                   PARA='FREQ',
                   VALE=113.45,
                   CRITERE='RELATIF',
                   PRECISION=0.01,
                   REFERENCE='ANALYTIQUE',),
                _F(RESULTAT=MODES,
                   NUME_ORDRE=2,
                   PARA='FREQ',
                   VALE=433.61,
                   CRITERE='RELATIF',
                   PRECISION=0.01,
                   REFERENCE='ANALYTIQUE',),
                _F(RESULTAT=MODES,
                   NUME_ORDRE=3,
                   PARA='FREQ',
                   VALE=627.70,
                   CRITERE='RELATIF',
                   PRECISION=0.02,
                   REFERENCE='ANALYTIQUE',),
                _F(RESULTAT=MODES,
                   NUME_ORDRE=4,
                   PARA='FREQ',
                   VALE=878.74,
                   CRITERE='RELATIF',
                   PRECISION=0.05,
                   REFERENCE='ANALYTIQUE',),),);

FIN();






