#======================================================
# ======================================================================
# COPYRIGHT (C) 1991 - 2016  EDF R&D                  WWW.CODE-ASTER.ORG
# THIS PROGRAM IS FREE SOFTWARE; YOU CAN REDISTRIBUTE IT AND/OR MODIFY
# IT UNDER THE TERMS OF THE GNU GENERAL PUBLIC LICENSE AS PUBLISHED BY
# THE FREE SOFTWARE FOUNDATION; EITHER VERSION 2 OF THE LICENSE, OR
# (AT YOUR OPTION) ANY LATER VERSION.
#
# THIS PROGRAM IS DISTRIBUTED IN THE HOPE THAT IT WILL BE USEFUL, BUT
# WITHOUT ANY WARRANTY; WITHOUT EVEN THE IMPLIED WARRANTY OF
# MERCHANTABILITY OR FITNESS FOR A PARTICULAR PURPOSE. SEE THE GNU
# GENERAL PUBLIC LICENSE FOR MORE DETAILS.
#
# YOU SHOULD HAVE RECEIVED A COPY OF THE GNU GENERAL PUBLIC LICENSE
# ALONG WITH THIS PROGRAM; IF NOT, WRITE TO EDF R&D CODE_ASTER,
#    1 AVENUE DU GENERAL DE GAULLE, 92141 CLAMART CEDEX, FRANCE.
# ======================================================================
# person_in_charge: irmela.zentner at edf.fr
#


DEBUT(CODE=_F(NIV_PUB_WEB='INTERNET'),DEBUG=_F(SDVERI='OUI',),PAR_LOT='NON')

#******************************************************************************
#DONNEES GENERALES
#******************************************************************************


DIR = (1.0, 0.0, 0.)
GROUP_NO_INTER='GNOE'

MAILLAGE=LIRE_MAILLAGE( FORMAT = 'ASTER', VERI_MAIL=_F(VERIF='OUI',),)
nom_mail= 'MAILLAGE'

#*************************************************************************************
# --------------- PARAMETRES -------------------------
#*************************************************************************************

DT=0.01
frr=6.3
fc=0.1
delta=0.41
wg=frr*2.*pi
TSM = 8.
tini=0.1


#*************************************************************************************
# --------------- SPECTRE cible et DSP -------------------------
#*************************************************************************************
ZPA= 0.16

SRO_NGA=DEFI_FONCTION(  NOM_PARA='FREQ',  INTERPOL='LIN',PROL_DROITE='CONSTANT',
                          VALE=(0.1000,  0.0080,
                                0.1333,  0.0127,0.2000, 0.0245,0.2500, 0.0303, 0.3333,
                                0.0414,0.5000, 0.0666,
                                0.6667, 0.0922,1.0000,  0.1415,1.3333,  0.1843,2.0000,
                                 0.2650, 2.5000,  0.3033, 3.3333,
                                0.3430, 4.0000,  0.3647,5.0000, 0.3916,6.6667, 0.3807,
                                10.0000, 0.3183,12.5000, 0.2648,20.0000,
                                0.2056,25.0000, 0.1901,33.3333, 0.1719, 50.0000, 0.1618,
                             ) )

SIG_NGA=DEFI_FONCTION(  NOM_PARA='FREQ',  INTERPOL='LIN',PROL_DROITE='CONSTANT',
                          VALE=(  0.1000, 0.0182, 0.1333,0.0272,  0.2000,0.0494,  0.2500,
                                  0.0579,  0.3333, 0.0791,  0.5000,0.1267,  0.6667,0.1742,
                                  1.0000, 0.2637,    1.3333, 0.3397,  2.0000, 0.4782,   
                                  2.5000,0.5432,   3.3333, 0.6112,  4.0000, 0.6468,
                                  5.0000,  0.6930,   6.6667, 0.6778,  10.0000, 0.5653,  
                                 12.5000, 0.4671,  20.0000,  0.3545,   25.0000, 0.3248,   33.3333, 0.2902,
                                  50.0000,    0.2697,) )


DSP = CALC_FONCTION ( DSP =_F( FONCTION = SRO_NGA, AMOR_REDUIT = 0.05,
                               FREQ_PAS    = 0.1, FREQ_COUP   = 100,
                               DUREE = TSM, NORME = 9.81, ),);

INTKTJ0= DEFI_INTE_SPEC( DIMENSION = 1,
                         PAR_FONCTION = _F(NUME_ORDRE_I = 1, NUME_ORDRE_J = 1, FONCTION =DSP , ));
POST_DSP = POST_DYNA_ALEA( INTERSPECTRE=_F( INTE_SPEC = INTKTJ0,
                                            NUME_ORDRE_J = 1,NUME_ORDRE_I = 1,
                                            DUREE = TSM, ) ,),
#IMPR_TABLE(  TABLE =  POST_DSP )
#table_dsp = POST_DSP.EXTR_TABLE()
#print  table_dsp.FREQ_APPAR, table_dsp.FACT_IRRE


L_FREQ = DEFI_LIST_REEL(DEBUT=10.,
              INTERVALLE=(_F(JUSQU_A=30., PAS=10,),),
                      );


#*************************************************************************************
# --------------- ACCELEROGRAMMES-------------------------
#*************************************************************************************
alea = 100000


ACCEU2 = GENE_ACCE_SEISME( INFO  =2, INIT_ALEA= alea,
                        PAS_INST = 0.005, PESANTEUR = 9.81,NB_POIN = 2**11,
                        DUREE_PHASE_FORTE = TSM, FREQ_FILTRE = 0.05,
                        FREQ_CORNER = 0.005, NB_TIRAGE = 1,
                         PHASE = _F(GROUP_NO_INTERF = GROUP_NO_INTER, MAILLAGE = MAILLAGE,
                                         VITE_ONDE = 250., DIRECTION = (1.0, 0.0, 0.0)),
                        SPEC_UNIQUE = _F(SPEC_OSCI = SRO_NGA, AMOR_REDUIT  = 0.05,
                                         FREQ_PAS = 0.01,  METHODE = 'NIGAM', ),
                        MODULATION = _F(TYPE=   "JENNINGS_HOUSNER",), );



#IMPR_TABLE(TABLE = ACCEU2)
table_acce2 = ACCEU2.EXTR_TABLE()
liste_nom_noe = table_acce2.NOEUD
nbno = len(liste_nom_noe)
noeud1 = liste_nom_noe[0]
noeud2 = liste_nom_noe[1]
noeud3 = liste_nom_noe[2]
print noeud1, noeud2, noeud3
#noeud1 = 'N1'
#noeud2 = 'N2'
#noeud3 = 'N3'

FONC2_1 = RECU_FONCTION(TABLE=ACCEU2, FILTRE=(_F( NOM_PARA = 'NUME_ORDRE',VALE_I = 1),
                                        _F(NOM_PARA = 'NOEUD', VALE_K = noeud1),),
                                         NOM_PARA_TABL = 'FONCTION',)

FONC2_2 = RECU_FONCTION(TABLE=ACCEU2, FILTRE=(_F( NOM_PARA = 'NUME_ORDRE',VALE_I = 1),
                                        _F(NOM_PARA = 'NOEUD', VALE_K = noeud3),),
                                         NOM_PARA_TABL = 'FONCTION',)

SROD2=CALC_FONCTION(SPEC_OSCI=_F(FONCTION=FONC2_1, LIST_FREQ = L_FREQ,
                      NORME=9.81, AMOR_REDUIT=(0.05,),),)



ACCEU3 = GENE_ACCE_SEISME( INFO  =2, INIT_ALEA= alea,
                        PAS_INST = 0.01, PESANTEUR = 9.81, NB_POIN = 2**10,
                        DUREE_PHASE_FORTE = 5., FREQ_FILTRE = 0.05,
                        FREQ_CORNER = 0.01, NB_TIRAGE = 5, 
                        PHASE = _F(GROUP_NO_INTERF = GROUP_NO_INTER, 
                                   MAILLAGE = MAILLAGE, COOR_REFE  = (0.0, 0.0, 0.0),
                                   VITE_ONDE = 250., DIRECTION = (0.0, 1.0, 0.0)),
                        SPEC_MOYENNE = _F(SPEC_OSCI = SRO_NGA, AMOR_REDUIT  = 0.05, NB_ITER = 5,
                                         FREQ_PAS = 0.01,  METHODE = 'NIGAM', ),
                        MODULATION = _F(TYPE=   "JENNINGS_HOUSNER",), );

FONC3_1 = RECU_FONCTION(TABLE=ACCEU3, FILTRE=(_F( NOM_PARA = 'NUME_ORDRE',VALE_I = 1),
                                        _F(NOM_PARA = 'NOEUD', VALE_K = noeud1),),
                                         NOM_PARA_TABL = 'FONCTION',)
FONC3_2 = RECU_FONCTION(TABLE=ACCEU3, FILTRE=(_F( NOM_PARA = 'NUME_ORDRE',VALE_I = 1),
                                        _F(NOM_PARA = 'NOEUD', VALE_K = noeud2),),
                                         NOM_PARA_TABL = 'FONCTION',)
FONC3_3 = RECU_FONCTION(TABLE=ACCEU3, FILTRE=(_F( NOM_PARA = 'NUME_ORDRE',VALE_I = 1),
                                        _F(NOM_PARA = 'NOEUD', VALE_K = noeud3),),
                                         NOM_PARA_TABL = 'FONCTION',)

SROD3=CALC_FONCTION(SPEC_OSCI=_F(FONCTION=FONC3_1, LIST_FREQ = L_FREQ,
                      NORME=9.81, AMOR_REDUIT=(0.05,),),)





ACCEU4 = GENE_ACCE_SEISME( INFO  =2, INIT_ALEA= alea,
                        PAS_INST = 0.1, PESANTEUR = 9.81,NB_POIN = 2**10,
                        DUREE_PHASE_FORTE = 5., FREQ_FILTRE = 0.05,
                        FREQ_CORNER = 0.01, NB_TIRAGE = 5, 
                        PHASE = _F(GROUP_NO_INTERF = GROUP_NO_INTER, 
                                   MAILLAGE = MAILLAGE, COOR_REFE  = (-50.0, 0.0, 0.0),
                                   VITE_ONDE = 250., DIRECTION = (1.0, 0.0, 0.0)),
                        SPEC_FRACTILE = _F(SPEC_OSCI = SRO_NGA, AMOR_REDUIT  = 0.05, 
                                 SPEC_1_SIGMA  =SIG_NGA,  ),
                        MODULATION = _F(TYPE=   "JENNINGS_HOUSNER",), );

FONC4_1 = RECU_FONCTION(TABLE=ACCEU4, FILTRE=(_F( NOM_PARA = 'NUME_ORDRE',VALE_I = 2),
                                        _F(NOM_PARA = 'NOEUD', VALE_K = noeud1),),
                                         NOM_PARA_TABL = 'FONCTION',)

FONC4_2 = RECU_FONCTION(TABLE=ACCEU4, FILTRE=(_F( NOM_PARA = 'NUME_ORDRE',VALE_I = 2),
                                        _F(NOM_PARA = 'NOEUD', VALE_K = noeud2),),
                                         NOM_PARA_TABL = 'FONCTION',)
FONC4_3 = RECU_FONCTION(TABLE=ACCEU4, FILTRE=(_F( NOM_PARA = 'NUME_ORDRE',VALE_I = 2),
                                        _F(NOM_PARA = 'NOEUD', VALE_K = noeud3),),
                                         NOM_PARA_TABL = 'FONCTION',)
frr = 6.3
fc = 0.1
delta = 0.41
ACCEU1 = GENE_ACCE_SEISME( INFO  = 2, INIT_ALEA = alea,
                       PAS_INST = DT, PESANTEUR =9.81, NB_POIN = 2**10,
                       DUREE_PHASE_FORTE = TSM, FREQ_FILTRE = 0.05,
                       FREQ_CORNER = 0.1, NB_TIRAGE = 5,
                       PHASE = _F(GROUP_NO_INTERF = GROUP_NO_INTER, MAILLAGE = MAILLAGE,
                                  COOR_REFE  = (-10.0, 0.0, 0.0),
                                  VITE_ONDE = 300., DIRECTION = (1.0, 0.0, 0.0)),
                       DSP = _F(AMOR_REDUIT  = delta,  FREQ_FOND = frr, ),
                       MODULATION = _F(TYPE=   "JENNINGS_HOUSNER", ACCE_MAX = ZPA),);

FONC1 = RECU_FONCTION(TABLE=ACCEU1, FILTRE=(_F( NOM_PARA = 'NUME_ORDRE',VALE_I = 2),
                                        _F(NOM_PARA = 'NOEUD', VALE_K = noeud1),),
                                         NOM_PARA_TABL = 'FONCTION',)


SROD1=CALC_FONCTION(SPEC_OSCI=_F(FONCTION=FONC1, LIST_FREQ = L_FREQ,
                      NORME=9.81, AMOR_REDUIT=(0.05,),),)





#*************************************************************************************
#*************************************************************************************



TEST_FONCTION(VALEUR=(_F(VALE_CALC= 0.30606165953356, 
                         NOM_PARA=('AMOR', 'FREQ'), VALE_PARA=(0.05, 50.0),
                         FONCTION=SROD1,),
                        _F(VALE_CALC= 0.33278246512097, 
                         NOM_PARA=('AMOR', 'FREQ'), VALE_PARA=(0.05, 25.0),
                         FONCTION=SROD1,),
                        _F(VALE_CALC= 0.46142588067559 ,
                         NOM_PARA=('AMOR', 'FREQ'), VALE_PARA=(0.05, 10.),
                         FONCTION=SROD1,),
                         ),)



TEST_FONCTION(VALEUR=(_F(VALE_CALC= 0.13037218991122 , 
                         NOM_PARA=('AMOR', 'FREQ'), VALE_PARA=(0.05, 30.0),
                         FONCTION=SROD2,),
                        _F(VALE_CALC= 0.17934638157666 , 
                         NOM_PARA=('AMOR', 'FREQ'), VALE_PARA=(0.05, 20.0),
                         FONCTION=SROD2,),
                        _F(VALE_CALC= 0.34254486002100, 
                         NOM_PARA=('AMOR', 'FREQ'), VALE_PARA=(0.05, 10.),
                         FONCTION=SROD2,),
                         ),)



TEST_FONCTION(VALEUR=(_F(VALE_CALC = 0.18294156021918, 
                         NOM_PARA=('AMOR', 'FREQ'), VALE_PARA=(0.05, 30.0),
                         FONCTION=SROD3,),
                        _F(VALE_CALC = 0.23177880673266, 
                         NOM_PARA=('AMOR', 'FREQ'), VALE_PARA=(0.05, 20.0),
                         FONCTION=SROD3,),
                        _F(VALE_CALC = 0.36667431899158   ,
                         NOM_PARA=('AMOR', 'FREQ'), VALE_PARA=(0.05, 10.),
                         FONCTION=SROD3,),
                         ),)



TEST_FONCTION(VALEUR=(_F(VALE_CALC= -1.011379002102 ,
                         NOM_PARA=('INST', ), VALE_PARA=(5.0),
                         FONCTION=FONC3_1,),
                        _F(VALE_CALC=   -1.011379002102 ,
                        NOM_PARA=('INST', ), VALE_PARA=(5.0),
                         FONCTION=FONC3_2,),
                        _F(VALE_CALC= -1.011379002102,
                         NOM_PARA=('INST', ), VALE_PARA=(5.0),
                         FONCTION=FONC3_3,),
                         ),)

TEST_FONCTION(VALEUR=(_F(VALE_CALC= -0.01772116967817 ,
                         NOM_PARA=('INST', ), VALE_PARA=(5.0),
                         FONCTION=FONC2_1,),
                        _F(VALE_CALC= -0.01772116967817  ,
                        NOM_PARA=('INST', ), VALE_PARA=(5.1),
                         FONCTION=FONC2_2,),
#                        _F(VALE_CALC= 0.05077808111976 ,
#                         NOM_PARA=('INST', ), VALE_PARA=(5.0),
#                         FONCTION=FONC2_3,),
                         ),)

TEST_FONCTION(VALEUR=(_F(VALE_CALC= 0.0,
                         NOM_PARA=('INST', ), VALE_PARA=(0.01),
                         FONCTION=FONC4_1,),
                         _F(VALE_CALC= 0.0,
                         NOM_PARA=('INST', ), VALE_PARA=(0.1),
                         FONCTION=FONC4_2,),
                        _F(VALE_CALC=   -0.40633680924518,
                        NOM_PARA=('INST', ), VALE_PARA=(5.2),
                         FONCTION=FONC4_3,),
                         ),)
FIN();
