# TITRE CALCUL DES FREQUENCES PROPRES D'UNE SPHERE PLEINE LIBRE-LIBRE
# ======================================================================
# COPYRIGHT (C) 1991 - 2015  EDF R&D                  WWW.CODE-ASTER.ORG
# THIS PROGRAM IS FREE SOFTWARE; YOU CAN REDISTRIBUTE IT AND/OR MODIFY
# IT UNDER THE TERMS OF THE GNU GENERAL PUBLIC LICENSE AS PUBLISHED BY
# THE FREE SOFTWARE FOUNDATION; EITHER VERSION 2 OF THE LICENSE, OR   
# (AT YOUR OPTION) ANY LATER VERSION.                                 
#
# THIS PROGRAM IS DISTRIBUTED IN THE HOPE THAT IT WILL BE USEFUL, BUT 
# WITHOUT ANY WARRANTY; WITHOUT EVEN THE IMPLIED WARRANTY OF          
# MERCHANTABILITY OR FITNESS FOR A PARTICULAR PURPOSE. SEE THE GNU    
# GENERAL PUBLIC LICENSE FOR MORE DETAILS.                            
#
# YOU SHOULD HAVE RECEIVED A COPY OF THE GNU GENERAL PUBLIC LICENSE   
# ALONG WITH THIS PROGRAM; IF NOT, WRITE TO EDF R&D CODE_ASTER,       
#    1 AVENUE DU GENERAL DE GAULLE, 92141 CLAMART CEDEX, FRANCE.      
# ======================================================================
# ELEMENTS  : HEXA8
# REFERENCE : SAMCEF

DEBUT(CODE=_F(NIV_PUB_WEB='INTERNET'))

ACIER=DEFI_MATERIAU(          
                         ELAS=_F(  RHO = 10000.,  
                           NU = 0.3, 
                           E = 1.E8))

MAYA=LIRE_MAILLAGE(FORMAT='MED', )

MATER=AFFE_MATERIAU(    MAILLAGE=MAYA, 
                                 AFFE=_F(  TOUT = 'OUI', 
                                        MATER = ACIER))

STRUCTUR=AFFE_MODELE(    MAILLAGE=MAYA,
                               AFFE=_F(  TOUT = 'OUI', 
                                      MODELISATION = '3D', 
                                      PHENOMENE = 'MECANIQUE'))

# CALCUL DES MATRICES ELEMENTAIRES DE RIGIDITE ET DE MASSE

K_ELEM=CALC_MATR_ELEM(        MODELE=STRUCTUR,
                                CHAM_MATER=MATER, 
                                   OPTION='RIGI_MECA' )

M_ELEM=CALC_MATR_ELEM(        MODELE=STRUCTUR,
                                CHAM_MATER=MATER, 
                                   OPTION='MASS_MECA' )

# NUMEROTATION

NUMERO=NUME_DDL(    MATR_RIGI=K_ELEM )

# ASSEMBLAGE DES MATRICES DE RIGIDITE ET DE MASSE


K_ASSE=ASSE_MATRICE(    MATR_ELEM=K_ELEM, 
                             NUME_DDL=NUMERO )

M_ASSE=ASSE_MATRICE(    MATR_ELEM=M_ELEM, 
                             NUME_DDL=NUMERO )

# CALCUL DES MODES

MODES=CALC_MODES(MATR_RIGI=K_ASSE,
                 OPTION='BANDE',
                 CALC_FREQ=_F(FREQ=( 1.,3000.,),
                              ),
                 MATR_MASS=M_ASSE,
                 )


TEST_RESU(RESU=(_F(PARA='FREQ',
                   NUME_MODE=7,
                   REFERENCE='SOURCE_EXTERNE',
                   RESULTAT=MODES,
                   VALE_CALC= 2.54230565E+03,
                   VALE_REFE=2542.3099999999999,
                   CRITERE='RELATIF',
                   PRECISION=1.E-4,),
                _F(PARA='FREQ',
                   NUME_MODE=8,
                   REFERENCE='SOURCE_EXTERNE',
                   RESULTAT=MODES,
                   VALE_CALC= 2.54230565E+03,
                   VALE_REFE=2542.3099999999999,
                   CRITERE='RELATIF',
                   PRECISION=1.E-4,),
                _F(PARA='FREQ',
                   NUME_MODE=9,
                   REFERENCE='SOURCE_EXTERNE',
                   RESULTAT=MODES,
                   VALE_CALC= 2.60747459E+03,
                   VALE_REFE=2607.4699999999998,
                   CRITERE='RELATIF',
                   PRECISION=1.E-4,),
                _F(PARA='FREQ',
                   NUME_MODE=10,
                   REFERENCE='SOURCE_EXTERNE',
                   RESULTAT=MODES,
                   VALE_CALC= 2.60747459E+03,
                   VALE_REFE=2607.4699999999998,
                   CRITERE='RELATIF',
                   PRECISION=1.E-4,),
                _F(PARA='FREQ',
                   NUME_MODE=11,
                   REFERENCE='SOURCE_EXTERNE',
                   RESULTAT=MODES,
                   VALE_CALC= 2.60747459E+03,
                   VALE_REFE=2607.4699999999998,
                   CRITERE='RELATIF',
                   PRECISION=1.E-4,),
                _F(PARA='FREQ',
                   NUME_MODE=12,
                   REFERENCE='SOURCE_EXTERNE',
                   RESULTAT=MODES,
                   VALE_CALC= 2.74095465E+03,
                   VALE_REFE=2740.9499999999998,
                   CRITERE='RELATIF',
                   PRECISION=1.E-4,),
                _F(PARA='FREQ',
                   NUME_MODE=13,
                   REFERENCE='SOURCE_EXTERNE',
                   RESULTAT=MODES,
                   VALE_CALC= 2.74095465E+03,
                   VALE_REFE=2740.9499999999998,
                   CRITERE='RELATIF',
                   PRECISION=1.E-4,),
                _F(PARA='FREQ',
                   NUME_MODE=14,
                   REFERENCE='SOURCE_EXTERNE',
                   RESULTAT=MODES,
                   VALE_CALC= 2.74095465E+03,
                   VALE_REFE=2740.9499999999998,
                   CRITERE='RELATIF',
                   PRECISION=1.E-4,),
                _F(PARA='FREQ',
                   NUME_MODE=15,
                   REFERENCE='SOURCE_EXTERNE',
                   RESULTAT=MODES,
                   VALE_CALC= 2.76312655E+03,
                   VALE_REFE=2763.1300000000001,
                   CRITERE='RELATIF',
                   PRECISION=1.E-4,),
                _F(PARA='FREQ',
                   NUME_MODE=16,
                   REFERENCE='SOURCE_EXTERNE',
                   RESULTAT=MODES,
                   VALE_CALC= 2.76312655E+03,
                   VALE_REFE=2763.1300000000001,
                   CRITERE='RELATIF',
                   PRECISION=1.E-4,),
                ),
          )

FIN()
#
