# MODIF  DATE 09/07/2012   AUTEUR PELLET J.PELLET 
# TITRE ABSORPTION D UNE ONDE DE COMPRESSION DANS UN BARREAU ELASTIQUE
# sdlv120b.para = tps_job 980 mem_job 300Mo ncpus 1 liste_test L
#            CONFIGURATION MANAGEMENT OF EDF VERSION
# ======================================================================
# COPYRIGHT (C) 1991 - 2012  EDF R&D                  WWW.CODE-ASTER.ORG
# THIS PROGRAM IS FREE SOFTWARE; YOU CAN REDISTRIBUTE IT AND/OR MODIFY
# IT UNDER THE TERMS OF THE GNU GENERAL PUBLIC LICENSE AS PUBLISHED BY
# THE FREE SOFTWARE FOUNDATION; EITHER VERSION 2 OF THE LICENSE, OR
# (AT YOUR OPTION) ANY LATER VERSION.
#
# THIS PROGRAM IS DISTRIBUTED IN THE HOPE THAT IT WILL BE USEFUL, BUT
# WITHOUT ANY WARRANTY; WITHOUT EVEN THE IMPLIED WARRANTY OF
# MERCHANTABILITY OR FITNESS FOR A PARTICULAR PURPOSE. SEE THE GNU
# GENERAL PUBLIC LICENSE FOR MORE DETAILS.
#
# YOU SHOULD HAVE RECEIVED A COPY OF THE GNU GENERAL PUBLIC LICENSE
# ALONG WITH THIS PROGRAM; IF NOT, WRITE TO EDF R&D CODE_ASTER,
#    1 AVENUE DU GENERAL DE GAULLE, 92141 CLAMART CEDEX, FRANCE.
# ======================================================================
# CAS_TEST__: SDLV120B
#
# PROPAGATION D'UNE ONDE DE COMPRESSION DANS UN BARREAU
# ELASTIQUE INFINI - ABSORPTION DE L'ONDE A LA FRONTIERE DU MAILLAGE
# ELEMENTS FINIS
# CAS 2D
#=======================================================================

DEBUT(CODE=_F( NOM = 'SDLV120B',NIV_PUB_WEB='INTERNET'))

MAIL=LIRE_MAILLAGE(FORMAT='MED',)

MAIL=DEFI_GROUP( reuse=MAIL,   MAILLAGE=MAIL,CREA_GROUP_NO=(
                       _F(  GROUP_MA = 'IIMPO'),
                       _F(  GROUP_MA = 'SOLIDE'))
                     )

MAT1=DEFI_MATERIAU( ELAS=_F(  E = 3.6E+10, RHO = 2400.,  NU = 0.2,
                             AMOR_ALPHA=0., AMOR_BETA=0.,)
                    )

MODELE=AFFE_MODELE(    MAILLAGE=MAIL,AFFE=(
                         _F(  GROUP_MA = 'SOLIDE',
                                PHENOMENE = 'MECANIQUE',
                                MODELISATION = 'D_PLAN'),
                         _F(  GROUP_MA = 'IABSO',
                                PHENOMENE = 'MECANIQUE',
                                MODELISATION = 'D_PLAN_ABSO'))
                        )

CHAMPMAT=AFFE_MATERIAU(    MAILLAGE=MAIL,
                   AFFE=_F(  GROUP_MA = ('SOLIDE', 'IABSO',),
                          MATER = MAT1)
                           )

COND_LIM=AFFE_CHAR_MECA(    MODELE=MODELE,DDL_IMPO=(
                   _F(  GROUP_NO = 'SOLIDE',
                              DY = 0.),
                   _F(  GROUP_NO = 'IIMPO',
                              DX = 1.E-3))
                             )

RIGI_ELE=CALC_MATR_ELEM(    MODELE=MODELE,
                              OPTION='RIGI_MECA',
                              CHAM_MATER=CHAMPMAT,
                              CHARGE=COND_LIM
                            )

MASS_ELE=CALC_MATR_ELEM(    MODELE=MODELE,
                              OPTION='MASS_MECA',
                              CHAM_MATER=CHAMPMAT,
                              CHARGE=COND_LIM
                            )

AMOR_ELE=CALC_MATR_ELEM(    MODELE=MODELE,
                              OPTION='AMOR_MECA',
                              CHAM_MATER=CHAMPMAT,
                              RIGI_MECA = RIGI_ELE,
                              MASS_MECA = MASS_ELE,
                              CHARGE=COND_LIM
                            )

VECTELEM=CALC_VECT_ELEM(    OPTION='CHAR_MECA',
                              CHAM_MATER=CHAMPMAT,
                              CHARGE=COND_LIM
                            )

NUMEDDL=NUME_DDL(    MATR_RIGI=RIGI_ELE )
#METHODE : 'LDLT');

RIGIDITE=ASSE_MATRICE(    MATR_ELEM=RIGI_ELE,
                            NUME_DDL=NUMEDDL
                          )

MASSE=ASSE_MATRICE(    MATR_ELEM=MASS_ELE,
                         NUME_DDL=NUMEDDL
                       )

AMORT=ASSE_MATRICE(    MATR_ELEM=AMOR_ELE,
                         NUME_DDL=NUMEDDL
                       )

VECTASS=ASSE_VECTEUR(    VECT_ELEM=VECTELEM,
                           NUME_DDL=NUMEDDL
                         )

# --- LECTURE DE LA FONCTION D EXCITATION ---
INCLUDE(   UNITE=11,   INFO=1 )

TEMPLI=DEFI_LIST_REEL(DEBUT=0., INTERVALLE=_F( JUSQU_A = 1.5, NOMBRE = 3000))

INTLI=DEFI_LIST_ENTI( DEBUT=1, INTERVALLE=_F( JUSQU_A = 3001, PAS = 1))

DYN=DYNA_VIBRA(TYPE_CALCUL='TRAN',BASE_CALCUL='PHYS',
                       MATR_MASS=MASSE,
                       MATR_RIGI=RIGIDITE,
                       MATR_AMOR=AMORT,
                       EXCIT=_F(  VECT_ASSE = VECTASS,
                                  FONC_MULT = FONC),
                       INCREMENT=_F( LIST_INST = TEMPLI),
                       SCHEMA_TEMPS=_F(SCHEMA='NEWMARK',),
                        )

DXN3=RECU_FONCTION(    LIST_INST=TEMPLI,   PRECISION=1.E-4,
                        RESULTAT=DYN,   NOEUD='N3',
                        NOM_CHAM='DEPL',
                        NOM_CMP='DX'
                      )

DXN32=RECU_FONCTION(    LIST_INST=TEMPLI,   PRECISION=1.E-4,
                        RESULTAT=DYN,   NOEUD='N32',
                        NOM_CHAM='DEPL',
                        NOM_CMP='DX'
                      )

DXN14=RECU_FONCTION(    LIST_INST=TEMPLI,   PRECISION=1.E-4,
                        RESULTAT=DYN,   NOEUD='N14',
                        NOM_CHAM='DEPL',
                        NOM_CMP='DX'
                      )

TEST_FONCTION(VALEUR=(   _F(
                   FONCTION = DXN32,
                   VALE_PARA = 5.09500E-01,
                   VALE_REFE = 9.99536E-04,
                   CRITERE = 'RELATIF',
                   PRECISION = 1.E-3,
                   REFERENCE = 'NON_REGRESSION'),
                  _F(
                   FONCTION = DXN32,
                   VALE_PARA = 1.20000E+00,
                   VALE_REFE = 0.E0,
                   CRITERE = 'ABSOLU',
                   PRECISION = 1.E-9,
                   REFERENCE = 'ANALYTIQUE'))
                )

TEST_FONCTION(VALEUR=(   _F(
                   FONCTION = DXN3,
                   VALE_PARA = 5.00000E-01,
                   VALE_REFE = 1.00000E-03,
                   CRITERE = 'RELATIF',
                   PRECISION = 1.E-3,
                   REFERENCE = 'ANALYTIQUE'),
                  _F(
                   FONCTION = DXN14,
                   VALE_PARA = 5.09500E-01,
                   VALE_REFE = 9.99536E-04,
                   CRITERE = 'RELATIF',
                   PRECISION = 1.E-3,
                   REFERENCE = 'NON_REGRESSION'))
                )

TEMLI=DEFI_LIST_REEL(DEBUT=0., INTERVALLE=_F( JUSQU_A = 1.2, NOMBRE = 2400))

TEMLI2=DEFI_LIST_REEL(DEBUT=0.0005,
                       INTERVALLE=_F( JUSQU_A = 1.2, NOMBRE = 2399))

INLI=DEFI_LIST_ENTI( DEBUT=1, INTERVALLE=_F( JUSQU_A = 2401, PAS = 1))

DYNA=DYNA_NON_LINE(    MODELE=MODELE,
                       CHAM_MATER=CHAMPMAT,
                       EXCIT=_F(  CHARGE = COND_LIM,
                                  FONC_MULT = FONC),
#                      ETAT_INIT=_F( INST_INIT = 0.),
                       COMP_INCR=_F( RELATION = 'ELAS',
                                     TOUT = 'OUI'),
                       CONVERGENCE=_F( RESI_GLOB_RELA = 1.E-4),
                       SOLVEUR=_F( METHODE = 'LDLT'),
                       INCREMENT=_F( LIST_INST = TEMLI),
####CDURAND            ARCHIVAGE=_F(  LIST_ARCH = INLI),
                       NEWTON=_F(  MATRICE = 'ELASTIQUE'),
                       SCHEMA_TEMPS=_F(SCHEMA='NEWMARK',
                                     FORMULATION='DEPLACEMENT',),
                        )

DXNA3=RECU_FONCTION(    LIST_INST=TEMLI2,   PRECISION=1.E-4,
                        RESULTAT=DYNA,   NOEUD='N3',
                        NOM_CHAM='DEPL',
                        NOM_CMP='DX'
                      )

DXNA32=RECU_FONCTION(    LIST_INST=TEMLI2,   PRECISION=1.E-4,
                        RESULTAT=DYNA,   NOEUD='N32',
                        NOM_CHAM='DEPL',
                        NOM_CMP='DX'
                      )

DXNA14=RECU_FONCTION(    LIST_INST=TEMLI2,   PRECISION=1.E-4,
                        RESULTAT=DYNA,   NOEUD='N14',
                        NOM_CHAM='DEPL',
                        NOM_CMP='DX'
                      )

TEST_FONCTION(VALEUR=(   _F(
                   FONCTION = DXNA32,
                   VALE_PARA = 5.09500E-01,
                   VALE_REFE = 9.99867E-04,
                   CRITERE = 'RELATIF',
                   PRECISION = 1.E-3,
                   REFERENCE = 'NON_REGRESSION'),
                  _F(
                   FONCTION = DXNA32,
                   VALE_PARA = 1.20000E+00,
                   VALE_REFE = 0.E0,
                   CRITERE = 'ABSOLU',
                   PRECISION = 1.E-8,
                   REFERENCE = 'ANALYTIQUE'))
                )

TEST_FONCTION(VALEUR=(   _F(
                   FONCTION = DXNA3,
                   VALE_PARA = 5.00000E-01,
                   VALE_REFE = 1.00000E-03,
                   CRITERE = 'RELATIF',
                   PRECISION = 1.E-3,
                   REFERENCE = 'ANALYTIQUE'),
                  _F(
                   FONCTION = DXNA14,
                   VALE_PARA = 5.09500E-01,
                   VALE_REFE = 9.99867E-04,
                   CRITERE = 'RELATIF',
                   PRECISION = 1.E-3,
                   REFERENCE = 'NON_REGRESSION'))
                )

FIN()
