# ======================================================================
# COPYRIGHT (C) 1991 - 2016  EDF R&D                  WWW.CODE-ASTER.ORG
# THIS PROGRAM IS FREE SOFTWARE; YOU CAN REDISTRIBUTE IT AND/OR MODIFY
# IT UNDER THE TERMS OF THE GNU GENERAL PUBLIC LICENSE AS PUBLISHED BY
# THE FREE SOFTWARE FOUNDATION; EITHER VERSION 2 OF THE LICENSE, OR
# (AT YOUR OPTION) ANY LATER VERSION.
#
# THIS PROGRAM IS DISTRIBUTED IN THE HOPE THAT IT WILL BE USEFUL, BUT
# WITHOUT ANY WARRANTY; WITHOUT EVEN THE IMPLIED WARRANTY OF
# MERCHANTABILITY OR FITNESS FOR A PARTICULAR PURPOSE. SEE THE GNU
# GENERAL PUBLIC LICENSE FOR MORE DETAILS.
#
# YOU SHOULD HAVE RECEIVED A COPY OF THE GNU GENERAL PUBLIC LICENSE
# ALONG WITH THIS PROGRAM; IF NOT, WRITE TO EDF R&D CODE_ASTER,
#    1 AVENUE DU GENERAL DE GAULLE, 92141 CLAMART CEDEX, FRANCE.
# ======================================================================

POURSUITE(CODE='OUI',)

df=1./20.48 ;
fmax = 513./20.48 ;
# dfc = 1./20.48 ;
# fmaxc = 513./20.48 ;
dfc = 0.5 ;
fmaxc = 10. ;


l_amor = (0.070000000000000000,0.070000000000000000,0.070000000000000000,
           0.070000000000000000,0.070000000000000000,0.050000000000000000,
           0.050000000000000000,0.070000000000000000,0.070000000000000000,
           0.070000000000000000,0.070000000000000000,0.070000000000000000,
           0.070000000000000000,0.070000000000000000,0.070000000000000000,
           0.070000000000000000,0.070000000000000000,0.070000000000000000,
           0.070000000000000000,0.070000000000000000,0.070000000000000000,
           0.070000000000000000,0.070000000000000000,0.070000000000000000,
           0.070000000000000000,0.070000000000000000,0.070000000000000000,
           0.070000000000000000,0.070000000000000000,0.070000000000000000,
           0.070000000000000000,0.070000000000000000,0.070000000000000000,
           0.070000000000000000,0.070000000000000000,0.070000000000000000,
           0.070000000000000000,0.070000000000000000,0.070000000000000000,
           0.070000000000000000,0.070000000000000000,0.070000000000000000,
           0.070000000000000000,0.070000000000000000,0.070000000000000000,
           0.070000000000000000,0.070000000000000000,0.070000000000000000,
           0.070000000000000000,0.070000000000000000,0.070000000000000000,
           0.070000000000000000,0.070000000000000000,0.070000000000000000,
           0.070000000000000000,0.070000000000000000,0.070000000000000000,
           0.070000000000000000,0.070000000000000000,0.070000000000000000,
           0.070000000000000000,0.070000000000000000,0.070000000000000000,
           0.050000000000000000,0.070000000000000000,0.070000000000000000,
           0.070000000000000000,0.070000000000000000,0.070000000000000000,
           0.070000000000000000,0.070000000000000000,0.070000000000000000,
           0.070000000000000000,0.070000000000000000,0.070000000000000000,
           0.070000000000000000,0.070000000000000000,0.070000000000000000,
           0.050000000000000000,0.050000000000000000,0.070000000000000000,
           0.070000000000000000,0.070000000000000000,0.070000000000000000,
           0.070000000000000000,0.070000000000000000,)


tabsol = DEFI_SOL_MISS(
    TITRE="SOL HOMOGENE",
    MATERIAU=(
        _F(E=7.000000E+09,  NU=0.4, RHO=2.1e3, AMOR_HYST=0.10),
        _F(E=7.000000E+09,  NU=0.4, RHO=2.1e3, AMOR_HYST=0.10),
    ),
    COUCHE=(
        _F(EPAIS=113.4, NUME_MATE=1, RECEPTEUR="OUI", SOURCE="OUI"),
        _F(SUBSTRATUM="OUI", NUME_MATE=2,),
    ),
    INFO=2,
)

# exemple de calcul, puis "reprise" pour le post-traitement
CALC_MISS(
    TYPE_RESU = 'FICHIER',
    VERSION = 'V6.6',
    TABLE_SOL = tabsol,
    BASE_MODALE = BASMO,
    MATR_RIGI = MATRIGI,
    MATR_MASS = MATMASS,
    AMOR_REDUIT = l_amor,
    GROUP_MA_INTERF = 'SRADIER',
    UNITE_RESU_IMPE=38,
    UNITE_RESU_FORC=28,

    PARAMETRE=_F(
        FREQ_MIN=dfc,
        FREQ_MAX=fmaxc,
        FREQ_PAS=dfc,
        TYPE='BINAIRE',
        Z0= -11.60,
        SURF='OUI',
        ALGO = 'DEPL',
        OFFSET_MAX=110,
        OFFSET_NB=400,
        SPEC_MAX=0.12,
        SPEC_NB=16384,
    ),
    INFO=2,
)

FIN()
