# TITRE BATIMENT SOUMIS A UNE EXCITATION SISMIQUE : PLAQ_POUT_ORTH
# ======================================================================
# COPYRIGHT (C) 1991 - 2012  EDF R&D                  WWW.CODE-ASTER.ORG
# THIS PROGRAM IS FREE SOFTWARE; YOU CAN REDISTRIBUTE IT AND/OR MODIFY
# IT UNDER THE TERMS OF THE GNU GENERAL PUBLIC LICENSE AS PUBLISHED BY
# THE FREE SOFTWARE FOUNDATION; EITHER VERSION 2 OF THE LICENSE, OR
# (AT YOUR OPTION) ANY LATER VERSION.
#
# THIS PROGRAM IS DISTRIBUTED IN THE HOPE THAT IT WILL BE USEFUL, BUT
# WITHOUT ANY WARRANTY; WITHOUT EVEN THE IMPLIED WARRANTY OF
# MERCHANTABILITY OR FITNESS FOR A PARTICULAR PURPOSE. SEE THE GNU
# GENERAL PUBLIC LICENSE FOR MORE DETAILS.
#
# YOU SHOULD HAVE RECEIVED A COPY OF THE GNU GENERAL PUBLIC LICENSE
# ALONG WITH THIS PROGRAM; IF NOT, WRITE TO EDF R&D CODE_ASTER,
#    1 AVENUE DU GENERAL DE GAULLE, 92141 CLAMART CEDEX, FRANCE.
# ======================================================================

DEBUT(CODE=_F(NOM='SDLX301B',NIV_PUB_WEB='INTERNET',),DEBUG=_F(SDVERI='OUI'))

# caracteristiques des poutres
#Section = 0.4*0.2
#Iyy = 0.2*(0.4**3)/12.0
#Izz = 0.4*(0.2**3)/12.0
#Jxx = 0.000745

Section = 0.08
Iyy = 0.00106667
Izz = 0.000266667
Jxx = 0.000745


#PRE_GIBI()
Mail=LIRE_MAILLAGE(FORMAT='MED',)

Mail=DEFI_GROUP(
   reuse =Mail,
   MAILLAGE=Mail,
   CREA_GROUP_NO=(
      _F(GROUP_MA=('BPFI1','BPFH1','BPFG1','BPFF1','BPFE1','BPFD1','BPFC1','BPFB1','BPFA1',
                   'BPFI2','BPFH2','BPFG2','BPFF2','BPFE2','BPFD2','BPFC2','BPFB2','BPFA2',
                   'BPFI3','BPFH3','BPFG3','BPFF3','BPFE3','BPFD3','BPFC3','BPFB3','BPFA3',),),
   ),
)

# Materiaux
#
# Pour se rapprocher du cas test sdlx301a, la masse volumique est modifiee pour que
# le poids total de la structure soit du meme ordre :
#    Dans sdlx301a, la surface d'une dalle est de 64m2
#    Dans sdlx301b, la surface d'une dalle est de 68.88m2 (modelisation des bords)
#
MatP=DEFI_MATERIAU(ELAS=_F(E=4.0E10, NU=0.15, RHO=2500.0,),)
MatD=DEFI_MATERIAU(ELAS=_F(E=4.0E10, NU=0.15, RHO=2500.0*64.0/68.88,),)
MatZ=DEFI_MATERIAU(ELAS=_F(E=4.0E10, NU=0.15, RHO=4620.0*16.0/17.22,),)

# AFFECTATION DU MATERIAU
Chmat=AFFE_MATERIAU(
   MAILLAGE=Mail,
   AFFE=(
      _F(GROUP_MA=('POUTRES'), MATER=MatP,),
      _F(GROUP_MA=('DALLE1','DALLE2','DALLE3',), MATER=MatD,),
      _F(GROUP_MA=('QRT3DAL1','QRT3DAL2','QRT3DAL3',
                   'BPFE1Z','BPFF1Z','BPFH1Z','BPFI1',
                   'BPFE2Z','BPFF2Z','BPFH2Z','BPFI2',
                   'BPFE3Z','BPFF3Z','BPFH3Z','BPFI3'), MATER=MatZ,),
   ),
)

# DEFINITION DU MODELE
Model=AFFE_MODELE(
   MAILLAGE=Mail,
   AFFE=(
      _F(GROUP_MA=('DALLE1','DALLE2','DALLE3',), PHENOMENE='MECANIQUE', MODELISATION='DKT',),
      _F(GROUP_MA=('POUTRES',), PHENOMENE='MECANIQUE', MODELISATION='POU_D_T',),
   ),
)

Caraelem=AFFE_CARA_ELEM(
   MODELE=Model,
   POUTRE=(
      _F(GROUP_MA=('POUTRES',),SECTION='GENERALE',
         CARA=('A','IY','IZ','AY','AZ','JX',),
         VALE=(Section,Iyy,Izz,1.2,1.2,Jxx,),),
   ),
   ORIENTATION= _F(GROUP_MA=('POUTRES',), CARA='ANGL_VRIL',VALE=0.0,),
   COQUE=_F(GROUP_MA=('DALLE1','DALLE2','DALLE3',), EPAIS=0.2,),
)


Clim1=AFFE_CHAR_MECA(
   MODELE=Model,
   DDL_IMPO=_F(GROUP_NO=('PFI1D','PFH1D','PFG1D','PFF1D','PFE1D','PFD1D','PFC1D','PFB1D','PFA1D',),
               DX=0.0, DY=0.0, DZ=0.0, DRX=0.0, DRY=0.0, DRZ=0.0,),
   LIAISON_ELEM=(
      _F(OPTION="PLAQ_POUT_ORTH",GROUP_MA_1='BPFI1',GROUP_NO_2='PFI1F',VERIF_EXCENT='NON',),
      _F(OPTION="PLAQ_POUT_ORTH",GROUP_MA_1='BPFH1',GROUP_NO_2='PFH1F',VERIF_EXCENT='NON',),
      _F(OPTION="PLAQ_POUT_ORTH",GROUP_MA_1='BPFG1',GROUP_NO_2='PFG1F',VERIF_EXCENT='NON',),
      _F(OPTION="PLAQ_POUT_ORTH",GROUP_MA_1='BPFF1',GROUP_NO_2='PFF1F',VERIF_EXCENT='NON',),
      _F(OPTION="PLAQ_POUT_ORTH",GROUP_MA_1='BPFE1',GROUP_NO_2='PFE1F',VERIF_EXCENT='NON',),
      _F(OPTION="PLAQ_POUT_ORTH",GROUP_MA_1='BPFD1',GROUP_NO_2='PFD1F'),
      _F(OPTION="PLAQ_POUT_ORTH",GROUP_MA_1='BPFC1',GROUP_NO_2='PFC1F'),
      _F(OPTION="PLAQ_POUT_ORTH",GROUP_MA_1='BPFB1',GROUP_NO_2='PFB1F'),
      _F(OPTION="PLAQ_POUT_ORTH",GROUP_MA_1='BPFA1',GROUP_NO_2='PFA1F'),
      _F(OPTION="PLAQ_POUT_ORTH",GROUP_MA_1='BPFI2',GROUP_NO_2='PFI2F'),
      _F(OPTION="PLAQ_POUT_ORTH",GROUP_MA_1='BPFH2',GROUP_NO_2='PFH2F'),
      _F(OPTION="PLAQ_POUT_ORTH",GROUP_MA_1='BPFG2',GROUP_NO_2='PFG2F'),
      _F(OPTION="PLAQ_POUT_ORTH",GROUP_MA_1='BPFF2',GROUP_NO_2='PFF2F'),
      _F(OPTION="PLAQ_POUT_ORTH",GROUP_MA_1='BPFE2',GROUP_NO_2='PFE2F'),
      _F(OPTION="PLAQ_POUT_ORTH",GROUP_MA_1='BPFD2',GROUP_NO_2='PFD2F'),
      _F(OPTION="PLAQ_POUT_ORTH",GROUP_MA_1='BPFC2',GROUP_NO_2='PFC2F'),
      _F(OPTION="PLAQ_POUT_ORTH",GROUP_MA_1='BPFB2',GROUP_NO_2='PFB2F'),
      _F(OPTION="PLAQ_POUT_ORTH",GROUP_MA_1='BPFA2',GROUP_NO_2='PFA2F'),
      _F(OPTION="PLAQ_POUT_ORTH",GROUP_MA_1='BPFI3',GROUP_NO_2='PFI3F'),
      _F(OPTION="PLAQ_POUT_ORTH",GROUP_MA_1='BPFH3',GROUP_NO_2='PFH3F'),
      _F(OPTION="PLAQ_POUT_ORTH",GROUP_MA_1='BPFG3',GROUP_NO_2='PFG3F'),
      _F(OPTION="PLAQ_POUT_ORTH",GROUP_MA_1='BPFF3',GROUP_NO_2='PFF3F'),
      _F(OPTION="PLAQ_POUT_ORTH",GROUP_MA_1='BPFE3',GROUP_NO_2='PFE3F'),
      _F(OPTION="PLAQ_POUT_ORTH",GROUP_MA_1='BPFD3',GROUP_NO_2='PFD3F'),
      _F(OPTION="PLAQ_POUT_ORTH",GROUP_MA_1='BPFC3',GROUP_NO_2='PFC3F',VERIF_EXCENT='NON',),
      _F(OPTION="PLAQ_POUT_ORTH",GROUP_MA_1='BPFB3',GROUP_NO_2='PFB3F',VERIF_EXCENT='NON',),
      _F(OPTION="PLAQ_POUT_ORTH",GROUP_MA_1='BPFA3',GROUP_NO_2='PFA3F',VERIF_EXCENT='NON',),
   ),
)

# CALCUL DES MATRICES ELEMENTAIRES DE RIGIDITES
RIGIELEM=CALC_MATR_ELEM(
   OPTION='RIGI_MECA',
   MODELE=Model,
   CHAM_MATER=Chmat,
   CARA_ELEM=Caraelem,
   CHARGE=Clim1,
)

# CALCUL DES MATRICES ELEMENTAIRES DE MASSES
MASSELEM=CALC_MATR_ELEM(
   OPTION='MASS_MECA',
   MODELE=Model,
   CHAM_MATER=Chmat,
   CARA_ELEM=Caraelem,
   CHARGE=Clim1,
)

# NUMEROTATIOM
NUMEDDL=NUME_DDL(MATR_RIGI=RIGIELEM, RENUM='MD',);

# MATRICE DE RIGIDITE
RIGIDITE=ASSE_MATRICE(MATR_ELEM=RIGIELEM,NUME_DDL=NUMEDDL,);

# MATRICE DE MASSE
MASSE=ASSE_MATRICE(MATR_ELEM=MASSELEM, NUME_DDL=NUMEDDL,);

MODE1=MODE_ITER_SIMULT(
   MATR_RIGI=RIGIDITE,
   MATR_MASS=MASSE,
   CALC_FREQ=_F(OPTION='PLUS_PETITE', NMAX_FREQ=8,),
   VERI_MODE=_F(STOP_ERREUR='NON',SEUIL=0.000001,),
)


LesFreq = [ 1.8343890992154E+00 , 2.7361047587583E+00 , 3.1001515966173E+00 , 5.5112028875577E+00 ,
            8.7358154956292E+00 , 8.9451364616896E+00 , 1.0063045073167E+01 , 1.5891993106193E+01 ]
for ifreq in range(len(LesFreq)):
   TEST_RESU(RESU=_F(NUME_ORDRE=ifreq+1,
                     PARA='FREQ',
                     RESULTAT=MODE1,
                     VALE_CALC=LesFreq[ifreq],
                     ),
             )


#IMPR_RESU(
#  MODELE=Model,
#  FORMAT='MED',
#  RESU=_F(RESULTAT=MODE1, NOM_CHAM='DEPL',),
#)

FIN()
