# TITRE PROBLEME DE HOVGAARD(POU_D_TG): CALCUL MODAL ET CALCUL SPECTRAL
#            CONFIGURATION MANAGEMENT OF EDF VERSION
# ======================================================================
# COPYRIGHT (C) 1991 - 2012  EDF R&D                  WWW.CODE-ASTER.ORG
# THIS PROGRAM IS FREE SOFTWARE; YOU CAN REDISTRIBUTE IT AND/OR MODIFY
# IT UNDER THE TERMS OF THE GNU GENERAL PUBLIC LICENSE AS PUBLISHED BY
# THE FREE SOFTWARE FOUNDATION; EITHER VERSION 2 OF THE LICENSE, OR
# (AT YOUR OPTION) ANY LATER VERSION.
#
# THIS PROGRAM IS DISTRIBUTED IN THE HOPE THAT IT WILL BE USEFUL, BUT
# WITHOUT ANY WARRANTY; WITHOUT EVEN THE IMPLIED WARRANTY OF
# MERCHANTABILITY OR FITNESS FOR A PARTICULAR PURPOSE. SEE THE GNU
# GENERAL PUBLIC LICENSE FOR MORE DETAILS.
#
# YOU SHOULD HAVE RECEIVED A COPY OF THE GNU GENERAL PUBLIC LICENSE
# ALONG WITH THIS PROGRAM; IF NOT, WRITE TO EDF R&D CODE_ASTER,
#    1 AVENUE DU GENERAL DE GAULLE, 92141 CLAMART CEDEX, FRANCE.
# ======================================================================
#

DEBUT(CODE=_F(NOM='SDLX02B',NIV_PUB_WEB='INTERNET'),DEBUG=_F(SDVERI='OUI'))

MAILLAGE=LIRE_MAILLAGE(FORMAT='MED', )

MODELE=AFFE_MODELE(  MAILLAGE=MAILLAGE,AFFE=(
                  _F(  GROUP_MA = 'POU_D_T',  PHENOMENE = 'MECANIQUE',
                         MODELISATION = 'POU_D_TG'),
                       _F(  GROUP_MA = 'POU_C_T',  PHENOMENE = 'MECANIQUE',
                         MODELISATION = 'POU_C_T'))                  )

#

MAT=DEFI_MATERIAU( ELAS=_F(  E = 1.658E+11,  RHO = 1.3404106E+04,
                                   NU = 0.3,  ALPHA = 1.288E-05)    )

CHAMPMAT=AFFE_MATERIAU(  MAILLAGE=MAILLAGE,
                            AFFE=_F(  GROUP_MA = 'MAT_1',  MATER = MAT) )

COND_LIM=AFFE_CHAR_MECA(  MODELE=MODELE,
                         DDL_IMPO=_F(  GROUP_NO = 'ENCASTRE',
                                    DX = 0.,  DY = 0.,  DZ = 0.,
                                    DRX = 0.,  DRY = 0.,  DRZ = 0.)   )

#

CARA_ELE=AFFE_CARA_ELEM(  MODELE=MODELE,POUTRE=(
                  _F(  GROUP_MA = 'SEC_1',  SECTION = 'GENERALE',
                           CARA = ( 'A',  'IZ', 'IY', 'AY', 'AZ', 'JX',
                                  'EZ', 'EY', 'RY', 'RZ', 'RT',      ),
                           VALE = ( 3.4390E-03,  1.3770E-05,  1.3770E-05,
                                  2.0,  2.0,  2.7540E-05,  0.0,  0.0,
                                  1.0,  1.0,  1.0,        )),
                         _F(  GROUP_MA = 'SEC_2', SECTION = 'GENERALE',
                           CARA = ( 'A',  'IZ', 'IY', 'AY', 'AZ', 'JX',
                                  'EZ', 'EY', 'RY', 'RZ', 'RT',      ),
                           VALE = ( 3.4390E-03, 5.8870E-06, 5.8870E-06,
                                  2.0,  2.0,  2.7540E-05,  0.0,  0.0,
                                  1.0,  1.0,  1.0,        ))),DEFI_ARC=(
                  _F(  MAILLE = 'E3',  ORIE_ARC = 90., RAYON = 0.922),
                           _F(  MAILLE = 'E4',  ORIE_ARC = 90., RAYON = 0.922),
                           _F(  MAILLE = 'E9',  ORIE_ARC = 0., RAYON = 0.922),
                           _F(  MAILLE = 'E10', ORIE_ARC = 0., RAYON = 0.922)) )

#

RIGI_ELE=CALC_MATR_ELEM(  MODELE=MODELE,   OPTION='RIGI_MECA',
                              CHAM_MATER=CHAMPMAT,   CARA_ELEM=CARA_ELE,
                              CHARGE=( COND_LIM, )                   )

MASS_ELE=CALC_MATR_ELEM(  MODELE=MODELE,   OPTION='MASS_MECA',
                              CHAM_MATER=CHAMPMAT,   CARA_ELEM=CARA_ELE,
                              CHARGE=( COND_LIM, )                   )

NUMEDDL=NUME_DDL(  MATR_RIGI=RIGI_ELE)

RIGIDITE=ASSE_MATRICE(  MATR_ELEM=RIGI_ELE,   NUME_DDL=NUMEDDL )

MASSE=ASSE_MATRICE(  MATR_ELEM=MASS_ELE,   NUME_DDL=NUMEDDL )

MODE=MODE_ITER_SIMULT(  MATR_RIGI=RIGIDITE,   MATR_MASS=MASSE,
                    METHODE='TRI_DIAG',
                  CALC_FREQ=_F(  NMAX_FREQ = 9) )


TEST_RESU(RESU=(_F(PARA='FREQ',
                   NUME_MODE=1,
                   RESULTAT=MODE,
                   VALE_CALC=10.448795847,
                   VALE_REFE=10.390000000000001,
                   REFERENCE='NON_DEFINI',
                   PRECISION=6.0000000000000001E-3,),
                _F(PARA='FREQ',
                   NUME_MODE=2,
                   RESULTAT=MODE,
                   VALE_CALC=19.906716702,
                   VALE_REFE=20.02,
                   REFERENCE='NON_DEFINI',
                   PRECISION=6.0000000000000001E-3,),
                _F(PARA='FREQ',
                   NUME_MODE=3,
                   RESULTAT=MODE,
                   VALE_CALC=25.336904513,
                   VALE_REFE=25.449999999999999,
                   REFERENCE='NON_DEFINI',
                   PRECISION=5.0000000000000001E-3,),
                _F(PARA='FREQ',
                   NUME_MODE=4,
                   RESULTAT=MODE,
                   VALE_CALC=46.880588196,
                   VALE_REFE=48.32,
                   REFERENCE='NON_DEFINI',
                   PRECISION=0.029999999999999999,),
                _F(PARA='FREQ',
                   NUME_MODE=5,
                   RESULTAT=MODE,
                   VALE_CALC=51.770837176,
                   VALE_REFE=52.600000000000001,
                   REFERENCE='NON_DEFINI',
                   PRECISION=0.016,),
                _F(PARA='FREQ',
                   NUME_MODE=6,
                   RESULTAT=MODE,
                   VALE_CALC=82.433933139,
                   VALE_REFE=84.810000000000002,
                   REFERENCE='NON_DEFINI',
                   PRECISION=0.029000000000000001,),
                _F(PARA='FREQ',
                   NUME_MODE=7,
                   RESULTAT=MODE,
                   VALE_CALC=84.173721147,
                   VALE_REFE=87.159999999999997,
                   REFERENCE='NON_DEFINI',
                   PRECISION=0.035000000000000003,),
                _F(PARA='FREQ',
                   NUME_MODE=8,
                   RESULTAT=MODE,
                   VALE_CALC=130.138581096,
                   VALE_REFE=129.31,
                   REFERENCE='NON_DEFINI',
                   PRECISION=7.0000000000000001E-3,),
                _F(PARA='FREQ',
                   NUME_MODE=9,
                   RESULTAT=MODE,
                   VALE_CALC=131.69,
                   TOLE_MACHINE=1.E-3,
                   ),
                ),
          )

#

FIN( )
#

