# MODIF  DATE 26/09/2012   AUTEUR LEBOUVIER F.LEBOUVIER 
# TITRE TEST DE NON-REGRESSION D'ASTER :  MODES PROPRES
# RESPONSABLE VABHHTS J.PELLET
# sdlx201a.para = tps_job 300 mem_job 768Mo ncpus 1 liste_test RI
#            CONFIGURATION MANAGEMENT OF EDF VERSION
# ======================================================================
# COPYRIGHT (C) 1991 - 2012  EDF R&D                  WWW.CODE-ASTER.ORG
# THIS PROGRAM IS FREE SOFTWARE; YOU CAN REDISTRIBUTE IT AND/OR MODIFY
# IT UNDER THE TERMS OF THE GNU GENERAL PUBLIC LICENSE AS PUBLISHED BY
# THE FREE SOFTWARE FOUNDATION; EITHER VERSION 2 OF THE LICENSE, OR
# (AT YOUR OPTION) ANY LATER VERSION.
#
# THIS PROGRAM IS DISTRIBUTED IN THE HOPE THAT IT WILL BE USEFUL, BUT
# WITHOUT ANY WARRANTY; WITHOUT EVEN THE IMPLIED WARRANTY OF
# MERCHANTABILITY OR FITNESS FOR A PARTICULAR PURPOSE. SEE THE GNU
# GENERAL PUBLIC LICENSE FOR MORE DETAILS.
#
# YOU SHOULD HAVE RECEIVED A COPY OF THE GNU GENERAL PUBLIC LICENSE
# ALONG WITH THIS PROGRAM; IF NOT, WRITE TO EDF R&D CODE_ASTER,
#    1 AVENUE DU GENERAL DE GAULLE, 92141 CLAMART CEDEX, FRANCE.
# ======================================================================

DEBUT(CODE=_F( NOM = 'SDLX201A',NIV_PUB_WEB='INTERNET'),DEBUG=_F(SDVERI='OUI'),
      MESURE_TEMPS=_F(NIVE_DETAIL=2))

# ================================================
#
#      TEST SDLX201A DE NON_REGRESSION ASTER POUR VALIDER:
#        - LES DIFFERENTS SOLVEURS MODAUX EN GEP ET QEP SYMETRIQUE REELS
#        - LEUR INTER-OPERABILITE AVEC LES SOLVEURS LINEAIRES DIRECTS
#        - CERTAINES COMMANDES DE PRE ET POSTTRAITEMENTS MODAUX (INFO_MODE,
#             NORM_MODE...)

#
#      MECANIQUE 3D + COQUE + POUTRE + MODES PROPRES
#
#      ATTENTION :
#      LES VALEURS DE REFERENCE ONT ETE OBTENUES
#      PAR UN PASSAGE PRECEDENT DU CODE_ASTER.
# ================================================

MA=LIRE_MAILLAGE( )

MO=AFFE_MODELE(  MAILLAGE=MA,AFFE=(
     _F(  MAILLE = 'HE1',    PHENOMENE = 'MECANIQUE',MODELISATION = '3D'),
          _F(  GROUP_MA = 'GRMA1',PHENOMENE = 'MECANIQUE',MODELISATION = 'DKT'),
          _F(  GROUP_MA = 'GRMA2',PHENOMENE = 'MECANIQUE',MODELISATION = 'POU_D_E'))
     )

MAT=DEFI_MATERIAU(  ELAS=_F( E = 2.E5, NU = 0.3, RHO = 8000., ALPHA = 0.))

CHMA=AFFE_MATERIAU(  MAILLAGE=MA, AFFE=_F( TOUT = 'OUI', MATER = MAT))

CARA=AFFE_CARA_ELEM(  MODELE=MO,
       COQUE=_F(  GROUP_MA = 'GRMA1',EPAIS = 1.),
       POUTRE=_F(  GROUP_MA = 'GRMA2',
                SECTION = 'RECTANGLE',CARA = ('HZ','HY',),VALE = (3.,1.,))
       )

CHM1=AFFE_CHAR_MECA(  MODELE=MO,DDL_IMPO=(
       _F( GROUP_NO = 'GRNO1', DX = 0., DY = 0., DZ = 0.),
                _F( NOEUD = ('N10','N11','N26','N23',), DZ = 0.))
       )

CHM2=AFFE_CHAR_MECA(  MODELE=MO,LIAISON_GROUP=(

        _F(   NOEUD_1 = ('N4','N16',),
           NOEUD_2 = ('N21','N25',),
           DDL_1 = 'DX',
           DDL_2 = 'DX',
           COEF_MULT_1 = 1.,
           COEF_MULT_2 = -1.,
           COEF_IMPO = 0.),
        _F(   NOEUD_1 = ('N4','N16',),
           NOEUD_2 = ('N21','N25',),
           DDL_1 = 'DY',
           DDL_2 = 'DY',
           COEF_MULT_1 = 1.,
           COEF_MULT_2 = -1.,
           COEF_IMPO = 0.),
        _F(   NOEUD_1 = ('N4','N16',),
           NOEUD_2 = ('N21','N25',),
           DDL_1 = 'DZ',
           DDL_2 = 'DZ',
           COEF_MULT_1 = 1.,
           COEF_MULT_2 = -1.,
           COEF_IMPO = 0.),
        _F(   NOEUD_1 = ('N5','N11','N17',),
           GROUP_NO_2 = 'GRNO3',
           DDL_1 = 'DX',
           DDL_2 = 'DRZ',
           COEF_MULT_1 = 1.,
           COEF_MULT_2 = 0.5,
           COEF_IMPO = 0.),
        _F(   NOEUD_1 = ('N3','N15','N10',),
           GROUP_NO_2 = 'GRNO3',
           DDL_1 = 'DX',
           DDL_2 = 'DRZ',
           COEF_MULT_1 = 1.,
           COEF_MULT_2 = -0.5,
           COEF_IMPO = 0.)),LIAISON_DDL=(

        _F( NOEUD = ('N22','N23',), DDL = ('DRZ','DRZ',),
         COEF_MULT = (1.,-1.,), COEF_IMPO = 0.),
        _F( NOEUD = ('N23','N24',), DDL = ('DRZ','DRZ',),
         COEF_MULT = (1.,-1.,), COEF_IMPO = 0.)),
       FORCE_NODALE=_F( NOEUD = 'N29',FY = -1.)
      )

#
#      MATRICES ELEMENTAIRES ET ASSEMBLAGE
#      ----------------------------------------------------
RIGEL=CALC_MATR_ELEM(  MODELE=MO,  CHAM_MATER=CHMA,
               CHARGE=( CHM1,CHM2,), 
               OPTION='RIGI_MECA',
                        CARA_ELEM=CARA  )

MASEL=CALC_MATR_ELEM(  MODELE=MO,   CHAM_MATER=CHMA,
           OPTION='MASS_MECA',  CARA_ELEM=CARA  )

#-----------------------------------------------------------------------
#    GEP SYMETRIQUE REEL
#-----------------------------------------------------------------------

#       1. SOLVEUR : 'LDLT' :
#       ---------------------


NU=NUME_DDL(MATR_RIGI=RIGEL)
RIGAS=ASSE_MATRICE(MATR_ELEM=RIGEL,NUME_DDL=NU)
MASAS=ASSE_MATRICE(MATR_ELEM=MASEL,NUME_DDL=NU)



NBMOD1 = INFO_MODE(MATR_RIGI=RIGAS,MATR_MASS=MASAS,FREQ_MAX=100.,
                          SOLVEUR=_F(METHODE='LDLT'))


TEST_TABLE(TABLE=NBMOD1,REFERENCE='ANALYTIQUE',
           NOM_PARA='NB_MODE', VALE_I=66)                          

#       1.1 MODE_ITER_SIMULT

#       ---------------------

MOD0=MODE_ITER_SIMULT(   MATR_RIGI=RIGAS,
                         MATR_MASS=MASAS,
                         METHODE='SORENSEN',SOLVEUR=_F(METHODE='LDLT'),
                         CALC_FREQ=_F(  OPTION = 'PLUS_PETITE',
                                        NMAX_FREQ = 7),
                         VERI_MODE=_F(  STOP_ERREUR = 'OUI',
                                        SEUIL = 1.5E-2,
                                        PREC_SHIFT = 0.008)
                          )


MOD1=MODE_ITER_SIMULT(   MATR_RIGI=RIGAS,
                         MATR_MASS=MASAS,
                         METHODE='TRI_DIAG',SOLVEUR=_F(METHODE='LDLT'),
                         CALC_FREQ=_F(  OPTION = 'PLUS_PETITE',
                                        NMAX_FREQ = 7),
                         VERI_MODE=_F(  STOP_ERREUR = 'OUI',
                                        SEUIL = 1.5E-2,
                                        PREC_SHIFT = 0.008)
                          )


MOD2=MODE_ITER_SIMULT(   MATR_RIGI=RIGAS,
                         MATR_MASS=MASAS,
                         METHODE='JACOBI',SOLVEUR=_F(METHODE='LDLT'),
                         NMAX_ITER_BATHE = 30,
                         OPTION='SANS',
                         CALC_FREQ=_F(  OPTION = 'CENTRE',
                                        FREQ = 2.E-2,
                                        NMAX_FREQ = 10,))


MOD1_QZ=MODE_ITER_SIMULT(   MATR_RIGI=RIGAS,
                         MATR_MASS=MASAS,TYPE_QZ='QZ_SIMPLE',
                         METHODE='QZ',SOLVEUR=_F(METHODE='LDLT'),
                         CALC_FREQ=_F(  OPTION = 'PLUS_PETITE',
                                        NMAX_FREQ = 7),
                         VERI_MODE=_F(  STOP_ERREUR = 'OUI',
                                        SEUIL = 1.5E-2,
                                        PREC_SHIFT = 0.008)
                          )

MOD2_QZ=MODE_ITER_SIMULT(   MATR_RIGI=RIGAS,
                         MATR_MASS=MASAS,TYPE_QZ='QZ_EQUI',
                         METHODE='QZ',SOLVEUR=_F(METHODE='LDLT'),
                         CALC_FREQ=_F(  OPTION = 'PLUS_PETITE',
                                        NMAX_FREQ = 7),
                         VERI_MODE=_F(  STOP_ERREUR = 'OUI',
                                        SEUIL = 1.5E-2,
                                        PREC_SHIFT = 0.008)
                          )


#       1.2 MODE_ITER_INV:

#       ---------------------

MOD4=MODE_ITER_INV(MATR_RIGI=RIGAS,MATR_MASS=MASAS,
                   SOLVEUR=_F(METHODE='LDLT'),
                 CALC_FREQ=_F( OPTION = 'PROCHE',
               FREQ = ( 6.2E-3,  6.14E-2,)) )


MOD5=MODE_ITER_INV(MATR_RIGI=RIGAS, MATR_MASS=MASAS,
                   SOLVEUR=_F(METHODE='LDLT'),
          CALC_FREQ=_F( OPTION = 'SEPARE', FREQ = (1.E-2,6.E-2,)))


MOD6=MODE_ITER_INV(MATR_RIGI=RIGAS,  MATR_MASS=MASAS,
                   SOLVEUR=_F(METHODE='LDLT'),
           CALC_FREQ=_F( OPTION = 'AJUSTE',  FREQ = (1.E-2,6.E-2,)))


#-----------------------------------------------------------------------

#       2. SOLVEUR : 'MULT_FRONT' :
#       ---------------------

NBMOD2 = INFO_MODE(MATR_RIGI=RIGAS,MATR_MASS=MASAS,FREQ_MAX=100.,
                         SOLVEUR=_F(METHODE='MULT_FRONT'))

           
TEST_TABLE(TABLE=NBMOD2,REFERENCE='ANALYTIQUE',
           NOM_PARA='NB_MODE', VALE_I=66) 
            
#       2.1 MODE_ITER_SIMULT

#       ---------------------

MOF0=MODE_ITER_SIMULT(   MATR_RIGI=RIGAS,
                         MATR_MASS=MASAS,SOLVEUR=_F(METHODE='MULT_FRONT'),
                         METHODE='SORENSEN',
                         CALC_FREQ=_F(  OPTION = 'PLUS_PETITE',
                                        NMAX_FREQ = 7),
                         VERI_MODE=_F(  STOP_ERREUR = 'OUI',
                                        SEUIL = 1.5E-2,
                                        PREC_SHIFT = 0.008)
                           )


MOF1=MODE_ITER_SIMULT(   MATR_RIGI=RIGAS,
                         MATR_MASS=MASAS,
                         METHODE='TRI_DIAG',
                         SOLVEUR=_F(METHODE='MULT_FRONT'),
                         CALC_FREQ=_F(  OPTION = 'PLUS_PETITE',
                                        NMAX_FREQ = 7),
                         VERI_MODE=_F(  STOP_ERREUR = 'OUI',
                                        SEUIL = 1.5E-2,
                                        PREC_SHIFT = 0.008)
                           )


MOF2=MODE_ITER_SIMULT(   MATR_RIGI=RIGAS,
                         MATR_MASS=MASAS,
                         METHODE='JACOBI',
                         SOLVEUR=_F(METHODE='MULT_FRONT'),
                         NMAX_ITER_BATHE = 30,
                         OPTION='SANS',
                         CALC_FREQ=_F(  OPTION = 'CENTRE',
                                        FREQ = 2.E-2,
                                        NMAX_FREQ = 10,))


MOF1_QZ=MODE_ITER_SIMULT(   MATR_RIGI=RIGAS,
                         MATR_MASS=MASAS,TYPE_QZ='QZ_SIMPLE',
                         METHODE='QZ',SOLVEUR=_F(METHODE='MULT_FRONT'),
                         CALC_FREQ=_F(  OPTION = 'PLUS_PETITE',
                                        NMAX_FREQ = 7),
                         VERI_MODE=_F(  STOP_ERREUR = 'OUI',
                                        SEUIL = 1.5E-2,
                                        PREC_SHIFT = 0.008)
                          )


MOF2_QZ=MODE_ITER_SIMULT(   MATR_RIGI=RIGAS,
                         MATR_MASS=MASAS,TYPE_QZ='QZ_EQUI',
                         METHODE='QZ',SOLVEUR=_F(METHODE='MULT_FRONT'),
                         CALC_FREQ=_F(  OPTION = 'PLUS_PETITE',
                                        NMAX_FREQ = 7),
                         VERI_MODE=_F(  STOP_ERREUR = 'OUI',
                                        SEUIL = 1.5E-2,
                                        PREC_SHIFT = 0.008)
                          )

#       2.2 MODE_ITER_INV:

#       ---------------------

MOF4=MODE_ITER_INV(   MATR_RIGI=RIGAS,   MATR_MASS=MASAS,
                   SOLVEUR=_F(METHODE='MULT_FRONT'),
                 CALC_FREQ=_F( OPTION = 'PROCHE',
               FREQ = ( 6.2E-3,  6.14E-2,)))


MOF5=MODE_ITER_INV(MATR_RIGI=RIGAS, MATR_MASS=MASAS,
                   SOLVEUR=_F(METHODE='MULT_FRONT'),
           CALC_FREQ=_F( OPTION = 'SEPARE', FREQ = (1.E-2,6.E-2,)))


MOF6=MODE_ITER_INV(MATR_RIGI=RIGAS,  MATR_MASS=MASAS,
                   SOLVEUR=_F(METHODE='MULT_FRONT'),
           CALC_FREQ=_F( OPTION = 'AJUSTE',  FREQ = (1.E-2,6.E-2,)))



#-----------------------------------------------------------------------

#       3. SOLVEUR : 'MUMPS' :
#       ---------------------

NBMOD3 = INFO_MODE(MATR_RIGI=RIGAS,MATR_MASS=MASAS,FREQ_MAX=100.,
                         SOLVEUR=_F(METHODE='MUMPS'))


TEST_TABLE(TABLE=NBMOD3,REFERENCE='ANALYTIQUE',
           NOM_PARA='NB_MODE', VALE_I=66) 
           
#       3.1 MODE_ITER_SIMULT

#       ---------------------

MOM0=MODE_ITER_SIMULT(   MATR_RIGI=RIGAS,
                         MATR_MASS=MASAS,SOLVEUR=_F(METHODE='MUMPS'),
                         METHODE='SORENSEN',
                         CALC_FREQ=_F(  OPTION = 'PLUS_PETITE',
                                        NMAX_FREQ = 7),
                         VERI_MODE=_F(  STOP_ERREUR = 'OUI',
                                        SEUIL = 1.5E-2,
                                        PREC_SHIFT = 0.008)
                           )


MOM1=MODE_ITER_SIMULT(   MATR_RIGI=RIGAS,
                         MATR_MASS=MASAS,
                         METHODE='TRI_DIAG',
                         SOLVEUR=_F(METHODE='MUMPS'),
                         CALC_FREQ=_F(  OPTION = 'PLUS_PETITE',
                                        NMAX_FREQ = 7),
                         VERI_MODE=_F(  STOP_ERREUR = 'OUI',
                                        SEUIL = 1.5E-2,
                                        PREC_SHIFT = 0.008)
                           )


MOM2=MODE_ITER_SIMULT(   MATR_RIGI=RIGAS,
                         MATR_MASS=MASAS,
                         METHODE='JACOBI',
                         SOLVEUR=_F(METHODE='MUMPS'),
                         NMAX_ITER_BATHE = 30,
                         OPTION='SANS',
                         CALC_FREQ=_F(  OPTION = 'CENTRE',
                                        FREQ = 2.E-2,
                                        NMAX_FREQ = 10,))


MOM1_QZ=MODE_ITER_SIMULT(   MATR_RIGI=RIGAS,
                         MATR_MASS=MASAS,TYPE_QZ='QZ_SIMPLE',
                         METHODE='QZ',SOLVEUR=_F(METHODE='MUMPS'),
                         CALC_FREQ=_F(  OPTION = 'PLUS_PETITE',
                                        NMAX_FREQ = 7),
                         VERI_MODE=_F(  STOP_ERREUR = 'OUI',
                                        SEUIL = 1.5E-2,
                                        PREC_SHIFT = 0.008)
                          )

MOM2_QZ=MODE_ITER_SIMULT(   MATR_RIGI=RIGAS,
                         MATR_MASS=MASAS,TYPE_QZ='QZ_EQUI',
                         METHODE='QZ',SOLVEUR=_F(METHODE='MUMPS'),
                         CALC_FREQ=_F(  OPTION = 'PLUS_PETITE',
                                        NMAX_FREQ = 7),
                         VERI_MODE=_F(  STOP_ERREUR = 'OUI',
                                        SEUIL = 1.5E-2,
                                        PREC_SHIFT = 0.008)
                          )


#       3.2 MODE_ITER_INV:

#       ---------------------

MOM4=MODE_ITER_INV(   MATR_RIGI=RIGAS,   MATR_MASS=MASAS, INFO=1,
                   SOLVEUR=_F(METHODE='MUMPS'),
                 CALC_FREQ=_F( OPTION = 'PROCHE',
               FREQ = ( 6.2E-3,  6.14E-2,)))


MOM5=MODE_ITER_INV(MATR_RIGI=RIGAS, MATR_MASS=MASAS, INFO=1,
                   SOLVEUR=_F(METHODE='MUMPS'),
           CALC_FREQ=_F( OPTION = 'SEPARE', FREQ = (1.E-2,6.E-2,)))


MOM6=MODE_ITER_INV(MATR_RIGI=RIGAS,  MATR_MASS=MASAS, INFO=1,
                   SOLVEUR=_F(METHODE='MUMPS'),
           CALC_FREQ=_F( OPTION = 'AJUSTE',  FREQ = (1.E-2,6.E-2,)))



#-----------------------------------------------------------------------
#    PRE ET POST-TRAITEMENTS MODAUX
#-----------------------------------------------------------------------

#       4. NORM_MODE :
#       ---------------------

MODN1=NORM_MODE(   MODE=MOD1,   NORME='MASS_GENE' )

MODN2=NORM_MODE(   MODE=MOD1,   NORME='RIGI_GENE' )

MODN3=NORM_MODE(   MODE=MOD1,   NORME='TRAN' )

MODN4=NORM_MODE(   MODE=MOD1,   NORME='TRAN_ROTA' )

MODN5=NORM_MODE(   MODE=MOD1,   NORME='EUCL' )

MODN6=NORM_MODE(   MODE=MOD1,
              NOEUD='N21', NOM_CMP='DRY' )

MODN7=NORM_MODE(   MODE=MOD1,
            MODE_SIGNE=_F(  NOEUD = 'N21', NOM_CMP = 'DY', SIGNE = 'POSITIF'),
             SANS_CMP=('DY', 'DZ', 'DRX', 'DRY', 'DRZ', ))

MODN8=NORM_MODE(   MODE=MOD1,
             AVEC_CMP=('DX', 'DZ', 'DRZ', ))


BASMOD=DEFI_BASE_MODALE(RITZ=_F(MODE_MECA=MOD1,),)

DEBUG(SDVERI='OUI') # fiche 9158
MODB1=NORM_MODE(   MODE=BASMOD,   NORME='MASS_GENE', MASSE=MASAS, RAIDE=RIGAS, )

MODB2=NORM_MODE(   MODE=BASMOD,   NORME='RIGI_GENE', MASSE=MASAS, RAIDE=RIGAS, )

MODB3=NORM_MODE(   MODE=BASMOD,   NORME='TRAN', MASSE=MASAS, RAIDE=RIGAS,)

MODB4=NORM_MODE(   MODE=BASMOD,   NORME='TRAN_ROTA', MASSE=MASAS, RAIDE=RIGAS,)

MODB5=NORM_MODE(   MODE=BASMOD,   NORME='EUCL', MASSE=MASAS, RAIDE=RIGAS,)

MODB6=NORM_MODE(   MODE=BASMOD, MASSE=MASAS, RAIDE=RIGAS,
              NOEUD='N21', NOM_CMP='DRY' )

MODB7=NORM_MODE(   MODE=BASMOD, MASSE=MASAS, RAIDE=RIGAS,
            MODE_SIGNE=_F(  NOEUD = 'N21', NOM_CMP = 'DY', SIGNE = 'POSITIF'),
             SANS_CMP=('DY', 'DZ', 'DRX', 'DRY', 'DRZ', ))

MODB8=NORM_MODE(   MODE=BASMOD, MASSE=MASAS, RAIDE=RIGAS,
             AVEC_CMP=('DX', 'DZ', 'DRZ', ))
DEBUG(SDVERI='OUI') # fiche 9158


#-----------------------------------------------------------------------
#    QEP SYMETRIQUE REEL
#-----------------------------------------------------------------------

#       5. MODE_ITER_XXX /MATR_C
#       -------------------------

AMORT=COMB_MATR_ASSE(COMB_R=(
         _F(  MATR_ASSE = RIGAS, COEF_R = 0.015),
         _F(  MATR_ASSE = MASAS, COEF_R = 0.015)))

#       5.1. SOLVEUR : 'LDLT' :
#       ---------------------

MOC0L=MODE_ITER_SIMULT(  MATR_RIGI=RIGAS,   MATR_MASS=MASAS,
                    MATR_AMOR=AMORT,
                 METHODE='SORENSEN',SOLVEUR=_F(METHODE='LDLT'),
                CALC_FREQ=_F(  APPROCHE = 'REEL', FREQ = (0.1,),
                OPTION='CENTRE',
                NMAX_FREQ = 2) )


MOC1L=MODE_ITER_SIMULT(  MATR_RIGI=RIGAS,   MATR_MASS=MASAS,
                    MATR_AMOR=AMORT,
                 METHODE='TRI_DIAG',SOLVEUR=_F(METHODE='LDLT'),
                  OPTION='SANS',
                CALC_FREQ=_F(  APPROCHE = 'REEL', FREQ = (0.1,),
                OPTION='CENTRE',
                NMAX_FREQ = 2) )


MOC2L=MODE_ITER_INV(   MATR_RIGI=RIGAS,   MATR_MASS=MASAS,
                   MATR_AMOR=AMORT,SOLVEUR=_F(METHODE='LDLT'),
                 CALC_FREQ=_F( OPTION = 'PROCHE',
               FREQ = ( 6.2E-3,  6.14E-2,)),
               VERI_MODE=_F(  STOP_ERREUR = 'OUI'))


MOC3L=MODE_ITER_SIMULT(  MATR_RIGI=RIGAS,   MATR_MASS=MASAS,
                    MATR_AMOR=AMORT,INFO=1,SOLVEUR=_F(METHODE='LDLT'),
                 METHODE='QZ',TYPE_QZ='QZ_EQUI',
                CALC_FREQ=_F( FREQ = (0.1,),OPTION='CENTRE',NMAX_FREQ = 2),
                VERI_MODE=_F(SEUIL=1.E-05) )


#       5.2. SOLVEUR : 'MULT_FRONT' :
#       ---------------------

MOC0F=MODE_ITER_SIMULT(  MATR_RIGI=RIGAS,   MATR_MASS=MASAS,
                    MATR_AMOR=AMORT,
                 METHODE='SORENSEN',SOLVEUR=_F(METHODE='MULT_FRONT'),
                  OPTION='SANS',
                CALC_FREQ=_F(  APPROCHE = 'REEL', FREQ = (0.1,),
                OPTION='CENTRE',
                NMAX_FREQ = 2) )

MOC1F=MODE_ITER_SIMULT(  MATR_RIGI=RIGAS,   MATR_MASS=MASAS,
                    MATR_AMOR=AMORT,
                 METHODE='TRI_DIAG',SOLVEUR=_F(METHODE='MULT_FRONT'),
                  OPTION='SANS',
                CALC_FREQ=_F(  APPROCHE = 'REEL', FREQ = (0.1,),
                OPTION='CENTRE',
                NMAX_FREQ = 2) )


MOC2F=MODE_ITER_INV(   MATR_RIGI=RIGAS,   MATR_MASS=MASAS,
                   MATR_AMOR=AMORT,SOLVEUR=_F(METHODE='MULT_FRONT'),
                 CALC_FREQ=_F( OPTION = 'PROCHE',
               FREQ = ( 6.2E-3,  6.14E-2,)),
               VERI_MODE=_F(  STOP_ERREUR = 'OUI'))


MOC3F=MODE_ITER_SIMULT(  MATR_RIGI=RIGAS,   MATR_MASS=MASAS,
                    MATR_AMOR=AMORT,INFO=1,SOLVEUR=_F(METHODE='MULT_FRONT'),
                 METHODE='QZ',TYPE_QZ='QZ_EQUI',
                CALC_FREQ=_F( FREQ = (0.1,),OPTION='CENTRE',NMAX_FREQ = 2),
                VERI_MODE=_F(SEUIL=1.E-05) )


#       5.3. SOLVEUR : 'MUMPS' :
#       ---------------------

MOC0M=MODE_ITER_SIMULT(  MATR_RIGI=RIGAS,   MATR_MASS=MASAS,
                    MATR_AMOR=AMORT,
                 METHODE='SORENSEN',SOLVEUR=_F(METHODE='MUMPS'),
                  OPTION='SANS',
                CALC_FREQ=_F(  APPROCHE = 'REEL', FREQ = (0.1,),
                OPTION='CENTRE',
                NMAX_FREQ = 2) )


MOC1M=MODE_ITER_SIMULT(  MATR_RIGI=RIGAS,   MATR_MASS=MASAS,
                    MATR_AMOR=AMORT,
                 METHODE='TRI_DIAG',SOLVEUR=_F(METHODE='MUMPS'),
                  OPTION='SANS',
                CALC_FREQ=_F(  APPROCHE = 'REEL', FREQ = (0.1,),
                OPTION='CENTRE',
                NMAX_FREQ = 2) )


MOC2M=MODE_ITER_INV(   MATR_RIGI=RIGAS,   MATR_MASS=MASAS,
                   MATR_AMOR=AMORT,SOLVEUR=_F(METHODE='MUMPS'),
                 CALC_FREQ=_F( OPTION = 'PROCHE',
               FREQ = ( 6.2E-3,  6.14E-2,)),
               VERI_MODE=_F(  STOP_ERREUR = 'OUI'))


MOC3M=MODE_ITER_SIMULT(  MATR_RIGI=RIGAS,   MATR_MASS=MASAS,
                    MATR_AMOR=AMORT,INFO=1,SOLVEUR=_F(METHODE='MUMPS'),
                 METHODE='QZ',TYPE_QZ='QZ_EQUI',
                CALC_FREQ=_F( FREQ = (0.1,),OPTION='CENTRE',NMAX_FREQ = 2),
                VERI_MODE=_F(SEUIL=1.E-05) )

#-----------------------------------------------------------------------

ENGENDRE_TEST (  CO = (MOD0, MOD1, MOD2, MOD1_QZ, MOD2_QZ, MOD4, MOD5, MOD6) )
ENGENDRE_TEST (  CO = (MOF0, MOF1, MOF2, MOF1_QZ, MOF2_QZ, MOF4, MOF5, MOF6) )
ENGENDRE_TEST (  CO = (MOM0, MOM1, MOM2, MOM1_QZ, MOM2_QZ, MOM4, MOM5, MOM6) )

ENGENDRE_TEST (  CO = (MODN1, MODN2, MODN3, MODN4, MODN5, MODN6, MODN7, MODN8) )
ENGENDRE_TEST (  CO = (MODB1, MODB2, MODB3, MODB4, MODB5, MODB6, MODB7, MODB8) )
ENGENDRE_TEST (  CO = (MOC0L, MOC1L, MOC2L, MOC3L) )
ENGENDRE_TEST (  CO = (MOC0F, MOC1F, MOC2F, MOC3F) )
ENGENDRE_TEST (  CO = (MOC0M, MOC1M, MOC2M, MOC3M) )

TEST_RESU(RESU=(
# GEP LDLT
                              _F(
                      RESULTAT = MOD0,
                      NUME_ORDRE = 2,
                      PARA = 'FREQ',
                      VALE = 9.2529719799964E-04,
                      REFERENCE = 'NON_REGRESSION' ,
                      CRITERE = 'RELATIF'),
                              _F(
                      RESULTAT = MOD0,
                      NUME_ORDRE = 2,
                      NOM_CHAM = 'DEPL',
                      NOM_CMP = 'DX',
                      NOEUD = 'N21',
                      VALE = 6.5496238781752E-05,
                      REFERENCE = 'NON_REGRESSION' ),
                              _F(
                      RESULTAT = MOD1,
                      NUME_ORDRE = 2,
                      PARA = 'FREQ',
                      VALE = 9.2529719799964E-04,
                      REFERENCE = 'NON_REGRESSION' ,
                      CRITERE = 'RELATIF'),
                              _F(
                      RESULTAT = MOD1,
                      NUME_ORDRE = 2,
                      NOM_CHAM = 'DEPL',
                      NOM_CMP = 'DX',
                      NOEUD = 'N21',
                      VALE = 6.5496238781752E-05,
                      REFERENCE = 'NON_REGRESSION' ),
                              _F(
                      RESULTAT = MOD2,
                      NUME_ORDRE = 2,
                      PARA = 'FREQ',
                      VALE = 9.2529719801107E-04,
                      REFERENCE = 'NON_REGRESSION' ,
                      CRITERE = 'RELATIF'),
                              _F(
                      RESULTAT = MOD2,
                      NUME_ORDRE = 2,
                      NOM_CHAM = 'DEPL',
                      NOM_CMP = 'DY',
                      NOEUD = 'N21',
                      VALE = -1.2297631843005E-01,
                      REFERENCE = 'NON_REGRESSION' ),
                             _F(
                      RESULTAT = MOD1_QZ,
                      NUME_ORDRE = 2,
                      PARA = 'FREQ',
                      VALE = 9.2529719799964E-04,
                      REFERENCE = 'NON_REGRESSION' ,
                      CRITERE = 'RELATIF'),
                              _F(
                      RESULTAT = MOD1_QZ,
                      NUME_ORDRE = 2,
                      NOM_CHAM = 'DEPL',
                      NOM_CMP = 'DX',
                      NOEUD = 'N21',
                      VALE = 6.5496238781752E-05,
                      REFERENCE = 'NON_REGRESSION' ),
                              _F(
                      RESULTAT = MOD2_QZ,
                      NUME_ORDRE = 2,
                      PARA = 'FREQ',
                      VALE = 9.2529719799964E-04,
                      REFERENCE = 'NON_REGRESSION' ,
                      CRITERE = 'RELATIF'),
                              _F(
                      RESULTAT = MOD2_QZ,
                      NUME_ORDRE = 2,
                      NOM_CHAM = 'DEPL',
                      NOM_CMP = 'DY',
                      NOEUD = 'N21',
                      VALE = -1.2297631843005E-01,
                      REFERENCE = 'NON_REGRESSION' ),
                              _F(
                      RESULTAT = MOD4,
                      NUME_ORDRE = 2,
                      PARA = 'FREQ',
                      VALE = 6.1527821252546E-02,
                      REFERENCE = 'NON_REGRESSION' ,
                      CRITERE = 'RELATIF'),
                              _F(
                      RESULTAT = MOD4,
                      NUME_ORDRE = 2,
                      NOM_CHAM = 'DEPL',
                      NOM_CMP = 'DX',
                      NOEUD = 'N21',
                      VALE = 1.1496542317135E-02,
                      REFERENCE = 'NON_REGRESSION' ),
                              _F(
                      RESULTAT = MOD5,
                      NUME_ORDRE = 2,
                      PARA = 'FREQ',
                      VALE = 2.4022787854795E-02,
                      REFERENCE = 'NON_REGRESSION' ,
                      CRITERE = 'RELATIF'),
                              _F(
                      RESULTAT = MOD5,
                      NUME_ORDRE = 2,
                      NOM_CHAM = 'DEPL',
                      NOM_CMP = 'DY',
                      NOEUD = 'N21',
                      VALE = -5.7321699385919E-04,
                      REFERENCE = 'NON_REGRESSION' ),
                              _F(
                      RESULTAT = MOD6,
                      NUME_ORDRE = 2,
                      PARA = 'FREQ',
                      VALE = 2.4022776705885E-02,
                      REFERENCE = 'NON_REGRESSION' ,
                      CRITERE = 'RELATIF'),
                              _F(
                      RESULTAT = MOD6,
                      NUME_ORDRE = 2,
                      NOM_CHAM = 'DEPL',
                      NOM_CMP = 'DZ',
                      NOEUD = 'N21',
                      VALE = -2.9242875932084E-07,
                      REFERENCE = 'NON_REGRESSION' ),
# GEP MULT_FRONT
                              _F(
                      RESULTAT = MOF0,
                      NUME_ORDRE = 2,
                      PARA = 'FREQ',
                      VALE = 9.2529719800565E-04,
                      REFERENCE = 'NON_REGRESSION' ,
                      CRITERE = 'RELATIF'),
                              _F(
                      RESULTAT = MOF0,
                      NUME_ORDRE = 2,
                      NOM_CHAM = 'DEPL',
                      NOM_CMP = 'DX',
                      NOEUD = 'N21',
                      VALE = 6.5496238782335E-05,
                      REFERENCE = 'NON_REGRESSION' ),
                              _F(
                      RESULTAT = MOF1,
                      NUME_ORDRE = 2,
                      PARA = 'FREQ',
                      VALE = 9.2529719800565E-04,
                      REFERENCE = 'NON_REGRESSION' ,
                      CRITERE = 'RELATIF'),
                              _F(
                      RESULTAT = MOF1,
                      NUME_ORDRE = 2,
                      NOM_CHAM = 'DEPL',
                      NOM_CMP = 'DX',
                      NOEUD = 'N21',
                      VALE = 6.5496238782335E-05,
                      REFERENCE = 'NON_REGRESSION' ),
                              _F(
                      RESULTAT = MOF2,
                      NUME_ORDRE = 2,
                      PARA = 'FREQ',
                      VALE = 9.2529719800186E-04,
                      REFERENCE = 'NON_REGRESSION' ,
                      CRITERE = 'RELATIF'),
                              _F(
                      RESULTAT = MOF2,
                      NUME_ORDRE = 2,
                      NOM_CHAM = 'DEPL',
                      NOM_CMP = 'DY',
                      NOEUD = 'N21',
                      VALE = -1.2297631846678E-01,
                      REFERENCE = 'NON_REGRESSION' ),
                             _F(
                      RESULTAT = MOF1_QZ,
                      NUME_ORDRE = 2,
                      PARA = 'FREQ',
                      VALE = 9.2529719799964E-04,
                      REFERENCE = 'NON_REGRESSION' ,
                      CRITERE = 'RELATIF'),
                              _F(
                      RESULTAT = MOF1_QZ,
                      NUME_ORDRE = 2,
                      NOM_CHAM = 'DEPL',
                      NOM_CMP = 'DX',
                      NOEUD = 'N21',
                      VALE = 6.5496238781752E-05,
                      REFERENCE = 'NON_REGRESSION' ),
                              _F(
                      RESULTAT = MOF2_QZ,
                      NUME_ORDRE = 2,
                      PARA = 'FREQ',
                      VALE = 9.2529719801107E-04,
                      REFERENCE = 'NON_REGRESSION' ,
                      CRITERE = 'RELATIF'),
                              _F(
                      RESULTAT = MOF2_QZ,
                      NUME_ORDRE = 2,
                      NOM_CHAM = 'DEPL',
                      NOM_CMP = 'DY',
                      NOEUD = 'N21',
                      VALE = -1.2297631843005E-01,
                      REFERENCE = 'NON_REGRESSION' ),
                              _F(
                      RESULTAT = MOF4,
                      NUME_ORDRE = 2,
                      PARA = 'FREQ',
                      VALE = 6.1527821252518E-02,
                      REFERENCE = 'NON_REGRESSION' ,
                      CRITERE = 'RELATIF'),
                              _F(
                      RESULTAT = MOF4,
                      NUME_ORDRE = 2,
                      NOM_CHAM = 'DEPL',
                      NOM_CMP = 'DX',
                      NOEUD = 'N21',
                      VALE = 1.1496542317937E-02,
                      REFERENCE = 'NON_REGRESSION' ),
                              _F(
                      RESULTAT = MOF5,
                      NUME_ORDRE = 2,
                      PARA = 'FREQ',
                      VALE = 2.4022786475233E-02,
                      REFERENCE = 'NON_REGRESSION' ,
                      CRITERE = 'RELATIF'),
                              _F(
                      RESULTAT = MOF5,
                      NUME_ORDRE = 2,
                      NOM_CHAM = 'DEPL',
                      NOM_CMP = 'DY',
                      NOEUD = 'N21',
                      VALE = -5.7321699385801E-04,
                      REFERENCE = 'NON_REGRESSION' ),
                              _F(
                      RESULTAT = MOF6,
                      NUME_ORDRE = 2,
                      PARA = 'FREQ',
                      VALE = 2.4022776705884E-02,
                      REFERENCE = 'NON_REGRESSION' ,
                      CRITERE = 'RELATIF'),
                              _F(
                      RESULTAT = MOF6,
                      NUME_ORDRE = 2,
                      NOM_CHAM = 'DEPL',
                      NOM_CMP = 'DZ',
                      NOEUD = 'N21',
                      VALE = -2.9242875932011E-07,
                      REFERENCE = 'NON_REGRESSION' ),
# GEP MUMPS
                              _F(
                      RESULTAT = MOM0,
                      NUME_ORDRE = 2,
                      PARA = 'FREQ',
                      VALE = 9.2529719800565E-04,
                      REFERENCE = 'NON_REGRESSION' ,
                      CRITERE = 'RELATIF'),
                              _F(
                      RESULTAT = MOM0,
                      NUME_ORDRE = 2,
                      NOM_CHAM = 'DEPL',
                      NOM_CMP = 'DX',
                      NOEUD = 'N21',
                      VALE = 6.5496238782335E-05,
                      REFERENCE = 'NON_REGRESSION' ),
                              _F(
                      RESULTAT = MOM1,
                      NUME_ORDRE = 2,
                      PARA = 'FREQ',
                      VALE = 9.2529719800565E-04,
                      REFERENCE = 'NON_REGRESSION' ,
                      CRITERE = 'RELATIF'),
                              _F(
                      RESULTAT = MOM1,
                      NUME_ORDRE = 2,
                      NOM_CHAM = 'DEPL',
                      NOM_CMP = 'DX',
                      NOEUD = 'N21',
                      VALE = 6.5496238782335E-05,
                      REFERENCE = 'NON_REGRESSION' ),
                              _F(
                      RESULTAT = MOM2,
                      NUME_ORDRE = 2,
                      PARA = 'FREQ',
                      VALE = 9.2529719800186E-04,
                      REFERENCE = 'NON_REGRESSION' ,
                      CRITERE = 'RELATIF'),
                              _F(
                      RESULTAT = MOM2,
                      NUME_ORDRE = 2,
                      NOM_CHAM = 'DEPL',
                      NOM_CMP = 'DY',
                      NOEUD = 'N21',
                      VALE = -1.2297631846678E-01,
                      REFERENCE = 'NON_REGRESSION' ),
                             _F(
                      RESULTAT = MOM1_QZ,
                      NUME_ORDRE = 2,
                      PARA = 'FREQ',
                      VALE = 9.2529719799964E-04,
                      REFERENCE = 'NON_REGRESSION' ,
                      CRITERE = 'RELATIF'),
                              _F(
                      RESULTAT = MOM1_QZ,
                      NUME_ORDRE = 2,
                      NOM_CHAM = 'DEPL',
                      NOM_CMP = 'DX',
                      NOEUD = 'N21',
                      VALE = 6.5496238781752E-05,
                      REFERENCE = 'NON_REGRESSION' ),
                              _F(
                      RESULTAT = MOM2_QZ,
                      NUME_ORDRE = 2,
                      PARA = 'FREQ',
                      VALE = 9.2529719801107E-04,
                      REFERENCE = 'NON_REGRESSION' ,
                      CRITERE = 'RELATIF'),
                              _F(
                      RESULTAT = MOM2_QZ,
                      NUME_ORDRE = 2,
                      NOM_CHAM = 'DEPL',
                      NOM_CMP = 'DY',
                      NOEUD = 'N21',
                      VALE = -1.2297631843005E-01,
                      REFERENCE = 'NON_REGRESSION' ),
                              _F(
                      RESULTAT = MOM4,
                      NUME_ORDRE = 2,
                      PARA = 'FREQ',
                      VALE = 6.1527821252518E-02,
                      REFERENCE = 'NON_REGRESSION' ,
                      CRITERE = 'RELATIF'),
                              _F(
                      RESULTAT = MOM4,
                      NUME_ORDRE = 2,
                      NOM_CHAM = 'DEPL',
                      NOM_CMP = 'DX',
                      NOEUD = 'N21',
                      VALE = 1.1496542317937E-02,
                      REFERENCE = 'NON_REGRESSION' ),
                              _F(
                      RESULTAT = MOM5,
                      NUME_ORDRE = 2,
                      PARA = 'FREQ',
                      VALE = 2.4022786475233E-02,
                      REFERENCE = 'NON_REGRESSION' ,
                      CRITERE = 'RELATIF'),
                              _F(
                      RESULTAT = MOM5,
                      NUME_ORDRE = 2,
                      NOM_CHAM = 'DEPL',
                      NOM_CMP = 'DY',
                      NOEUD = 'N21',
                      VALE = -5.7321699385801E-04,
                      REFERENCE = 'NON_REGRESSION' ),
                              _F(
                      RESULTAT = MOM6,
                      NUME_ORDRE = 2,
                      PARA = 'FREQ',
                      VALE = 2.4022776705884E-02,
                      REFERENCE = 'NON_REGRESSION' ,
                      CRITERE = 'RELATIF'),
                              _F(
                      RESULTAT = MOM6,
                      NUME_ORDRE = 2,
                      NOM_CHAM = 'DEPL',
                      NOM_CMP = 'DZ',
                      NOEUD = 'N21',
                      VALE = -2.9242875932011E-07,
                      REFERENCE = 'NON_REGRESSION' ),
# NORM_MODE
                              _F(
                      RESULTAT = MODB1,
                      NUME_ORDRE = 2,
                      PARA = 'FREQ',
                      VALE = 9.2529719799964E-04,
                      REFERENCE = 'NON_REGRESSION' ,
                      CRITERE = 'RELATIF'),
                              _F(
                      RESULTAT = MODB1,
                      NUME_ORDRE = 2,
                      NOM_CHAM = 'DEPL',
                      NOM_CMP = 'DX',
                      NOEUD = 'N21',
                      VALE = 1.8125780447830E-07,
                      REFERENCE = 'NON_REGRESSION' ),
                              _F(
                      RESULTAT = MODB2,
                      NUME_ORDRE = 2,
                      PARA = 'FREQ',
                      VALE = 9.2529719799964E-04,
                      REFERENCE = 'NON_REGRESSION' ,
                      CRITERE = 'RELATIF'),
                              _F(
                      RESULTAT = MODB2,
                      NUME_ORDRE = 2,
                      NOM_CHAM = 'DEPL',
                      NOM_CMP = 'DY',
                      NOEUD = 'N21',
                      VALE = -5.8538383646419E-02,
                      REFERENCE = 'NON_REGRESSION' ),
                              _F(
                      RESULTAT = MODB3,
                      NUME_ORDRE = 2,
                      PARA = 'FREQ',
                      VALE = 9.2529719799964E-04,
                      REFERENCE = 'NON_REGRESSION' ,
                      CRITERE = 'RELATIF'),
                              _F(
                      RESULTAT = MODB3,
                      NUME_ORDRE = 2,
                      NOM_CHAM = 'DEPL',
                      NOM_CMP = 'DZ',
                      NOEUD = 'N21',
                      VALE = -1.0978418784923E-06,
                      REFERENCE = 'NON_REGRESSION' ),
                              _F(
                      RESULTAT = MODB4,
                      NUME_ORDRE = 2,
                      PARA = 'FREQ',
                      VALE = 9.2529719799964E-04,
                      REFERENCE = 'NON_REGRESSION' ,
                      CRITERE = 'RELATIF'),
                              _F(
                      RESULTAT = MODB4,
                      NUME_ORDRE = 2,
                      NOM_CHAM = 'DEPL',
                      NOM_CMP = 'DY',
                      NOEUD = 'N21',
                      VALE = -1.2297631847061E-01,
                      REFERENCE = 'NON_REGRESSION' ),
                              _F(
                      RESULTAT = MODB5,
                      NUME_ORDRE = 2,
                      PARA = 'FREQ',
                      VALE = 9.2529719799964E-04,
                      REFERENCE = 'NON_REGRESSION' ,
                      CRITERE = 'RELATIF'),
                              _F(
                      RESULTAT = MODB5,
                      NUME_ORDRE = 2,
                      NOM_CHAM = 'DEPL',
                      NOM_CMP = 'DX',
                      NOEUD = 'N21',
                      VALE = 3.2937824246451E-05,
                      REFERENCE = 'NON_REGRESSION' ),
                              _F(
                      RESULTAT = MODB6,
                      NUME_ORDRE = 2,
                      PARA = 'FREQ',
                      VALE = 9.2529719799964E-04,
                      REFERENCE = 'NON_REGRESSION' ,
                      CRITERE = 'RELATIF'),
                              _F(
                      RESULTAT = MODB6,
                      NUME_ORDRE = 2,
                      NOM_CHAM = 'DEPL',
                      NOM_CMP = 'DZ',
                      NOEUD = 'N21',
                      VALE = -1.7337287158908E-06,
                      REFERENCE = 'NON_REGRESSION' ),
                              _F(
                      RESULTAT = MODB7,
                      NUME_ORDRE = 2,
                      PARA = 'FREQ',
                      VALE = 9.2529719799964E-04,
                      REFERENCE = 'NON_REGRESSION' ,
                      CRITERE = 'RELATIF'),
                              _F(
                      RESULTAT = MODB7,
                      NUME_ORDRE = 2,
                      NOM_CHAM = 'DEPL',
                      NOM_CMP = 'DY',
                      NOEUD = 'N21',
                      VALE = 9.8354732768982E+00,
                      REFERENCE = 'NON_REGRESSION' ),
                              _F(
                      RESULTAT = MODB8,
                      NUME_ORDRE = 2,
                      PARA = 'FREQ',
                      VALE = 9.2529719799964E-04,
                      REFERENCE = 'NON_REGRESSION' ,
                      CRITERE = 'RELATIF'),
                              _F(
                      RESULTAT = MODB8,
                      NUME_ORDRE = 2,
                      NOM_CHAM = 'DEPL',
                      NOM_CMP = 'DX',
                      NOEUD = 'N21',
                      VALE = -1.5800983901277E-03,
                      REFERENCE = 'NON_REGRESSION' ),
# QEP LDLT
                              _F(
                      RESULTAT = MOC0L,
                      NUME_ORDRE = 2,
                      PARA = 'FREQ',
                      VALE = 1.0700678025432E-01,
                      REFERENCE = 'NON_REGRESSION' ,
                      CRITERE = 'RELATIF'),
                              _F(
                      RESULTAT = MOC0L,
                      NUME_ORDRE = 2,
                      NOM_CHAM = 'DEPL',
                      NOM_CMP = 'DY',
                      NOEUD = 'N21',
         VALE_C = 6.5585378196625E-04-2.6191922176450E-10j,
                      REFERENCE = 'NON_REGRESSION' ),
                              _F(
                      RESULTAT = MOC1L,
                      NUME_ORDRE = 2,
                      PARA = 'FREQ',
                      VALE = 1.0700678025432E-01,
                      REFERENCE = 'NON_REGRESSION' ,
                      CRITERE = 'RELATIF'),
                              _F(
                      RESULTAT = MOC1L,
                      NUME_ORDRE = 2,
                      NOM_CHAM = 'DEPL',
                      NOM_CMP = 'DY',
                      NOEUD = 'N21',
         VALE_C = 6.5585378196625E-04-2.6191922176450E-10j,
                      REFERENCE = 'NON_REGRESSION' ),
                              _F(
                      RESULTAT = MOC2L,
                      NUME_ORDRE = 2,
                      PARA = 'FREQ',
                      VALE = 6.1512521048556E-02 ,
                      REFERENCE = 'NON_REGRESSION' ,
                      CRITERE = 'RELATIF'),
                              _F(
                      RESULTAT = MOC2L,
                      NUME_ORDRE = 2,
                      NOM_CHAM = 'DEPL',
                      NOM_CMP = 'DZ',
                      NOEUD = 'N21',
         VALE_C = -2.6754771724033E-02+3.0802575767819E-10j,
                      REFERENCE = 'NON_REGRESSION' ),

                              _F(
                      RESULTAT = MOC3L,
                      NUME_ORDRE = 2,
                      PARA = 'FREQ',
                      VALE = 1.0700678025432E-01,
                      REFERENCE = 'NON_REGRESSION' ,
                      CRITERE = 'RELATIF'),
                              _F(
                      RESULTAT = MOC3L,
                      NUME_ORDRE = 2,
                      NOM_CHAM = 'DEPL',
                      NOM_CMP = 'DY',
                      NOEUD = 'N21',
         VALE_C = 6.5585378196625E-04-2.6191922176450E-10j,
                      REFERENCE = 'NON_REGRESSION' ),
# QEP MULT_FRONT
                              _F(
                      RESULTAT = MOC0F,
                      NUME_ORDRE = 2,
                      PARA = 'FREQ',
                      VALE = 1.0700678025432E-01,
                      REFERENCE = 'NON_REGRESSION' ,
                      CRITERE = 'RELATIF'),
                              _F(
                      RESULTAT = MOC0F,
                      NUME_ORDRE = 2,
                      NOM_CHAM = 'DEPL',
                      NOM_CMP = 'DY',
                      NOEUD = 'N21',
         VALE_C = 6.5585378196625E-04-2.6191922176450E-10j,
                      REFERENCE = 'NON_REGRESSION' ),
                              _F(
                      RESULTAT = MOC1F,
                      NUME_ORDRE = 2,
                      PARA = 'FREQ',
                      VALE = 1.0700678025432E-01,
                      REFERENCE = 'NON_REGRESSION' ,
                      CRITERE = 'RELATIF'),
                              _F(
                      RESULTAT = MOC1F,
                      NUME_ORDRE = 2,
                      NOM_CHAM = 'DEPL',
                      NOM_CMP = 'DY',
                      NOEUD = 'N21',
         VALE_C = 6.5585378196625E-04-2.6191922176450E-10j,
                      REFERENCE = 'NON_REGRESSION' ),
                              _F(
                      RESULTAT = MOC2F,
                      NUME_ORDRE = 2,
                      PARA = 'FREQ',
                      VALE = 6.1512521048556E-02 ,
                      REFERENCE = 'NON_REGRESSION' ,
                      CRITERE = 'RELATIF'),
                              _F(
                      RESULTAT = MOC2F,
                      NUME_ORDRE = 2,
                      NOM_CHAM = 'DEPL',
                      NOM_CMP = 'DZ',
                      NOEUD = 'N21',
         VALE_C = -2.6754771724033E-02+3.0802575767819E-10j,
                      REFERENCE = 'NON_REGRESSION' ),
                              _F(
                      RESULTAT = MOC3F,
                      NUME_ORDRE = 2,
                      PARA = 'FREQ',
                      VALE = 1.0700678025432E-01,
                      REFERENCE = 'NON_REGRESSION' ,
                      CRITERE = 'RELATIF'),
                              _F(
                      RESULTAT = MOC3F,
                      NUME_ORDRE = 2,
                      NOM_CHAM = 'DEPL',
                      NOM_CMP = 'DY',
                      NOEUD = 'N21',
         VALE_C = 6.5585378196625E-04-2.6191922176450E-10j,
                      REFERENCE = 'NON_REGRESSION' ),
# QEP MUMPS
                              _F(
                      RESULTAT = MOC0M,
                      NUME_ORDRE = 2,
                      PARA = 'FREQ',
                      VALE = 1.0700678025432E-01,
                      REFERENCE = 'NON_REGRESSION' ,
                      CRITERE = 'RELATIF'),
                              _F(
                      RESULTAT = MOC0M,
                      NUME_ORDRE = 2,
                      NOM_CHAM = 'DEPL',
                      NOM_CMP = 'DY',
                      NOEUD = 'N21',
         VALE_C = 6.5585378196625E-04-2.6191922176450E-10j,
                      REFERENCE = 'NON_REGRESSION' ),
                              _F(
                      RESULTAT = MOC1M,
                      NUME_ORDRE = 2,
                      PARA = 'FREQ',
                      VALE = 1.0700678025432E-01,
                      REFERENCE = 'NON_REGRESSION' ,
                      CRITERE = 'RELATIF'),
                              _F(
                      RESULTAT = MOC1M,
                      NUME_ORDRE = 2,
                      NOM_CHAM = 'DEPL',
                      NOM_CMP = 'DY',
                      NOEUD = 'N21',
         VALE_C = 6.5585378196625E-04-2.6191922176450E-10j,
                      REFERENCE = 'NON_REGRESSION' ),
                              _F(
                      RESULTAT = MOC2M,
                      NUME_ORDRE = 2,
                      PARA = 'FREQ',
                      VALE = 6.1512521048556E-02 ,
                      REFERENCE = 'NON_REGRESSION' ,
                      CRITERE = 'RELATIF'),
                              _F(
                      RESULTAT = MOC2M,
                      NUME_ORDRE = 2,
                      NOM_CHAM = 'DEPL',
                      NOM_CMP = 'DZ',
                      NOEUD = 'N21',
         VALE_C = -2.6754771724033E-02+3.0802575767819E-10j,
                      REFERENCE = 'NON_REGRESSION' ),
                              _F(
                      RESULTAT = MOC3M,
                      NUME_ORDRE = 2,
                      PARA = 'FREQ',
                      VALE = 1.0700678025432E-01,
                      REFERENCE = 'NON_REGRESSION' ,
                      CRITERE = 'RELATIF'),
                              _F(
                      RESULTAT = MOC3M,
                      NUME_ORDRE = 2,
                      NOM_CHAM = 'DEPL',
                      NOM_CMP = 'DY',
                      NOEUD = 'N21',
         VALE_C = 6.5585378196625E-04-2.6191922176450E-10j,
                      REFERENCE = 'NON_REGRESSION' ),
                       ),)

FIN()






