
# MODIF  DATE 05/03/2012   AUTEUR PELLET J.PELLET 
# TITRE BATIMENT SOUMIS A UNE EXCITATION SISMIQUE
# VERSION B de ce test : ajout de poutres afin de lier les DRZ
#                        entre poteaux et plaques
# sdlx301a.para = tps_job 60 mem_job 300Mo ncpus 1 liste_test V
#            CONFIGURATION MANAGEMENT OF EDF VERSION
# ======================================================================
# COPYRIGHT (C) 1991 - 2012  EDF R&D                  WWW.CODE-ASTER.ORG
# THIS PROGRAM IS FREE SOFTWARE; YOU CAN REDISTRIBUTE IT AND/OR MODIFY
# IT UNDER THE TERMS OF THE GNU GENERAL PUBLIC LICENSE AS PUBLISHED BY
# THE FREE SOFTWARE FOUNDATION; EITHER VERSION 2 OF THE LICENSE, OR
# (AT YOUR OPTION) ANY LATER VERSION.
#
# THIS PROGRAM IS DISTRIBUTED IN THE HOPE THAT IT WILL BE USEFUL, BUT
# WITHOUT ANY WARRANTY; WITHOUT EVEN THE IMPLIED WARRANTY OF
# MERCHANTABILITY OR FITNESS FOR A PARTICULAR PURPOSE. SEE THE GNU
# GENERAL PUBLIC LICENSE FOR MORE DETAILS.
#
# YOU SHOULD HAVE RECEIVED A COPY OF THE GNU GENERAL PUBLIC LICENSE
# ALONG WITH THIS PROGRAM; IF NOT, WRITE TO EDF R&D CODE_ASTER,
#    1 AVENUE DU GENERAL DE GAULLE, 92141 CLAMART CEDEX, FRANCE.
# ======================================================================
#

DEBUT(CODE=_F(NOM='SDLX301A',
              NIV_PUB_WEB='INTERNET',),);
#
S1 = 0.08;

I1 = 0.00106667;

I2 = 0.000266667;

I3 = 0.000745;

#

MA=LIRE_MAILLAGE(FORMAT='MED',);
#

MA=DEFI_GROUP(reuse =MA,
              MAILLAGE=MA,
              CREA_GROUP_NO=_F(GROUP_MA=('COLI','COLH','COLG','COLF','COLE','COLD','COLC','COLB','COLA','PLAN11','PLAN12','PLAN21',
                                          'PLAN22','PLAN31','PLAN32',),),);
#
# DEFINITION DU MATERIAU

MAT0=DEFI_MATERIAU(ELAS=_F(E=40000000000.0,
                           NU=0.15,
                           RHO=0.0,),);
#
MAT1=DEFI_MATERIAU(ELAS=_F(E=40000000000.0,
                           NU=0.15,
                           RHO=2500.0,),);
#

MAT2=DEFI_MATERIAU(ELAS=_F(E=40000000000.0,
                           NU=0.15,
                           RHO=4620.0,),);
#
# AFFECTATION DU MATERIAU

CHMAT=AFFE_MATERIAU(MAILLAGE=MA,
                    AFFE=(_F(GROUP_MA=('COLI','COLH','COLG','COLF','COLE','COLD','COLC','COLB','COLA','PLAN11','PLAN21','PLAN31',),
                             MATER=MAT1,),
                          _F(GROUP_MA=('PLAN12','PLAN22','PLAN32',),
                             MATER=MAT2,),
                          _F(MAILLE=('M3560','M4648','M5736','M3608','M4696','M5784','M3576','M4664','M5752',
                                     'M9001','M9002','M9003','M5768','M4680','M3592','M9007','M9008','M9009',
                                     'M9010','M9011','M9012','M9013','M9014','M9015','M9016','M9017','M9018',),
                             MATER=MAT0,),
                             ),);
#
# DEFINITION DU MODELE
# les mailles particulieres ajoutees sont des seg2 assurant la
# liaison des ddl DRZ entre plaque et poteaux

MO=AFFE_MODELE(MAILLAGE=MA,
               AFFE=(_F(GROUP_MA=('PLAN11','PLAN12','PLAN22','PLAN21','PLAN32','PLAN31',),
                        PHENOMENE='MECANIQUE',
                        MODELISATION='DKT',),
                     _F(GROUP_MA=('COLI','COLH','COLG','COLF','COLE','COLD','COLC','COLB','COLA',),
                        PHENOMENE='MECANIQUE',
                        MODELISATION='POU_D_T',),
                     _F(MAILLE=('M3560','M4648','M5736','M3608','M4696','M5784','M3576','M4664','M5752',
                                'M9001','M9002','M9003','M5768','M4680','M3592','M9007','M9008','M9009',
                                'M9010','M9011','M9012','M9013','M9014','M9015','M9016','M9017','M9018',),
                        PHENOMENE='MECANIQUE',
                        MODELISATION='POU_D_T',)
                        ,),);
#
# CARACTERISTIQUES DES POUTRES, ET AUTRES ELEMENTS
# les mailles particulieres ajoutees sont des seg2 assurant la
# liaison des ddl DRZ entre plaque et poteaux

CARAELEM=AFFE_CARA_ELEM(MODELE=MO,
                        ORIENTATION=_F(MAILLE=('M3560','M4648','M5736','M3608','M4696','M5784','M3576','M4664','M5752',
                                               'M9001','M9002','M9003','M5768','M4680','M3592','M9007','M9008','M9009',
                                               'M9010','M9011','M9012','M9013','M9014','M9015','M9016','M9017','M9018',),
                                  CARA='VECT_Y',
                                  VALE=(2.,1.,0.,),),
                        POUTRE=(_F(GROUP_MA=('COLI','COLH','COLG','COLF','COLE','COLD','COLC','COLB','COLA',),
                                  SECTION='GENERALE',
                                  CARA=('A','IY','IZ','AY','AZ','JX',),
                                  VALE=(S1,I1,I2,1.2,1.2,I3,),),
                                _F(MAILLE=('M3560','M4648','M5736','M3608','M4696','M5784','M3576','M4664','M5752',
                                           'M9001','M9002','M9003','M5768','M4680','M3592','M9007','M9008','M9009',
                                           'M9010','M9011','M9012','M9013','M9014','M9015','M9016','M9017','M9018',),
                                  SECTION='GENERALE',
                                  CARA=('A','IY','IZ','AY','AZ','JX',),
                                  VALE=(0.0000000001,0.0000000001,10.,1.2,1.2,0.0000000001,),),),
                        COQUE=_F(GROUP_MA=('PLAN11','PLAN12','PLAN22','PLAN21','PLAN32','PLAN31',),
                                 EPAIS=0.2,),);
#
# CALCUL DE LA BASE MODALE
#
#
# CONDITIONS AUX LIMITES

CH1A=AFFE_CHAR_MECA(MODELE=MO,
                    DDL_IMPO=_F(GROUP_NO=('PFI','PFH','PFG','PFF','PFE','PFD','PFC','PFB','PFA',),
                                DX=0.0,
                                DY=0.0,
                                DZ=0.0,
                                DRX=0.0,
                                DRY=0.0,
                                DRZ=0.0,),);
#
#
# CALCUL DES MATRICES ELEMENTAIRES DE RIGIDITES

RIGIELEM=CALC_MATR_ELEM(OPTION='RIGI_MECA',
                        MODELE=MO,
                        CHAM_MATER=CHMAT,
                        CARA_ELEM=CARAELEM,
                        CHARGE=CH1A,);
#
# CALCUL DES MATRICES ELEMENTAIRES DE MASSES

MASSELEM=CALC_MATR_ELEM(OPTION='MASS_MECA',
                        MODELE=MO,
                        CHAM_MATER=CHMAT,
                        CARA_ELEM=CARAELEM,
                        CHARGE=CH1A,);
#
# NUMEROTATIOM

NUMEDDL=NUME_DDL(MATR_RIGI=RIGIELEM,
                 RENUM='MD',);
#
# MATRICE DE RIGIDITE

RIGIDITE=ASSE_MATRICE(MATR_ELEM=RIGIELEM,
                      NUME_DDL=NUMEDDL,);
#
# MATRICE DE MASSE

MASSE=ASSE_MATRICE(MATR_ELEM=MASSELEM,
                   NUME_DDL=NUMEDDL,);
#
# CALCUL MODAL POUR LES RECOMBINAISOMS

MODE2=MODE_ITER_INV(MATR_A=RIGIDITE,
                    MATR_B=MASSE,
                    CALC_FREQ=_F(OPTION='PROCHE',
                                 PREC_SHIFT=0.02,
                                 NMAX_ITER_SHIFT=8,
                                 FREQ=(1.52,2.06,2.37,4.87,7.55,8.44,8.6,15.43,),
                                ),
                    VERI_MODE=_F(SEUIL=0.0001,),);
#
MODE1=MODE_ITER_SIMULT(MATR_A=RIGIDITE,
                       MATR_B=MASSE,
                       CALC_FREQ=_F(OPTION='PLUS_PETITE',
                                    NMAX_FREQ=8,),
                       VERI_MODE=_F(SEUIL=0.000001,),);
# NOUVEAU FV :
IMPR_RESU(MODELE=MO,
          FORMAT='GMSH',
          UNITE=39,
          RESU=_F(RESULTAT=MODE1,
                  NOM_CHAM='DEPL',
                  NUME_MODE=(1,2,3,4,5,6,7,8,),),);
#
MODE1=CALC_ELEM(reuse =MODE1,
                RESULTAT=MODE1,
                OPTION=('SIEF_ELGA','EFGE_ELNO',),);
#

MODE1=CALC_CHAMP(reuse =MODE1,
              RESULTAT=MODE1,
              FORCE='REAC_NODA',);


##################
# TEST_RESU ASTER/CASTEM 2000
#
# MODES PROPRES

TEST_RESU(RESU=_F(RESULTAT=MODE1,
                  NUME_ORDRE=1,
                  PARA='FREQ',
                  VALE=1.5121,
                  CRITERE='RELATIF',
                  PRECISION=0.001,
                  REFERENCE='SOURCE_EXTERNE',),);
#

TEST_RESU(RESU=_F(RESULTAT=MODE1,
                  NUME_ORDRE=2,
                  PARA='FREQ',
                  VALE=2.0499,
                  CRITERE='RELATIF',
                  PRECISION=0.002,
                  REFERENCE='SOURCE_EXTERNE',),);
#

TEST_RESU(RESU=_F(RESULTAT=MODE1,
                  NUME_ORDRE=3,
                  PARA='FREQ',
                  VALE=2.3437,
                  CRITERE='RELATIF',
                  PRECISION=0.010,
                  REFERENCE='SOURCE_EXTERNE',),);
#

TEST_RESU(RESU=_F(RESULTAT=MODE1,
                  NUME_ORDRE=4,
                  PARA='FREQ',
                  VALE=4.8593,
                  CRITERE='RELATIF',
                  PRECISION=0.003,
                  REFERENCE='SOURCE_EXTERNE',),);
#

TEST_RESU(RESU=_F(RESULTAT=MODE1,
                  NUME_ORDRE=5,
                  PARA='FREQ',
                  VALE=7.5214,
                  CRITERE='RELATIF',
                  PRECISION=0.005,
                  REFERENCE='SOURCE_EXTERNE',),);
#

TEST_RESU(RESU=_F(RESULTAT=MODE1,
                  NUME_ORDRE=6,
                  PARA='FREQ',
                  VALE=8.4261,
                  CRITERE='RELATIF',
                  PRECISION=0.005,
                  REFERENCE='SOURCE_EXTERNE',),);
#

TEST_RESU(RESU=_F(RESULTAT=MODE1,
                  NUME_ORDRE=7,
                  PARA='FREQ',
                  VALE=8.5438,
                  CRITERE='RELATIF',
                  PRECISION=0.001,
                  REFERENCE='SOURCE_EXTERNE',),);
#

TEST_RESU(RESU=_F(RESULTAT=MODE1,
                  NUME_ORDRE=8,
                  PARA='FREQ',
                  VALE=15.405,
                  CRITERE='RELATIF',
                  PRECISION=0.015,
                  REFERENCE='SOURCE_EXTERNE',),);
#
# MASSE EFFECTIVES DX

TEST_RESU(RESU=_F(RESULTAT=MODE1,
                  NUME_ORDRE=1,
                  PARA='MASS_EFFE_DX',
                  VALE=23.003,
                  CRITERE='RELATIF',
                  PRECISION=0.080,
                  REFERENCE='SOURCE_EXTERNE',),);
#

TEST_RESU(RESU=_F(RESULTAT=MODE1,
                  NUME_ORDRE=2,
                  PARA='MASS_EFFE_DX',
                  VALE=93650.0,
                  CRITERE='RELATIF',
                  PRECISION=0.021,
                  REFERENCE='SOURCE_EXTERNE',),);
#

TEST_RESU(RESU=_F(RESULTAT=MODE1,
                  NUME_ORDRE=3,
                  PARA='MASS_EFFE_DX',
                  VALE=12387.0,
                  CRITERE='RELATIF',
                  PRECISION=0.15,
                  REFERENCE='SOURCE_EXTERNE',),);
#

TEST_RESU(RESU=_F(RESULTAT=MODE1,
                  NUME_ORDRE=4,
                  PARA='MASS_EFFE_DX',
                  VALE=0.93723,
                  CRITERE='RELATIF',
                  PRECISION=0.02,
                  REFERENCE='SOURCE_EXTERNE',),);
#

TEST_RESU(RESU=_F(RESULTAT=MODE1,
                  NUME_ORDRE=5,
                  PARA='MASS_EFFE_DX',
                  VALE=15820.0,
                  CRITERE='RELATIF',
                  PRECISION=0.016,
                  REFERENCE='SOURCE_EXTERNE',),);
#

TEST_RESU(RESU=_F(RESULTAT=MODE1,
                  NUME_ORDRE=6,
                  PARA='MASS_EFFE_DX',
                  VALE=394.66,
                  CRITERE='RELATIF',
                  PRECISION=0.54,
                  REFERENCE='SOURCE_EXTERNE',),);
#

TEST_RESU(RESU=_F(RESULTAT=MODE1,
                  NUME_ORDRE=7,
                  PARA='MASS_EFFE_DX',
                  VALE=2146.1,
                  CRITERE='RELATIF',
                  PRECISION=0.04,
                  REFERENCE='SOURCE_EXTERNE',),);
#

TEST_RESU(RESU=_F(RESULTAT=MODE1,
                  NUME_ORDRE=8,
                  PARA='MASS_EFFE_DX',
                  VALE=4948.8,
                  CRITERE='RELATIF',
                  PRECISION=0.004,
                  REFERENCE='SOURCE_EXTERNE',),);
#
# MASSE EFFECTIVES DY

TEST_RESU(RESU=_F(RESULTAT=MODE1,
                  NUME_ORDRE=1,
                  PARA='MASS_EFFE_DY',
                  VALE=111366.0,
                  CRITERE='RELATIF',
                  PRECISION=0.002,
                  REFERENCE='SOURCE_EXTERNE',),);
#

TEST_RESU(RESU=_F(RESULTAT=MODE1,
                  NUME_ORDRE=2,
                  PARA='MASS_EFFE_DY',
                  VALE=181.72,
                  CRITERE='RELATIF',
                  PRECISION=0.158,
                  REFERENCE='SOURCE_EXTERNE',),);
#

TEST_RESU(RESU=_F(RESULTAT=MODE1,
                  NUME_ORDRE=3,
                  PARA='MASS_EFFE_DY',
                  VALE=518.19,
                  CRITERE='RELATIF',
                  PRECISION=0.045,
                  REFERENCE='SOURCE_EXTERNE',),);
#

TEST_RESU(RESU=_F(RESULTAT=MODE1,
                  NUME_ORDRE=4,
                  PARA='MASS_EFFE_DY',
                  VALE=14387.0,
                  CRITERE='RELATIF',
                  PRECISION=0.003,
                  REFERENCE='SOURCE_EXTERNE',),);
#

TEST_RESU(RESU=_F(RESULTAT=MODE1,
                  NUME_ORDRE=5,
                  PARA='MASS_EFFE_DY',
                  VALE=17.518,
                  CRITERE='RELATIF',
                  PRECISION=0.13,
                  REFERENCE='SOURCE_EXTERNE',),);
#

TEST_RESU(RESU=_F(RESULTAT=MODE1,
                  NUME_ORDRE=6,
                  PARA='MASS_EFFE_DY',
                  VALE=3622.2,
                  CRITERE='RELATIF',
                  PRECISION=0.045,
                  REFERENCE='SOURCE_EXTERNE',),);
#

TEST_RESU(RESU=_F(RESULTAT=MODE1,
                  NUME_ORDRE=7,
                  PARA='MASS_EFFE_DY',
                  VALE=279.42,
                  CRITERE='RELATIF',
                  PRECISION=0.67,
                  REFERENCE='SOURCE_EXTERNE',),);
#

TEST_RESU(RESU=_F(RESULTAT=MODE1,
                  NUME_ORDRE=8,
                  PARA='MASS_EFFE_DY',
                  VALE=1.1212,
                  CRITERE='RELATIF',
                  PRECISION=0.01,
                  REFERENCE='SOURCE_EXTERNE',),);
#
# MASSE EFFECTIVES DZ

TEST_RESU(RESU=_F(RESULTAT=MODE1,
                  NUME_ORDRE=1,
                  PARA='MASS_EFFE_DZ',
                  VALE=0.0669855,
                  CRITERE='RELATIF',
                  PRECISION=0.225,
                  REFERENCE='SOURCE_EXTERNE',),);
#

TEST_RESU(RESU=_F(RESULTAT=MODE1,
                  NUME_ORDRE=2,
                  PARA='MASS_EFFE_DZ',
                  VALE=0.0144005,
                  CRITERE='RELATIF',
                  PRECISION=0.31,
                  REFERENCE='SOURCE_EXTERNE',),);
#

TEST_RESU(RESU=_F(RESULTAT=MODE1,
                  NUME_ORDRE=3,
                  PARA='MASS_EFFE_DZ',
                  VALE=0.00945096,
                  CRITERE='RELATIF',
                  PRECISION=0.36,
                  REFERENCE='SOURCE_EXTERNE',),);
#

TEST_RESU(RESU=_F(RESULTAT=MODE1,
                  NUME_ORDRE=4,
                  PARA='MASS_EFFE_DZ',
                  VALE=0.20666,
                  CRITERE='RELATIF',
                  PRECISION=0.25,
                  REFERENCE='SOURCE_EXTERNE',),);
#

TEST_RESU(RESU=_F(RESULTAT=MODE1,
                  NUME_ORDRE=5,
                  PARA='MASS_EFFE_DZ',
                  VALE=0.0438606,
                  CRITERE='RELATIF',
                  PRECISION=0.32,
                  REFERENCE='SOURCE_EXTERNE',),);
#

TEST_RESU(RESU=_F(RESULTAT=MODE1,
                  NUME_ORDRE=6,
                  PARA='MASS_EFFE_DZ',
                  VALE=0.18096,
                  CRITERE='RELATIF',
                  PRECISION=0.30,
                  REFERENCE='SOURCE_EXTERNE',),);
#

TEST_RESU(RESU=_F(RESULTAT=MODE1,
                  NUME_ORDRE=7,
                  PARA='MASS_EFFE_DZ',
                  VALE=0.0122238,
                  CRITERE='RELATIF',
                  PRECISION=0.19,
                  REFERENCE='SOURCE_EXTERNE',),);
#

TEST_RESU(RESU=_F(RESULTAT=MODE1,
                  NUME_ORDRE=8,
                  PARA='MASS_EFFE_DZ',
                  VALE=154.2,
                  CRITERE='RELATIF',
                  PRECISION=0.63,
                  REFERENCE='SOURCE_EXTERNE',),);
#
# RECOMBINAISON MODALE QUADRATIQUE

TABMASS=POST_ELEM(MASS_INER=_F(TOUT='OUI',),
                  MODELE=MO,
                  CHAM_MATER=CHMAT,
                  CARA_ELEM=CARAELEM,);
#
#

LFREQ=DEFI_LIST_REEL(DEBUT=1.0,
                     INTERVALLE=_F(JUSQU_A=16.0,
                                   PAS=0.01,),);
#
# INTERSPECTRE D EXCITATION
XSHI = 0.05;

#
F1 = 1.51;

F2 = 2.05;

F3 = 2.34;

F4 = 4.86;

#
A1 = 0.15;

A2 = 0.25;

A3 = 0.25;

A4 = 0.3;

#

RAPF1 = FORMULE(NOM_PARA='FREQ',VALE=' F1 / FREQ ')
RAPF2 = FORMULE(NOM_PARA='FREQ',VALE=' F2 / FREQ ')
RAPF3 = FORMULE(NOM_PARA='FREQ',VALE=' F3 / FREQ ')
RAPF4 = FORMULE(NOM_PARA='FREQ',VALE=' F4 / FREQ ')
#
#

DENO11 = FORMULE(NOM_PARA='FREQ',VALE='''
                 ( (1. - RAPF1(FREQ)*RAPF1(FREQ))*
                       (1. - RAPF1(FREQ)*RAPF1(FREQ))
                     )''')
#

DENO12 = FORMULE(NOM_PARA='FREQ',VALE='''
                         ( (1. - RAPF2(FREQ)*RAPF2(FREQ))*
                                    (1. - RAPF2(FREQ)*RAPF2(FREQ))
                                  )''')
#

DENO13 = FORMULE(NOM_PARA='FREQ',VALE='''
                         ( (1. - RAPF3(FREQ)*RAPF3(FREQ))*
                                    (1. - RAPF3(FREQ)*RAPF3(FREQ))
                                  )''')
#

DENO14 = FORMULE(NOM_PARA='FREQ',VALE='''
                        ( (1. - RAPF4(FREQ)*RAPF4(FREQ))*
                                    (1. - RAPF4(FREQ)*RAPF4(FREQ))
                                  )''')
#

DENO21 = FORMULE(NOM_PARA='FREQ',VALE='''(2.*XSHI*RAPF1(FREQ))*
                                  (2.*XSHI*RAPF1(FREQ))''')
#

DENO22 = FORMULE(NOM_PARA='FREQ',VALE='''(2.*XSHI*RAPF2(FREQ))*
                                  (2.*XSHI*RAPF2(FREQ))''')
#

DENO23 = FORMULE(NOM_PARA='FREQ',VALE='''(2.*XSHI*RAPF3(FREQ))*
                                  (2.*XSHI*RAPF3(FREQ))''')
#

DENO24 = FORMULE(NOM_PARA='FREQ',VALE='''(2.*XSHI*RAPF4(FREQ))*
                                  (2.*XSHI*RAPF4(FREQ))''')
#

DENO3 = FORMULE(NOM_PARA='FREQ',VALE='''( 4.*pi*pi*(FREQ*FREQ)
                                  )''')
#

SOM1 = FORMULE(NOM_PARA='FREQ',VALE='''
                       ( DENO3(FREQ) *
                         ( (DENO11(FREQ) + DENO21(FREQ))**0.5
                         )
                     )''')
#

SOM2 = FORMULE(NOM_PARA='FREQ',VALE='''
                      ( DENO3(FREQ) *
                         ( (DENO12(FREQ) + DENO22(FREQ))**0.5
                         )
                     )''')
#

SOM3 = FORMULE(NOM_PARA='FREQ',VALE='''
                       ( DENO3(FREQ) *
                         ( (DENO13(FREQ) + DENO23(FREQ))**0.5
                         )
                     )''')
#

SOM4 = FORMULE(NOM_PARA='FREQ',VALE='''
                       ( DENO3(FREQ) *
                         ( (DENO14(FREQ) + DENO24(FREQ))**0.5
                         )
                     )''')
#

SD1 = FORMULE(NOM_PARA='FREQ',VALE='''( A1 / SOM1(FREQ)
                               )''')
#

SD2 = FORMULE(NOM_PARA='FREQ',VALE='''( A2 / SOM2(FREQ)
                               )''')
#

SD3 = FORMULE(NOM_PARA='FREQ',VALE='''( A3 / SOM3(FREQ)
                               )''')
#

SD4 = FORMULE(NOM_PARA='FREQ',VALE='''( A4 / SOM4(FREQ)
                               )''')
#

SDEPL = FORMULE(NOM_PARA='FREQ',VALE='''SD1(FREQ) +
                                  SD2(FREQ) +
                                  SD3(FREQ) +
                                  SD4(FREQ)''')
#

SDEPL1=CALC_FONC_INTERP(FONCTION=SDEPL,
                        NOM_RESU='DEPL',
                        NOM_PARA='FREQ',
                        LIST_PARA=LFREQ,
                        INTERPOL='LIN',
                        PROL_DROITE='LINEAIRE',
                        PROL_GAUCHE='LINEAIRE',
                        TITRE='SPECTRE DE DEPLACEMENT',);
#

SPECT_X=DEFI_NAPPE(NOM_PARA='AMOR',
                   PARA=0.05,
                   FONCTION=SDEPL1,
                   INTERPOL='LIN',);
#

MODE_STA=MODE_STATIQUE(MATR_RIGI=RIGIDITE,
                       MATR_MASS=MASSE,
                       PSEUDO_MODE=_F(AXE='X',),);
#

MODE_STA=CALC_ELEM(reuse =MODE_STA,
                   RESULTAT=MODE_STA,
                   OPTION=('SIEF_ELGA','EFGE_ELNO',),);
#

MODE_STA=CALC_CHAMP(reuse =MODE_STA,
                 RESULTAT=MODE_STA,
                 FORCE='FORC_NODA',);
#

MODE_STA=CALC_CHAMP(reuse =MODE_STA,
                 RESULTAT=MODE_STA,
                 FORCE='REAC_NODA',);
#

SISMC=COMB_SISM_MODAL(MODE_MECA=MODE1,
                      MODE_CORR=MODE_STA,
                      AMOR_REDUIT=(0.05,0.05,0.05,0.05,0.05,0.05,0.05,0.05,),
                      MASS_INER=TABMASS,
                      CORR_FREQ='OUI',
                      MONO_APPUI = 'OUI',
                      EXCIT=_F(AXE=(1.0,0.0,0.0,),
                               SPEC_OSCI=SPECT_X,
                               ECHELLE=1.0,
                               NATURE='DEPL',),
                      COMB_MODE=_F(TYPE='CQC',),
                      OPTION=('DEPL','REAC_NODA','EFGE_ELNO',),
                      IMPRESSION=_F(),);
#

SISMS=COMB_SISM_MODAL(MODE_MECA=MODE1,
                      MODE_CORR=MODE_STA,
                      AMOR_REDUIT=(0.05,0.05,0.05,0.05,0.05,0.05,0.05,0.05,),
                      MASS_INER=TABMASS,
                      CORR_FREQ='OUI',
                      MONO_APPUI = 'OUI',
                      EXCIT=_F(AXE=(1.0,0.0,0.0,),
                               SPEC_OSCI=SPECT_X,
                               ECHELLE=1.0,
                               NATURE='DEPL',),
                      COMB_MODE=_F(TYPE='SRSS',),
                      OPTION=('DEPL','REAC_NODA','EFGE_ELNO',),
                      IMPRESSION=_F(),);
#

SISMR=COMB_SISM_MODAL(MODE_MECA=MODE1,
                      MODE_CORR=MODE_STA,
                      AMOR_REDUIT=(0.05,0.05,0.05,0.05,0.05,0.05,0.05,0.05,),
                      MASS_INER=TABMASS,
                      CORR_FREQ='OUI',
                      MONO_APPUI = 'OUI',
                      EXCIT=_F(AXE=(1.0,0.0,0.0,),
                               SPEC_OSCI=SPECT_X,
                               ECHELLE=1.0,
                               NATURE='DEPL',),
                      COMB_MODE=_F(TYPE='DSC',
                                   DUREE=30.0,),
                      OPTION=('DEPL','REAC_NODA','EFGE_ELNO',),
                      IMPRESSION=_F(),);
#

DEPLMOC=CREA_CHAMP(TYPE_CHAM='NOEU_DEPL_R',
                   OPERATION='EXTR',
                   RESULTAT=SISMC,
                   NOM_CHAM='DEPL',
                   NOEUD_CMP=('DIR','X',),
                   TITRE='CHAMP DE DEPLACEMENT',);
#

REACMOC=CREA_CHAMP(TYPE_CHAM='NOEU_DEPL_R',
                   OPERATION='EXTR',
                   RESULTAT=SISMC,
                   NOM_CHAM='REAC_NODA',
                   NOEUD_CMP=('DIR','X',),
                   TITRE='REACTIONS NODALES',);
#

EFGEMOC=CREA_CHAMP(TYPE_CHAM='ELNO_SIEF_R',
                   OPERATION='EXTR',
                   RESULTAT=SISMC,
                   NOM_CHAM='EFGE_ELNO',
                   NOEUD_CMP=('DIR','X',),
                   TITRE='CONTRAINTES',);
#

DEPLMOS=CREA_CHAMP(TYPE_CHAM='NOEU_DEPL_R',
                   OPERATION='EXTR',
                   RESULTAT=SISMS,
                   NOM_CHAM='DEPL',
                   NOEUD_CMP=('DIR','X',),
                   TITRE='CHAMP DE DEPLACEMENT',);
#

REACMOS=CREA_CHAMP(TYPE_CHAM='NOEU_DEPL_R',
                   OPERATION='EXTR',
                   RESULTAT=SISMS,
                   NOM_CHAM='REAC_NODA',
                   NOEUD_CMP=('DIR','X',),
                   TITRE='REACTIONS NODALES',);
#

EFGEMOS=CREA_CHAMP(TYPE_CHAM='ELNO_SIEF_R',
                   OPERATION='EXTR',
                   RESULTAT=SISMS,
                   NOM_CHAM='EFGE_ELNO',
                   NOEUD_CMP=('DIR','X',),
                   TITRE='CONTRAINTES',);
#

DEPLMOR=CREA_CHAMP(TYPE_CHAM='NOEU_DEPL_R',
                   OPERATION='EXTR',
                   RESULTAT=SISMR,
                   NOM_CHAM='DEPL',
                   NOEUD_CMP=('DIR','X',),
                   TITRE='CHAMP DE DEPLACEMENT',);
#

REACMOR=CREA_CHAMP(TYPE_CHAM='NOEU_DEPL_R',
                   OPERATION='EXTR',
                   RESULTAT=SISMR,
                   NOM_CHAM='REAC_NODA',
                   NOEUD_CMP=('DIR','X',),
                   TITRE='REACTIONS NODALES',);
#

EFGEMOR=CREA_CHAMP(TYPE_CHAM='ELNO_SIEF_R',
                   OPERATION='EXTR',
                   RESULTAT=SISMR,
                   NOM_CHAM='EFGE_ELNO',
                   NOEUD_CMP=('DIR','X',),
                   TITRE='CONTRAINTES',);
#
#
# COLONNE B
#
# PM0  : POINT DE MESURE 1  ALITITUDE 0.0
# PM1  : POINT DE MESURE 1  ALITITUDE 1.5
# PM2  : POINT DE MESURE 2  ALITITUDE 3.0
# PM3  : POINT DE MESURE 3  ALITITUDE 4.5
# PM4  : POINT DE MESURE 4  ALITITUDE 6.0
# PM5  : POINT DE MESURE 5  ALITITUDE 7.5
# PM6  : POINT DE MESURE 6  ALITITUDE 9.0
#
# COLONNE E
# PM00 : POINT DE MESURE 1  ALITITUDE 0.0
#
# TEST_RESU POUR LA RECOMBINNAISON CQC
#
# DEPLACEMENT
#
# DIRECTION X

TEST_RESU(CHAM_NO=(_F(CHAM_GD=DEPLMOC,
                      GROUP_NO='PM1',
                      NOM_CMP='DX',
                      VALE=0.00171766,
                      PRECISION=0.065,
                      REFERENCE='SOURCE_EXTERNE',),
                   _F(CHAM_GD=DEPLMOC,
                      GROUP_NO='PM2',
                      NOM_CMP='DX',
                      VALE=0.005108,
                      PRECISION=0.06,
                      REFERENCE='SOURCE_EXTERNE',),
                   _F(CHAM_GD=DEPLMOC,
                      GROUP_NO='PM3',
                      NOM_CMP='DX',
                      VALE=0.00924331,
                      PRECISION=0.06,
                      REFERENCE='SOURCE_EXTERNE',),
                   _F(CHAM_GD=DEPLMOC,
                      GROUP_NO='PM4',
                      NOM_CMP='DX',
                      VALE=0.0133653,
                      PRECISION=0.055,
                      REFERENCE='SOURCE_EXTERNE',),
                   _F(CHAM_GD=DEPLMOC,
                      GROUP_NO='PM5',
                      NOM_CMP='DX',
                      VALE=0.0168931,
                      PRECISION=0.055,
                      REFERENCE='SOURCE_EXTERNE',),
                   _F(CHAM_GD=DEPLMOC,
                      GROUP_NO='PM6',
                      NOM_CMP='DX',
                      VALE=0.0198017,
                      PRECISION=0.055,
                      REFERENCE='SOURCE_EXTERNE',),
                   _F(CHAM_GD=DEPLMOC,
                      GROUP_NO='PM1',
                      NOM_CMP='DY',
                      VALE=0.000227618,
                      PRECISION=0.012,
                      REFERENCE='SOURCE_EXTERNE',),
                   _F(CHAM_GD=DEPLMOC,
                      GROUP_NO='PM2',
                      NOM_CMP='DY',
                      VALE=0.000567921,
                      PRECISION=0.006,
                      REFERENCE='SOURCE_EXTERNE',),
                   _F(CHAM_GD=DEPLMOC,
                      GROUP_NO='PM3',
                      NOM_CMP='DY',
                      VALE=0.000924652,
                      PRECISION=0.004,
                      REFERENCE='SOURCE_EXTERNE',),
                   _F(CHAM_GD=DEPLMOC,
                      GROUP_NO='PM4',
                      NOM_CMP='DY',
                      VALE=0.00125533,
                      PRECISION=0.004,
                      REFERENCE='SOURCE_EXTERNE',),
                   _F(CHAM_GD=DEPLMOC,
                      GROUP_NO='PM5',
                      NOM_CMP='DY',
                      VALE=0.00148231,
                      PRECISION=0.003,
                      REFERENCE='SOURCE_EXTERNE',),
                   _F(CHAM_GD=DEPLMOC,
                      GROUP_NO='PM6',
                      NOM_CMP='DY',
                      VALE=0.00165767,
                      PRECISION=0.003,
                      REFERENCE='SOURCE_EXTERNE',),
                   _F(CHAM_GD=DEPLMOC,
                      GROUP_NO='PM1',
                      NOM_CMP='DZ',
                      VALE=1.76335e-06,
                      PRECISION=0.069,
                      REFERENCE='SOURCE_EXTERNE',),
                   _F(CHAM_GD=DEPLMOC,
                      GROUP_NO='PM2',
                      NOM_CMP='DZ',
                      VALE=3.52665e-06,
                      PRECISION=0.069,
                      REFERENCE='SOURCE_EXTERNE',),
                   _F(CHAM_GD=DEPLMOC,
                      GROUP_NO='PM3',
                      NOM_CMP='DZ',
                      VALE=4.45293e-06,
                      PRECISION=0.069,),
                   _F(CHAM_GD=DEPLMOC,
                      GROUP_NO='PM4',
                      NOM_CMP='DZ',
                      VALE=5.37921e-06,
                      PRECISION=0.069,
                      REFERENCE='SOURCE_EXTERNE',),
                   _F(CHAM_GD=DEPLMOC,
                      GROUP_NO='PM5',
                      NOM_CMP='DZ',
                      VALE=5.64247e-06,
                      PRECISION=0.067,
                      REFERENCE='SOURCE_EXTERNE',),
                   _F(CHAM_GD=DEPLMOC,
                      GROUP_NO='PM6',
                      NOM_CMP='DZ',
                      VALE=5.90565e-06,
                      PRECISION=0.067,
                      REFERENCE='SOURCE_EXTERNE',),
                   _F(CHAM_GD=REACMOC,
                      GROUP_NO='PM0',
                      NOM_CMP='DX',
                      VALE=33253.0,
                      PRECISION=0.037,
                      REFERENCE='SOURCE_EXTERNE',),
                   _F(CHAM_GD=REACMOC,
                      GROUP_NO='PM0',
                      NOM_CMP='DY',
                      VALE=1629.3,
                      PRECISION=0.01,
                      REFERENCE='SOURCE_EXTERNE',),
                   _F(CHAM_GD=REACMOC,
                      GROUP_NO='PM0',
                      NOM_CMP='DZ',
                      VALE=3761.8,
                      PRECISION=0.069,
                      REFERENCE='SOURCE_EXTERNE',),
                   _F(CHAM_GD=REACMOC,
                      GROUP_NO='PM0',
                      NOM_CMP='DRX',
                      VALE=2975.3,
                      PRECISION=0.005,
                      REFERENCE='SOURCE_EXTERNE',),
                   _F(CHAM_GD=REACMOC,
                      GROUP_NO='PM0',
                      NOM_CMP='DRY',
                      VALE=81358.0,
                      PRECISION=0.045,
                      REFERENCE='SOURCE_EXTERNE',),
                   _F(CHAM_GD=REACMOC,
                      GROUP_NO='PM0',
                      NOM_CMP='DRZ',
                      VALE=0.17724,
                      PRECISION=1.0,
                      REFERENCE='SOURCE_EXTERNE',),
                   _F(CHAM_GD=REACMOC,
                      GROUP_NO='PM00',
                      NOM_CMP='DX',
                      VALE=53419.0,
                      PRECISION=0.09,
                      REFERENCE='SOURCE_EXTERNE',),
                   _F(CHAM_GD=REACMOC,
                      GROUP_NO='PM00',
                      NOM_CMP='DY',
                      VALE=2071.1,
                      PRECISION=0.005,
                      REFERENCE='SOURCE_EXTERNE',),
                   _F(CHAM_GD=REACMOC,
                      GROUP_NO='PM00',
                      NOM_CMP='DZ',
                      VALE=406.76,
                      PRECISION=0.40,
                      REFERENCE='SOURCE_EXTERNE',),
                   _F(CHAM_GD=REACMOC,
                      GROUP_NO='PM00',
                      NOM_CMP='DRX',
                      VALE=3417.3,
                      PRECISION=0.005,),
                   _F(CHAM_GD=REACMOC,
                      GROUP_NO='PM00',
                      NOM_CMP='DRY',
                      VALE=111609.0,
                      PRECISION=0.08,
                      REFERENCE='SOURCE_EXTERNE',),
                   _F(CHAM_GD=REACMOC,
                      GROUP_NO='PM00',
                      NOM_CMP='DRZ',
                      VALE=0.17705,
                      PRECISION=1.0,
                      REFERENCE='SOURCE_EXTERNE',),),
          CHAM_ELEM=(_F(CHAM_GD=EFGEMOC,
                        MAILLE='M3158',
                        GROUP_NO='PM1',
                        NOM_CMP='N',
                        VALE=3761.8,
                        PRECISION=0.068,
                        REFERENCE='SOURCE_EXTERNE',),
                     _F(CHAM_GD=EFGEMOC,
                        MAILLE='M3158',
                        GROUP_NO='PM1',
                        NOM_CMP='VY',
                        VALE=1627.2,
                        PRECISION=0.01,
                        REFERENCE='SOURCE_EXTERNE',),
                     _F(CHAM_GD=EFGEMOC,
                        MAILLE='M3158',
                        GROUP_NO='PM1',
                        NOM_CMP='VZ',
                        VALE=33234.0,
                        PRECISION=0.038,),
                     _F(CHAM_GD=EFGEMOC,
                        MAILLE='M3158',
                        GROUP_NO='PM1',
                        NOM_CMP='MT',
                        VALE=0.17567,
                        PRECISION=1.0,
                        REFERENCE='SOURCE_EXTERNE',),
                     _F(CHAM_GD=EFGEMOC,
                        MAILLE='M3158',
                        GROUP_NO='PM1',
                        NOM_CMP='MFY',
                        VALE=31511.0,
                        PRECISION=0.056,
                        REFERENCE='SOURCE_EXTERNE',),
                     _F(CHAM_GD=EFGEMOC,
                        MAILLE='M3158',
                        GROUP_NO='PM1',
                        NOM_CMP='MFZ',
                        VALE=533.34,
                        PRECISION=0.023,
                        REFERENCE='SOURCE_EXTERNE',),
                     _F(CHAM_GD=EFGEMOC,
                        MAILLE='M3160',
                        GROUP_NO='PM2',
                        NOM_CMP='N',
                        VALE=3761.7,
                        PRECISION=0.069,
                        REFERENCE='SOURCE_EXTERNE',),
                     _F(CHAM_GD=EFGEMOC,
                        MAILLE='M3160',
                        GROUP_NO='PM2',
                        NOM_CMP='VY',
                        VALE=1610.1,
                        PRECISION=0.006,
                        REFERENCE='SOURCE_EXTERNE',),
                     _F(CHAM_GD=EFGEMOC,
                        MAILLE='M3160',
                        GROUP_NO='PM2',
                        NOM_CMP='VZ',
                        VALE=33083.0,
                        PRECISION=0.035,
                        REFERENCE='SOURCE_EXTERNE',),
                     _F(CHAM_GD=EFGEMOC,
                        MAILLE='M3160',
                        GROUP_NO='PM2',
                        NOM_CMP='MT',
                        VALE=0.16459,
                        PRECISION=1.0,
                        REFERENCE='SOURCE_EXTERNE',),
                     _F(CHAM_GD=EFGEMOC,
                        MAILLE='M3160',
                        GROUP_NO='PM2',
                        NOM_CMP='MFY',
                        VALE=18264.0,
                        PRECISION=0.0025,
                        REFERENCE='SOURCE_EXTERNE',),
                     _F(CHAM_GD=EFGEMOC,
                        MAILLE='M3160',
                        GROUP_NO='PM2',
                        NOM_CMP='MFZ',
                        VALE=1891.1,
                        PRECISION=0.02,
                        REFERENCE='SOURCE_EXTERNE',),
                     _F(CHAM_GD=EFGEMOC,
                        MAILLE='M3162',
                        GROUP_NO='PM3',
                        NOM_CMP='N',
                        VALE=1976.7,
                        PRECISION=0.066,
                        REFERENCE='SOURCE_EXTERNE',),
                     _F(CHAM_GD=EFGEMOC,
                        MAILLE='M3162',
                        GROUP_NO='PM3',
                        NOM_CMP='VY',
                        VALE=1368.1,
                        PRECISION=0.01,
                        REFERENCE='SOURCE_EXTERNE',),
                     _F(CHAM_GD=EFGEMOC,
                        MAILLE='M3162',
                        GROUP_NO='PM3',
                        NOM_CMP='VZ',
                        VALE=30005.0,
                        PRECISION=0.022,
                        REFERENCE='SOURCE_EXTERNE',),
                     _F(CHAM_GD=EFGEMOC,
                        MAILLE='M3162',
                        GROUP_NO='PM3',
                        NOM_CMP='MT',
                        VALE=0.14027,
                        PRECISION=1.0,
                        REFERENCE='SOURCE_EXTERNE',),
                     _F(CHAM_GD=EFGEMOC,
                        MAILLE='M3162',
                        GROUP_NO='PM3',
                        NOM_CMP='MFY',
                        VALE=1390.5,
                        PRECISION=0.033,
                        REFERENCE='SOURCE_EXTERNE',),
                     _F(CHAM_GD=EFGEMOC,
                        MAILLE='M3162',
                        GROUP_NO='PM3',
                        NOM_CMP='MFZ',
                        VALE=134.27,
                        PRECISION=0.037,
                        REFERENCE='SOURCE_EXTERNE',),
                     _F(CHAM_GD=EFGEMOC,
                        MAILLE='M3164',
                        GROUP_NO='PM4',
                        NOM_CMP='N',
                        VALE=1976.4,
                        PRECISION=0.066,
                        REFERENCE='SOURCE_EXTERNE',),
                     _F(CHAM_GD=EFGEMOC,
                        MAILLE='M3164',
                        GROUP_NO='PM4',
                        NOM_CMP='VY',
                        VALE=1315.4,
                        PRECISION=0.009,
                        REFERENCE='SOURCE_EXTERNE',),
                     _F(CHAM_GD=EFGEMOC,
                        MAILLE='M3164',
                        GROUP_NO='PM4',
                        NOM_CMP='VZ',
                        VALE=29416.0,
                        PRECISION=0.018,
                        REFERENCE='SOURCE_EXTERNE',),
                     _F(CHAM_GD=EFGEMOC,
                        MAILLE='M3164',
                        GROUP_NO='PM4',
                        NOM_CMP='MT',
                        VALE=0.1049,
                        PRECISION=1.0,
                        REFERENCE='SOURCE_EXTERNE',),
                     _F(CHAM_GD=EFGEMOC,
                        MAILLE='M3164',
                        GROUP_NO='PM4',
                        NOM_CMP='MFY',
                        VALE=44717.0,
                        PRECISION=0.025,),
                     _F(CHAM_GD=EFGEMOC,
                        MAILLE='M3164',
                        GROUP_NO='PM4',
                        NOM_CMP='MFZ',
                        VALE=2126.1,
                        PRECISION=0.016,),
                     _F(CHAM_GD=EFGEMOC,
                        MAILLE='M3166',
                        GROUP_NO='PM5',
                        NOM_CMP='N',
                        VALE=562.9,
                        PRECISION=0.06,
                        REFERENCE='SOURCE_EXTERNE',),
                     _F(CHAM_GD=EFGEMOC,
                        MAILLE='M3166',
                        GROUP_NO='PM5',
                        NOM_CMP='VY',
                        VALE=731.25,
                        PRECISION=0.005,
                        REFERENCE='SOURCE_EXTERNE',),
                     _F(CHAM_GD=EFGEMOC,
                        MAILLE='M3166',
                        GROUP_NO='PM5',
                        NOM_CMP='VZ',
                        VALE=19340.0,
                        PRECISION=0.002,
                        REFERENCE='SOURCE_EXTERNE',),
                     _F(CHAM_GD=EFGEMOC,
                        MAILLE='M3166',
                        GROUP_NO='PM5',
                        NOM_CMP='MT',
                        VALE=0.0613748,
                        PRECISION=1.0,
                        REFERENCE='SOURCE_EXTERNE',),
                     _F(CHAM_GD=EFGEMOC,
                        MAILLE='M3166',
                        GROUP_NO='PM5',
                        NOM_CMP='MFY',
                        VALE=11847.0,
                        PRECISION=0.043,
                        REFERENCE='SOURCE_EXTERNE',),
                     _F(CHAM_GD=EFGEMOC,
                        MAILLE='M3166',
                        GROUP_NO='PM5',
                        NOM_CMP='MFZ',
                        VALE=257.82,
                        PRECISION=0.027,
                        REFERENCE='SOURCE_EXTERNE',),
                     _F(CHAM_GD=EFGEMOC,
                        MAILLE='M3157',
                        GROUP_NO='PM0',
                        NOM_CMP='N',
                        VALE=3761.8,
                        PRECISION=0.069,
                        REFERENCE='SOURCE_EXTERNE',),
                     _F(CHAM_GD=EFGEMOC,
                        MAILLE='M3157',
                        GROUP_NO='PM0',
                        NOM_CMP='VY',
                        VALE=1629.1,
                        PRECISION=0.01,
                        REFERENCE='SOURCE_EXTERNE',),
                     _F(CHAM_GD=EFGEMOC,
                        MAILLE='M3157',
                        GROUP_NO='PM0',
                        NOM_CMP='VZ',
                        VALE=33251.0,
                        PRECISION=0.037,
                        REFERENCE='SOURCE_EXTERNE',),
                     _F(CHAM_GD=EFGEMOC,
                        MAILLE='M3157',
                        GROUP_NO='PM0',
                        NOM_CMP='MT',
                        VALE=0.17705,
                        PRECISION=1.0,
                        REFERENCE='SOURCE_EXTERNE',),
                     _F(CHAM_GD=EFGEMOC,
                        MAILLE='M3157',
                        GROUP_NO='PM0',
                        NOM_CMP='MFY',
                        VALE=81358.0,
                        PRECISION=0.044,
                        REFERENCE='SOURCE_EXTERNE',),
                     _F(CHAM_GD=EFGEMOC,
                        MAILLE='M3157',
                        GROUP_NO='PM0',
                        NOM_CMP='MFZ',
                        VALE=2975.3,
                        PRECISION=0.005,
                        REFERENCE='SOURCE_EXTERNE',),
                     _F(CHAM_GD=EFGEMOC,
                        MAILLE='M3159',
                        GROUP_NO='PM1',
                        NOM_CMP='N',
                        VALE=3761.8,
                        PRECISION=0.069,
                        REFERENCE='SOURCE_EXTERNE',),
                     _F(CHAM_GD=EFGEMOC,
                        MAILLE='M3159',
                        GROUP_NO='PM1',
                        NOM_CMP='VY',
                        VALE=1621.1,
                        PRECISION=0.012,
                        REFERENCE='SOURCE_EXTERNE',),
                     _F(CHAM_GD=EFGEMOC,
                        MAILLE='M3159',
                        GROUP_NO='PM1',
                        NOM_CMP='VZ',
                        VALE=33183.0,
                        PRECISION=0.038,
                        REFERENCE='SOURCE_EXTERNE',),
                     _F(CHAM_GD=EFGEMOC,
                        MAILLE='M3159',
                        GROUP_NO='PM1',
                        NOM_CMP='MT',
                        VALE=0.17176,
                        PRECISION=1.0,
                        REFERENCE='SOURCE_EXTERNE',),
                     _F(CHAM_GD=EFGEMOC,
                        MAILLE='M3159',
                        GROUP_NO='PM1',
                        NOM_CMP='MFY',
                        VALE=31509.0,
                        PRECISION=0.056,
                        REFERENCE='SOURCE_EXTERNE',),
                     _F(CHAM_GD=EFGEMOC,
                        MAILLE='M3159',
                        GROUP_NO='PM1',
                        NOM_CMP='MFZ',
                        VALE=533.1,
                        PRECISION=0.022,
                        REFERENCE='SOURCE_EXTERNE',),
                     _F(CHAM_GD=EFGEMOC,
                        MAILLE='M3161',
                        GROUP_NO='PM2',
                        NOM_CMP='N',
                        VALE=1976.8,
                        PRECISION=0.07,
                        REFERENCE='SOURCE_EXTERNE',),
                     _F(CHAM_GD=EFGEMOC,
                        MAILLE='M3161',
                        GROUP_NO='PM2',
                        NOM_CMP='VY',
                        VALE=1386.8,
                        PRECISION=0.025,
                        REFERENCE='SOURCE_EXTERNE',),
                     _F(CHAM_GD=EFGEMOC,
                        MAILLE='M3161',
                        GROUP_NO='PM2',
                        NOM_CMP='VZ',
                        VALE=30206.0,
                        PRECISION=0.029,
                        REFERENCE='SOURCE_EXTERNE',),
                     _F(CHAM_GD=EFGEMOC,
                        MAILLE='M3161',
                        GROUP_NO='PM2',
                        NOM_CMP='MT',
                        VALE=0.15403,
                        PRECISION=1.0,
                        REFERENCE='SOURCE_EXTERNE',),
                     _F(CHAM_GD=EFGEMOC,
                        MAILLE='M3161',
                        GROUP_NO='PM2',
                        NOM_CMP='MFY',
                        VALE=44854.0,
                        PRECISION=0.025,
                        REFERENCE='SOURCE_EXTERNE',),
                     _F(CHAM_GD=EFGEMOC,
                        MAILLE='M3161',
                        GROUP_NO='PM2',
                        NOM_CMP='MFZ',
                        VALE=1935.7,
                        PRECISION=0.022,
                        REFERENCE='SOURCE_EXTERNE',),
                     _F(CHAM_GD=EFGEMOC,
                        MAILLE='M3163',
                        GROUP_NO='PM3',
                        NOM_CMP='N',
                        VALE=1976.6,
                        PRECISION=0.065,
                        REFERENCE='SOURCE_EXTERNE',),
                     _F(CHAM_GD=EFGEMOC,
                        MAILLE='M3163',
                        GROUP_NO='PM3',
                        NOM_CMP='VY',
                        VALE=1344.3,
                        PRECISION=0.03,
                        REFERENCE='SOURCE_EXTERNE',),
                     _F(CHAM_GD=EFGEMOC,
                        MAILLE='M3163',
                        GROUP_NO='PM3',
                        NOM_CMP='VZ',
                        VALE=29742.0,
                        PRECISION=0.03,
                        REFERENCE='SOURCE_EXTERNE',),
                     _F(CHAM_GD=EFGEMOC,
                        MAILLE='M3163',
                        GROUP_NO='PM3',
                        NOM_CMP='MT',
                        VALE=0.12375,
                        PRECISION=1.0,
                        REFERENCE='SOURCE_EXTERNE',),
                     _F(CHAM_GD=EFGEMOC,
                        MAILLE='M3163',
                        GROUP_NO='PM3',
                        NOM_CMP='MFY',
                        VALE=1391.2,
                        PRECISION=0.032,
                        REFERENCE='SOURCE_EXTERNE',),
                     _F(CHAM_GD=EFGEMOC,
                        MAILLE='M3163',
                        GROUP_NO='PM3',
                        NOM_CMP='MFZ',
                        VALE=134.53,
                        PRECISION=0.039,
                        REFERENCE='SOURCE_EXTERNE',),
                     _F(CHAM_GD=EFGEMOC,
                        MAILLE='M3165',
                        GROUP_NO='PM4',
                        NOM_CMP='N',
                        VALE=563.03,
                        PRECISION=0.06,
                        REFERENCE='SOURCE_EXTERNE',),
                     _F(CHAM_GD=EFGEMOC,
                        MAILLE='M3165',
                        GROUP_NO='PM4',
                        NOM_CMP='VY',
                        VALE=766.03,
                        PRECISION=0.043,
                        REFERENCE='SOURCE_EXTERNE',),
                     _F(CHAM_GD=EFGEMOC,
                        MAILLE='M3165',
                        GROUP_NO='PM4',
                        NOM_CMP='VZ',
                        VALE=19765.0,
                        PRECISION=0.025,
                        REFERENCE='SOURCE_EXTERNE',),
                     _F(CHAM_GD=EFGEMOC,
                        MAILLE='M3165',
                        GROUP_NO='PM4',
                        NOM_CMP='MT',
                        VALE=0.0840692,
                        PRECISION=1.0,
                        REFERENCE='SOURCE_EXTERNE',),
                     _F(CHAM_GD=EFGEMOC,
                        MAILLE='M3165',
                        GROUP_NO='PM4',
                        NOM_CMP='MFY',
                        VALE=17622.0,
                        PRECISION=0.008,
                        REFERENCE='SOURCE_EXTERNE',),
                     _F(CHAM_GD=EFGEMOC,
                        MAILLE='M3165',
                        GROUP_NO='PM4',
                        NOM_CMP='MFZ',
                        VALE=867.53,
                        PRECISION=0.035,
                        REFERENCE='SOURCE_EXTERNE',),
                     _F(CHAM_GD=EFGEMOC,
                        MAILLE='M3167',
                        GROUP_NO='PM5',
                        NOM_CMP='N',
                        VALE=562.77,
                        PRECISION=0.06,
                        REFERENCE='SOURCE_EXTERNE',),
                     _F(CHAM_GD=EFGEMOC,
                        MAILLE='M3167',
                        GROUP_NO='PM5',
                        NOM_CMP='VY',
                        VALE=693.36,
                        PRECISION=0.051,
                        REFERENCE='SOURCE_EXTERNE',),
                     _F(CHAM_GD=EFGEMOC,
                        MAILLE='M3167',
                        GROUP_NO='PM5',
                        NOM_CMP='VZ',
                        VALE=18863.0,
                        PRECISION=0.026,
                        REFERENCE='SOURCE_EXTERNE',),
                     _F(CHAM_GD=EFGEMOC,
                        MAILLE='M3167',
                        GROUP_NO='PM5',
                        NOM_CMP='MT',
                        VALE=0.0373639,
                        PRECISION=1.0,
                        REFERENCE='SOURCE_EXTERNE',),
                     _F(CHAM_GD=EFGEMOC,
                        MAILLE='M3167',
                        GROUP_NO='PM5',
                        NOM_CMP='MFY',
                        VALE=11849.0,
                        PRECISION=0.042,
                        REFERENCE='SOURCE_EXTERNE',),
                     _F(CHAM_GD=EFGEMOC,
                        MAILLE='M3167',
                        GROUP_NO='PM5',
                        NOM_CMP='MFZ',
                        VALE=257.97,
                        PRECISION=0.028,
                        REFERENCE='SOURCE_EXTERNE',),),);
#
# TEST_RESU POUR LA RECOMBINNAISON SRSS
#
#
# DEPLACEMENT
#
# DIRECTION X

TEST_RESU(CHAM_NO=(_F(CHAM_GD=DEPLMOS,
                      GROUP_NO='PM1',
                      NOM_CMP='DX',
                      VALE=0.00147494,
                      PRECISION=0.085,
                      REFERENCE='SOURCE_EXTERNE',),
                   _F(CHAM_GD=DEPLMOS,
                      GROUP_NO='PM2',
                      NOM_CMP='DX',
                      VALE=0.00438661,
                      PRECISION=0.075,
                      REFERENCE='SOURCE_EXTERNE',),
                   _F(CHAM_GD=DEPLMOS,
                      GROUP_NO='PM3',
                      NOM_CMP='DX',
                      VALE=0.0079393,
                      PRECISION=0.072,
                      REFERENCE='SOURCE_EXTERNE',),
                   _F(CHAM_GD=DEPLMOS,
                      GROUP_NO='PM4',
                      NOM_CMP='DX',
                      VALE=0.0114815,
                      PRECISION=0.072,
                      REFERENCE='SOURCE_EXTERNE',),
                   _F(CHAM_GD=DEPLMOS,
                      GROUP_NO='PM5',
                      NOM_CMP='DX',
                      VALE=0.0145142,
                      PRECISION=0.072,
                      REFERENCE='SOURCE_EXTERNE',),
                   _F(CHAM_GD=DEPLMOS,
                      GROUP_NO='PM6',
                      NOM_CMP='DX',
                      VALE=0.0170152,
                      PRECISION=0.072,
                      REFERENCE='SOURCE_EXTERNE',),
                   _F(CHAM_GD=DEPLMOS,
                      GROUP_NO='PM1',
                      NOM_CMP='DY',
                      VALE=0.000279598,
                      PRECISION=0.015,
                      REFERENCE='SOURCE_EXTERNE',),
                   _F(CHAM_GD=DEPLMOS,
                      GROUP_NO='PM2',
                      NOM_CMP='DY',
                      VALE=0.000696912,
                      PRECISION=0.02,
                      REFERENCE='SOURCE_EXTERNE',),
                   _F(CHAM_GD=DEPLMOS,
                      GROUP_NO='PM3',
                      NOM_CMP='DY',
                      VALE=0.00113313,
                      PRECISION=0.022,
                      REFERENCE='SOURCE_EXTERNE',),
                   _F(CHAM_GD=DEPLMOS,
                      GROUP_NO='PM4',
                      NOM_CMP='DY',
                      VALE=0.00153808,
                      PRECISION=0.02,
                      REFERENCE='SOURCE_EXTERNE',),
                   _F(CHAM_GD=DEPLMOS,
                      GROUP_NO='PM5',
                      NOM_CMP='DY',
                      VALE=0.00181479,
                      PRECISION=0.02,
                      REFERENCE='SOURCE_EXTERNE',),
                   _F(CHAM_GD=DEPLMOS,
                      GROUP_NO='PM6',
                      NOM_CMP='DY',
                      VALE=0.0020285,
                      PRECISION=0.02,
                      REFERENCE='SOURCE_EXTERNE',),
                   _F(CHAM_GD=DEPLMOS,
                      GROUP_NO='PM1',
                      NOM_CMP='DZ',
                      VALE=2.15646e-06,
                      PRECISION=0.048,
                      REFERENCE='SOURCE_EXTERNE',),
                   _F(CHAM_GD=DEPLMOS,
                      GROUP_NO='PM2',
                      NOM_CMP='DZ',
                      VALE=4.31287e-06,
                      PRECISION=0.048,
                      REFERENCE='SOURCE_EXTERNE',),
                   _F(CHAM_GD=DEPLMOS,
                      GROUP_NO='PM3',
                      NOM_CMP='DZ',
                      VALE=5.44381e-06,
                      PRECISION=0.048,
                      REFERENCE='SOURCE_EXTERNE',),
                   _F(CHAM_GD=DEPLMOS,
                      GROUP_NO='PM4',
                      NOM_CMP='DZ',
                      VALE=6.57481e-06,
                      PRECISION=0.048,
                      REFERENCE='SOURCE_EXTERNE',),
                   _F(CHAM_GD=DEPLMOS,
                      GROUP_NO='PM5',
                      NOM_CMP='DZ',
                      VALE=6.89592e-06,
                      PRECISION=0.047,
                      REFERENCE='SOURCE_EXTERNE',),
                   _F(CHAM_GD=DEPLMOS,
                      GROUP_NO='PM6',
                      NOM_CMP='DZ',
                      VALE=7.21709e-06,
                      PRECISION=0.047,
                      REFERENCE='SOURCE_EXTERNE',),
                   _F(CHAM_GD=REACMOS,
                      GROUP_NO='PM0',
                      NOM_CMP='DX',
                      VALE=28547.0,
                      PRECISION=0.051,
                      REFERENCE='SOURCE_EXTERNE',),
                   _F(CHAM_GD=REACMOS,
                      GROUP_NO='PM0',
                      NOM_CMP='DY',
                      VALE=2006.2,
                      PRECISION=0.015,
                      REFERENCE='SOURCE_EXTERNE',),
                   _F(CHAM_GD=REACMOS,
                      GROUP_NO='PM0',
                      NOM_CMP='DZ',
                      VALE=4600.5,
                      PRECISION=0.048,
                      REFERENCE='SOURCE_EXTERNE',),
                   _F(CHAM_GD=REACMOS,
                      GROUP_NO='PM0',
                      NOM_CMP='DRX',
                      VALE=3656.9,
                      PRECISION=0.02,
                      REFERENCE='SOURCE_EXTERNE',),
                   _F(CHAM_GD=REACMOS,
                      GROUP_NO='PM0',
                      NOM_CMP='DRY',
                      VALE=69858.0,
                      PRECISION=0.059,
                      REFERENCE='SOURCE_EXTERNE',),
                   _F(CHAM_GD=REACMOS,
                      GROUP_NO='PM0',
                      NOM_CMP='DRZ',
                      VALE=0.17724,
                      PRECISION=1.0,
                      REFERENCE='SOURCE_EXTERNE',),
                   _F(CHAM_GD=REACMOS,
                      GROUP_NO='PM00',
                      NOM_CMP='DX',
                      VALE=50944.0,
                      PRECISION=0.10,
                      REFERENCE='SOURCE_EXTERNE',),
                   _F(CHAM_GD=REACMOS,
                      GROUP_NO='PM00',
                      NOM_CMP='DY',
                      VALE=2545.3,
                      PRECISION=0.019,
                      REFERENCE='SOURCE_EXTERNE',),
                   _F(CHAM_GD=REACMOS,
                      GROUP_NO='PM00',
                      NOM_CMP='DZ',
                      VALE=406.84,
                      PRECISION=0.4,
                      REFERENCE='SOURCE_EXTERNE',),
                   _F(CHAM_GD=REACMOS,
                      GROUP_NO='PM00',
                      NOM_CMP='DRX',
                      VALE=4196.8,
                      PRECISION=0.023,
                      REFERENCE='SOURCE_EXTERNE',),
                   _F(CHAM_GD=REACMOS,
                      GROUP_NO='PM00',
                      NOM_CMP='DRY',
                      VALE=106447.0,
                      PRECISION=0.095,
                      REFERENCE='SOURCE_EXTERNE',),
                   _F(CHAM_GD=REACMOS,
                      GROUP_NO='PM00',
                      NOM_CMP='DRZ',
                      VALE=0.17705,
                      PRECISION=1.0,
                      REFERENCE='SOURCE_EXTERNE',),),
          CHAM_ELEM=(_F(CHAM_GD=EFGEMOS,
                        MAILLE='M3158',
                        GROUP_NO='PM1',
                        NOM_CMP='N',
                        VALE=4600.4,
                        PRECISION=0.046,
                        REFERENCE='SOURCE_EXTERNE',),
                     _F(CHAM_GD=EFGEMOS,
                        MAILLE='M3158',
                        GROUP_NO='PM1',
                        NOM_CMP='VY',
                        VALE=2003.4,
                        PRECISION=0.016,
                        REFERENCE='SOURCE_EXTERNE',),
                     _F(CHAM_GD=EFGEMOS,
                        MAILLE='M3158',
                        GROUP_NO='PM1',
                        NOM_CMP='VZ',
                        VALE=28530.0,
                        PRECISION=0.05,
                        REFERENCE='SOURCE_EXTERNE',),
                     _F(CHAM_GD=EFGEMOS,
                        MAILLE='M3158',
                        GROUP_NO='PM1',
                        NOM_CMP='MT',
                        VALE=0.17567,
                        PRECISION=1.0,
                        REFERENCE='SOURCE_EXTERNE',),
                     _F(CHAM_GD=EFGEMOS,
                        MAILLE='M3158',
                        GROUP_NO='PM1',
                        NOM_CMP='MFY',
                        VALE=27066.0,
                        PRECISION=0.071,
                        REFERENCE='SOURCE_EXTERNE',),
                     _F(CHAM_GD=EFGEMOS,
                        MAILLE='M3158',
                        GROUP_NO='PM1',
                        NOM_CMP='MFZ',
                        VALE=653.65,
                        PRECISION=0.044,
                        REFERENCE='SOURCE_EXTERNE',),
                     _F(CHAM_GD=EFGEMOS,
                        MAILLE='M3160',
                        GROUP_NO='PM2',
                        NOM_CMP='N',
                        VALE=4600.3,
                        PRECISION=0.048,
                        REFERENCE='SOURCE_EXTERNE',),
                     _F(CHAM_GD=EFGEMOS,
                        MAILLE='M3160',
                        GROUP_NO='PM2',
                        NOM_CMP='VY',
                        VALE=1980.6,
                        PRECISION=0.019,
                        REFERENCE='SOURCE_EXTERNE',),
                     _F(CHAM_GD=EFGEMOS,
                        MAILLE='M3160',
                        GROUP_NO='PM2',
                        NOM_CMP='VZ',
                        VALE=28401.0,
                        PRECISION=0.049,
                        REFERENCE='SOURCE_EXTERNE',),
                     _F(CHAM_GD=EFGEMOS,
                        MAILLE='M3160',
                        GROUP_NO='PM2',
                        NOM_CMP='MT',
                        VALE=0.16459,
                        PRECISION=1.0,
                        REFERENCE='SOURCE_EXTERNE',),
                     _F(CHAM_GD=EFGEMOS,
                        MAILLE='M3160',
                        GROUP_NO='PM2',
                        NOM_CMP='MFY',
                        VALE=15661.0,
                        PRECISION=0.017,
                        REFERENCE='SOURCE_EXTERNE',),
                     _F(CHAM_GD=EFGEMOS,
                        MAILLE='M3160',
                        GROUP_NO='PM2',
                        NOM_CMP='MFZ',
                        VALE=2334.6,
                        PRECISION=0.01,
                        REFERENCE='SOURCE_EXTERNE',),
                     _F(CHAM_GD=EFGEMOS,
                        MAILLE='M3162',
                        GROUP_NO='PM3',
                        NOM_CMP='N',
                        VALE=2413.8,
                        PRECISION=0.044,
                        REFERENCE='SOURCE_EXTERNE',),
                     _F(CHAM_GD=EFGEMOS,
                        MAILLE='M3162',
                        GROUP_NO='PM3',
                        NOM_CMP='VY',
                        VALE=1694.1,
                        PRECISION=0.018,
                        REFERENCE='SOURCE_EXTERNE',),
                     _F(CHAM_GD=EFGEMOS,
                        MAILLE='M3162',
                        GROUP_NO='PM3',
                        NOM_CMP='VZ',
                        VALE=25783.0,
                        PRECISION=0.036,
                        REFERENCE='SOURCE_EXTERNE',),
                     _F(CHAM_GD=EFGEMOS,
                        MAILLE='M3162',
                        GROUP_NO='PM3',
                        NOM_CMP='MT',
                        VALE=0.14027,
                        PRECISION=1.0,
                        REFERENCE='SOURCE_EXTERNE',),
                     _F(CHAM_GD=EFGEMOS,
                        MAILLE='M3162',
                        GROUP_NO='PM3',
                        NOM_CMP='MFY',
                        VALE=1152.4,
                        PRECISION=0.082,
                        REFERENCE='SOURCE_EXTERNE',),
                     _F(CHAM_GD=EFGEMOS,
                        MAILLE='M3162',
                        GROUP_NO='PM3',
                        NOM_CMP='MFZ',
                        VALE=165.62,
                        PRECISION=0.056,
                        REFERENCE='SOURCE_EXTERNE',),
                     _F(CHAM_GD=EFGEMOS,
                        MAILLE='M3164',
                        GROUP_NO='PM4',
                        NOM_CMP='N',
                        VALE=2413.5,
                        PRECISION=0.044,
                        REFERENCE='SOURCE_EXTERNE',),
                     _F(CHAM_GD=EFGEMOS,
                        MAILLE='M3164',
                        GROUP_NO='PM4',
                        NOM_CMP='VY',
                        VALE=1626.7,
                        PRECISION=0.022,
                        REFERENCE='SOURCE_EXTERNE',),
                     _F(CHAM_GD=EFGEMOS,
                        MAILLE='M3164',
                        GROUP_NO='PM4',
                        NOM_CMP='VZ',
                        VALE=25279.0,
                        PRECISION=0.035,
                        REFERENCE='SOURCE_EXTERNE',),
                     _F(CHAM_GD=EFGEMOS,
                        MAILLE='M3164',
                        GROUP_NO='PM4',
                        NOM_CMP='MT',
                        VALE=0.1049,
                        PRECISION=1.0,
                        REFERENCE='SOURCE_EXTERNE',),
                     _F(CHAM_GD=EFGEMOS,
                        MAILLE='M3164',
                        GROUP_NO='PM4',
                        NOM_CMP='MFY',
                        VALE=38408.0,
                        PRECISION=0.04,
                        REFERENCE='SOURCE_EXTERNE',),
                     _F(CHAM_GD=EFGEMOS,
                        MAILLE='M3164',
                        GROUP_NO='PM4',
                        NOM_CMP='MFZ',
                        VALE=2630.4,
                        PRECISION=0.013,
                        REFERENCE='SOURCE_EXTERNE',),
                     _F(CHAM_GD=EFGEMOS,
                        MAILLE='M3166',
                        GROUP_NO='PM5',
                        NOM_CMP='N',
                        VALE=690.44,
                        PRECISION=0.035,
                        REFERENCE='SOURCE_EXTERNE',),
                     _F(CHAM_GD=EFGEMOS,
                        MAILLE='M3166',
                        GROUP_NO='PM5',
                        NOM_CMP='VY',
                        VALE=909.96,
                        PRECISION=0.036,
                        REFERENCE='SOURCE_EXTERNE',),
                     _F(CHAM_GD=EFGEMOS,
                        MAILLE='M3166',
                        GROUP_NO='PM5',
                        NOM_CMP='VZ',
                        VALE=16635.0,
                        PRECISION=0.019,
                        REFERENCE='SOURCE_EXTERNE',),
                     _F(CHAM_GD=EFGEMOS,
                        MAILLE='M3166',
                        GROUP_NO='PM5',
                        NOM_CMP='MT',
                        VALE=0.0613748,
                        PRECISION=1.0,
                        REFERENCE='SOURCE_EXTERNE',),
                     _F(CHAM_GD=EFGEMOS,
                        MAILLE='M3166',
                        GROUP_NO='PM5',
                        NOM_CMP='MFY',
                        VALE=10174.0,
                        PRECISION=0.057,
                        REFERENCE='SOURCE_EXTERNE',),
                     _F(CHAM_GD=EFGEMOS,
                        MAILLE='M3166',
                        GROUP_NO='PM5',
                        NOM_CMP='MFZ',
                        VALE=320.15,
                        PRECISION=0.053,
                        REFERENCE='SOURCE_EXTERNE',),
                     _F(CHAM_GD=EFGEMOS,
                        MAILLE='M3157',
                        GROUP_NO='PM0',
                        NOM_CMP='N',
                        VALE=4600.5,
                        PRECISION=0.048,
                        REFERENCE='SOURCE_EXTERNE',),
                     _F(CHAM_GD=EFGEMOS,
                        MAILLE='M3157',
                        GROUP_NO='PM0',
                        NOM_CMP='VY',
                        VALE=2006.1,
                        PRECISION=0.015,
                        REFERENCE='SOURCE_EXTERNE',),
                     _F(CHAM_GD=EFGEMOS,
                        MAILLE='M3157',
                        GROUP_NO='PM0',
                        NOM_CMP='VZ',
                        VALE=28545.0,
                        PRECISION=0.052,
                        REFERENCE='SOURCE_EXTERNE',),
                     _F(CHAM_GD=EFGEMOS,
                        MAILLE='M3157',
                        GROUP_NO='PM0',
                        NOM_CMP='MT',
                        VALE=0.17705,
                        PRECISION=1.0,
                        REFERENCE='SOURCE_EXTERNE',),
                     _F(CHAM_GD=EFGEMOS,
                        MAILLE='M3157',
                        GROUP_NO='PM0',
                        NOM_CMP='MFY',
                        VALE=69858.0,
                        PRECISION=0.059,
                        REFERENCE='SOURCE_EXTERNE',),
                     _F(CHAM_GD=EFGEMOS,
                        MAILLE='M3157',
                        GROUP_NO='PM0',
                        NOM_CMP='MFZ',
                        VALE=3656.9,
                        PRECISION=0.02,
                        REFERENCE='SOURCE_EXTERNE',),
                     _F(CHAM_GD=EFGEMOS,
                        MAILLE='M3159',
                        GROUP_NO='PM1',
                        NOM_CMP='N',
                        VALE=4600.4,
                        PRECISION=0.048,
                        REFERENCE='SOURCE_EXTERNE',),
                     _F(CHAM_GD=EFGEMOS,
                        MAILLE='M3159',
                        GROUP_NO='PM1',
                        NOM_CMP='VY',
                        VALE=1995.2,
                        PRECISION=0.015,
                        REFERENCE='SOURCE_EXTERNE',),
                     _F(CHAM_GD=EFGEMOS,
                        MAILLE='M3159',
                        GROUP_NO='PM1',
                        NOM_CMP='VZ',
                        VALE=28485.0,
                        PRECISION=0.053,
                        REFERENCE='SOURCE_EXTERNE',),
                     _F(CHAM_GD=EFGEMOS,
                        MAILLE='M3159',
                        GROUP_NO='PM1',
                        NOM_CMP='MT',
                        VALE=0.17176,
                        PRECISION=1.0,
                        REFERENCE='SOURCE_EXTERNE',),
                     _F(CHAM_GD=EFGEMOS,
                        MAILLE='M3159',
                        GROUP_NO='PM1',
                        NOM_CMP='MFY',
                        VALE=27064.0,
                        PRECISION=0.072,
                        REFERENCE='SOURCE_EXTERNE',),
                     _F(CHAM_GD=EFGEMOS,
                        MAILLE='M3159',
                        GROUP_NO='PM1',
                        NOM_CMP='MFZ',
                        VALE=653.36,
                        PRECISION=0.044,
                        REFERENCE='SOURCE_EXTERNE',),
                     _F(CHAM_GD=EFGEMOS,
                        MAILLE='M3161',
                        GROUP_NO='PM2',
                        NOM_CMP='N',
                        VALE=2413.9,
                        PRECISION=0.046,
                        REFERENCE='SOURCE_EXTERNE',),
                     _F(CHAM_GD=EFGEMOS,
                        MAILLE='M3161',
                        GROUP_NO='PM2',
                        NOM_CMP='VY',
                        VALE=1716.3,
                        PRECISION=0.005,
                        REFERENCE='SOURCE_EXTERNE',),
                     _F(CHAM_GD=EFGEMOS,
                        MAILLE='M3161',
                        GROUP_NO='PM2',
                        NOM_CMP='VZ',
                        VALE=25955.0,
                        PRECISION=0.043,
                        REFERENCE='SOURCE_EXTERNE',),
                     _F(CHAM_GD=EFGEMOS,
                        MAILLE='M3161',
                        GROUP_NO='PM2',
                        NOM_CMP='MT',
                        VALE=0.15403,
                        PRECISION=1.0,
                        REFERENCE='SOURCE_EXTERNE',),
                     _F(CHAM_GD=EFGEMOS,
                        MAILLE='M3161',
                        GROUP_NO='PM2',
                        NOM_CMP='MFY',
                        VALE=38560.0,
                        PRECISION=0.04,
                        REFERENCE='SOURCE_EXTERNE',),
                     _F(CHAM_GD=EFGEMOS,
                        MAILLE='M3161',
                        GROUP_NO='PM2',
                        NOM_CMP='MFZ',
                        VALE=2396.9,
                        PRECISION=0.0075,
                        REFERENCE='SOURCE_EXTERNE',),
                     _F(CHAM_GD=EFGEMOS,
                        MAILLE='M3163',
                        GROUP_NO='PM3',
                        NOM_CMP='N',
                        VALE=2413.6,
                        PRECISION=0.043,
                        REFERENCE='SOURCE_EXTERNE',),
                     _F(CHAM_GD=EFGEMOS,
                        MAILLE='M3163',
                        GROUP_NO='PM3',
                        NOM_CMP='VY',
                        VALE=1664.2,
                        PRECISION=0.005,
                        REFERENCE='SOURCE_EXTERNE',),
                     _F(CHAM_GD=EFGEMOS,
                        MAILLE='M3163',
                        GROUP_NO='PM3',
                        NOM_CMP='VZ',
                        VALE=25558.0,
                        PRECISION=0.05,
                        REFERENCE='SOURCE_EXTERNE',),
                     _F(CHAM_GD=EFGEMOS,
                        MAILLE='M3163',
                        GROUP_NO='PM3',
                        NOM_CMP='MT',
                        VALE=0.12375,
                        PRECISION=1.0,
                        REFERENCE='SOURCE_EXTERNE',),
                     _F(CHAM_GD=EFGEMOS,
                        MAILLE='M3163',
                        GROUP_NO='PM3',
                        NOM_CMP='MFY',
                        VALE=1153.0,
                        PRECISION=0.081,
                        REFERENCE='SOURCE_EXTERNE',),
                     _F(CHAM_GD=EFGEMOS,
                        MAILLE='M3163',
                        GROUP_NO='PM3',
                        NOM_CMP='MFZ',
                        VALE=165.97,
                        PRECISION=0.058,
                        REFERENCE='SOURCE_EXTERNE',),
                     _F(CHAM_GD=EFGEMOS,
                        MAILLE='M3165',
                        GROUP_NO='PM4',
                        NOM_CMP='N',
                        VALE=690.62,
                        PRECISION=0.035,
                        REFERENCE='SOURCE_EXTERNE',),
                     _F(CHAM_GD=EFGEMOS,
                        MAILLE='M3165',
                        GROUP_NO='PM4',
                        NOM_CMP='VY',
                        VALE=950.69,
                        PRECISION=0.012,
                        REFERENCE='SOURCE_EXTERNE',),
                     _F(CHAM_GD=EFGEMOS,
                        MAILLE='M3165',
                        GROUP_NO='PM4',
                        NOM_CMP='VZ',
                        VALE=16998.0,
                        PRECISION=0.042,
                        REFERENCE='SOURCE_EXTERNE',),
                     _F(CHAM_GD=EFGEMOS,
                        MAILLE='M3165',
                        GROUP_NO='PM4',
                        NOM_CMP='MT',
                        VALE=0.0840692,
                        PRECISION=1.0,
                        REFERENCE='SOURCE_EXTERNE',),
                     _F(CHAM_GD=EFGEMOS,
                        MAILLE='M3165',
                        GROUP_NO='PM4',
                        NOM_CMP='MFY',
                        VALE=15168.0,
                        PRECISION=0.014,
                        REFERENCE='SOURCE_EXTERNE',),
                     _F(CHAM_GD=EFGEMOS,
                        MAILLE='M3165',
                        GROUP_NO='PM4',
                        NOM_CMP='MFZ',
                        VALE=1102.1,
                        PRECISION=0.01,
                        REFERENCE='SOURCE_EXTERNE',),
                     _F(CHAM_GD=EFGEMOS,
                        MAILLE='M3167',
                        GROUP_NO='PM5',
                        NOM_CMP='N',
                        VALE=690.26,
                        PRECISION=0.034,
                        REFERENCE='SOURCE_EXTERNE',),
                     _F(CHAM_GD=EFGEMOS,
                        MAILLE='M3167',
                        GROUP_NO='PM5',
                        NOM_CMP='VY',
                        VALE=864.43,
                        PRECISION=0.016,
                        REFERENCE='SOURCE_EXTERNE',),
                     _F(CHAM_GD=EFGEMOS,
                        MAILLE='M3167',
                        GROUP_NO='PM5',
                        NOM_CMP='VZ',
                        VALE=16228.0,
                        PRECISION=0.045,
                        REFERENCE='SOURCE_EXTERNE',),
                     _F(CHAM_GD=EFGEMOS,
                        MAILLE='M3167',
                        GROUP_NO='PM5',
                        NOM_CMP='MT',
                        VALE=0.0373639,
                        PRECISION=1.0,
                        REFERENCE='SOURCE_EXTERNE',),
                     _F(CHAM_GD=EFGEMOS,
                        MAILLE='M3167',
                        GROUP_NO='PM5',
                        NOM_CMP='MFY',
                        VALE=10176.0,
                        PRECISION=0.057,
                        REFERENCE='SOURCE_EXTERNE',),
                     _F(CHAM_GD=EFGEMOS,
                        MAILLE='M3167',
                        GROUP_NO='PM5',
                        NOM_CMP='MFZ',
                        VALE=320.28,
                        PRECISION=0.053,
                        REFERENCE='SOURCE_EXTERNE',),),);
#
# TEST_RESU POUR LA RECOMBINNAISON ROSENBLUETH DSC
#
#
# DEPLACEMENT
#
# DIRECTION X

TEST_RESU(CHAM_NO=(_F(CHAM_GD=DEPLMOR,
                      GROUP_NO='PM1',
                      NOM_CMP='DX',
                      VALE=0.00174668,
                      PRECISION=0.065,
                      REFERENCE='SOURCE_EXTERNE',),
                   _F(CHAM_GD=DEPLMOR,
                      GROUP_NO='PM2',
                      NOM_CMP='DX',
                      VALE=0.0051941,
                      PRECISION=0.06,
                      REFERENCE='SOURCE_EXTERNE',),
                   _F(CHAM_GD=DEPLMOR,
                      GROUP_NO='PM3',
                      NOM_CMP='DX',
                      VALE=0.00939848,
                      PRECISION=0.06,
                      REFERENCE='SOURCE_EXTERNE',),
                   _F(CHAM_GD=DEPLMOR,
                      GROUP_NO='PM4',
                      NOM_CMP='DX',
                      VALE=0.0135889,
                      PRECISION=0.06,
                      REFERENCE='SOURCE_EXTERNE',),
                   _F(CHAM_GD=DEPLMOR,
                      GROUP_NO='PM5',
                      NOM_CMP='DX',
                      VALE=0.0171747,
                      PRECISION=0.06,
                      REFERENCE='SOURCE_EXTERNE',),
                   _F(CHAM_GD=DEPLMOR,
                      GROUP_NO='PM6',
                      NOM_CMP='DX',
                      VALE=0.0201309,
                      PRECISION=0.06,
                      REFERENCE='SOURCE_EXTERNE',),
                   _F(CHAM_GD=DEPLMOR,
                      GROUP_NO='PM1',
                      NOM_CMP='DY',
                      VALE=0.000219731,
                      PRECISION=0.016,
                      REFERENCE='SOURCE_EXTERNE',),
                   _F(CHAM_GD=DEPLMOR,
[...]
                      VALE=2270.47,
                      PRECISION=0.3,
                      REFERENCE='SOURCE_EXTERNE',),
                   _F(CHAM_GD=REACMOR,
                      GROUP_NO='PM0',
                      NOM_CMP='DZ',
                      VALE=5007.21,
                      PRECISION=0.224,
                      REFERENCE='SOURCE_EXTERNE',),
                   _F(CHAM_GD=REACMOR,
                      GROUP_NO='PM0',
                      NOM_CMP='DRX',
                      VALE=4154.04,
                      PRECISION=0.305,
                      REFERENCE='SOURCE_EXTERNE',),
                   _F(CHAM_GD=REACMOR,
                      GROUP_NO='PM0',
                      NOM_CMP='DRY',
                      VALE=82362.9,
                      PRECISION=0.048,
                      REFERENCE='SOURCE_EXTERNE',),
                   _F(CHAM_GD=REACMOR,
                      GROUP_NO='PM0',
                      NOM_CMP='DRZ',
                      VALE=21.6969,
                      PRECISION=1.0,
                      REFERENCE='SOURCE_EXTERNE',),
                   _F(CHAM_GD=REACMOR,
                      GROUP_NO='PM00',
                      NOM_CMP='DX',
                      VALE=50606.4,
                      PRECISION=0.16,
                      REFERENCE='SOURCE_EXTERNE',),
                   _F(CHAM_GD=REACMOR,
                      GROUP_NO='PM00',
                      NOM_CMP='DY',
                      VALE=2855.41,
                      PRECISION=0.3,
                      REFERENCE='SOURCE_EXTERNE',),
                   _F(CHAM_GD=REACMOR,
                      GROUP_NO='PM00',
                      NOM_CMP='DZ',
                      VALE=1979.04,
                      PRECISION=0.88,
                      REFERENCE='SOURCE_EXTERNE',),
                   _F(CHAM_GD=REACMOR,
                      GROUP_NO='PM00',
                      NOM_CMP='DRX',
                      VALE=4738.07,
                      PRECISION=0.305,
                      REFERENCE='SOURCE_EXTERNE',),
                   _F(CHAM_GD=REACMOR,
                      GROUP_NO='PM00',
                      NOM_CMP='DRY',
                      VALE=107481.0,
                      PRECISION=0.13,
                      REFERENCE='SOURCE_EXTERNE',),
                   _F(CHAM_GD=REACMOR,
                      GROUP_NO='PM00',
                      NOM_CMP='DRZ',
                      VALE=26.0102,
                      PRECISION=1.0,
                      REFERENCE='SOURCE_EXTERNE',),),
          CHAM_ELEM=(_F(CHAM_GD=EFGEMOR,
                        MAILLE='M3158',
                        GROUP_NO='PM1',
                        NOM_CMP='N',
                        VALE=5007.0,
                        PRECISION=0.224,
                        REFERENCE='SOURCE_EXTERNE',),
                     _F(CHAM_GD=EFGEMOR,
                        MAILLE='M3158',
                        GROUP_NO='PM1',
                        NOM_CMP='VY',
                        VALE=2266.0,
                        PRECISION=0.3,
                        REFERENCE='SOURCE_EXTERNE',),
                     _F(CHAM_GD=EFGEMOR,
                        MAILLE='M3158',
                        GROUP_NO='PM1',
                        NOM_CMP='VZ',
                        VALE=33250.0,
                        PRECISION=0.052,
                        REFERENCE='SOURCE_EXTERNE',),
                     _F(CHAM_GD=EFGEMOR,
                        MAILLE='M3158',
                        GROUP_NO='PM1',
                        NOM_CMP='MT',
                        VALE=21.69,
                        PRECISION=1.0,
                        REFERENCE='SOURCE_EXTERNE',),
                     _F(CHAM_GD=EFGEMOR,
                        MAILLE='M3158',
                        GROUP_NO='PM1',
                        NOM_CMP='MFY',
                        VALE=32640.0,
                        PRECISION=0.036,
                        REFERENCE='SOURCE_EXTERNE',),
                     _F(CHAM_GD=EFGEMOR,
                        MAILLE='M3158',
                        GROUP_NO='PM1',
                        NOM_CMP='MFZ',
                        VALE=765.9,
                        PRECISION=0.342,
                        REFERENCE='SOURCE_EXTERNE',),
                     _F(CHAM_GD=EFGEMOR,
                        MAILLE='M3160',
                        GROUP_NO='PM2',
                        NOM_CMP='N',
                        VALE=5007.0,
                        PRECISION=0.224,
                        REFERENCE='SOURCE_EXTERNE',),
                     _F(CHAM_GD=EFGEMOR,
                        MAILLE='M3160',
                        GROUP_NO='PM2',
                        NOM_CMP='VY',
                        VALE=2235.0,
                        PRECISION=0.3,
                        REFERENCE='SOURCE_EXTERNE',),
                     _F(CHAM_GD=EFGEMOR,
                        MAILLE='M3160',
                        GROUP_NO='PM2',
                        NOM_CMP='VZ',
                        VALE=32900.0,
                        PRECISION=0.057,
                        REFERENCE='SOURCE_EXTERNE',),
                     _F(CHAM_GD=EFGEMOR,
                        MAILLE='M3160',
                        GROUP_NO='PM2',
                        NOM_CMP='MT',
                        VALE=21.67,
                        PRECISION=1.0,
                        REFERENCE='SOURCE_EXTERNE',),
                     _F(CHAM_GD=EFGEMOR,
                        MAILLE='M3160',
                        GROUP_NO='PM2',
                        NOM_CMP='MFY',
                        VALE=17520.0,
                        PRECISION=0.063,
                        REFERENCE='SOURCE_EXTERNE',),
                     _F(CHAM_GD=EFGEMOR,
                        MAILLE='M3160',
                        GROUP_NO='PM2',
                        NOM_CMP='MFZ',
                        VALE=2623.0,
                        PRECISION=0.29,
                        REFERENCE='SOURCE_EXTERNE',),
                     _F(CHAM_GD=EFGEMOR,
                        MAILLE='M3162',
                        GROUP_NO='PM3',
                        NOM_CMP='N',
                        VALE=2641.0,
                        PRECISION=0.23,
                        REFERENCE='SOURCE_EXTERNE',),
                     _F(CHAM_GD=EFGEMOR,
                        MAILLE='M3162',
                        GROUP_NO='PM3',
                        NOM_CMP='VY',
                        VALE=1934.0,
                        PRECISION=0.31,
                        REFERENCE='SOURCE_EXTERNE',),
                     _F(CHAM_GD=EFGEMOR,
                        MAILLE='M3162',
                        GROUP_NO='PM3',
                        NOM_CMP='VZ',
                        VALE=29970.0,
                        PRECISION=0.038,
                        REFERENCE='SOURCE_EXTERNE',),
                     _F(CHAM_GD=EFGEMOR,
                        MAILLE='M3162',
                        GROUP_NO='PM3',
                        NOM_CMP='MT',
                        VALE=25.73,
                        PRECISION=1.0,
                        REFERENCE='SOURCE_EXTERNE',),
                     _F(CHAM_GD=EFGEMOR,
                        MAILLE='M3162',
                        GROUP_NO='PM3',
                        NOM_CMP='MFY',
                        VALE=1447.0,
                        PRECISION=0.005,
                        REFERENCE='SOURCE_EXTERNE',),
                     _F(CHAM_GD=EFGEMOR,
                        MAILLE='M3162',
                        GROUP_NO='PM3',
                        NOM_CMP='MFZ',
                        VALE=190.0,
                        PRECISION=0.342,
                        REFERENCE='SOURCE_EXTERNE',),
                     _F(CHAM_GD=EFGEMOR,
                        MAILLE='M3164',
                        GROUP_NO='PM4',
                        NOM_CMP='N',
                        VALE=2640.0,
                        PRECISION=0.228,
                        REFERENCE='SOURCE_EXTERNE',),
                     _F(CHAM_GD=EFGEMOR,
                        MAILLE='M3164',
                        GROUP_NO='PM4',
                        NOM_CMP='VY',
                        VALE=1859.0,
                        PRECISION=0.312,
                        REFERENCE='SOURCE_EXTERNE',),
                     _F(CHAM_GD=EFGEMOR,
                        MAILLE='M3164',
                        GROUP_NO='PM4',
                        NOM_CMP='VZ',
                        VALE=29350.0,
                        PRECISION=0.036,
                        REFERENCE='SOURCE_EXTERNE',),
                     _F(CHAM_GD=EFGEMOR,
                        MAILLE='M3164',
                        GROUP_NO='PM4',
                        NOM_CMP='MT',
                        VALE=25.73,
                        PRECISION=1.0,
                        REFERENCE='SOURCE_EXTERNE',),
                     _F(CHAM_GD=EFGEMOR,
                        MAILLE='M3164',
                        GROUP_NO='PM4',
                        NOM_CMP='MFY',
                        VALE=44360.0,
                        PRECISION=0.05,
                        REFERENCE='SOURCE_EXTERNE',),
                     _F(CHAM_GD=EFGEMOR,
                        MAILLE='M3164',
                        GROUP_NO='PM4',
                        NOM_CMP='MFZ',
                        VALE=2999.0,
                        PRECISION=0.304,
                        REFERENCE='SOURCE_EXTERNE',),
                     _F(CHAM_GD=EFGEMOR,
                        MAILLE='M3166',
                        GROUP_NO='PM5',
                        NOM_CMP='N',
                        VALE=777.3,
                        PRECISION=0.258,
                        REFERENCE='SOURCE_EXTERNE',),
                     _F(CHAM_GD=EFGEMOR,
                        MAILLE='M3166',
                        GROUP_NO='PM5',
                        NOM_CMP='VY',
                        VALE=1045.0,
                        PRECISION=0.326,
                        REFERENCE='SOURCE_EXTERNE',),
                     _F(CHAM_GD=EFGEMOR,
                        MAILLE='M3166',
                        GROUP_NO='PM5',
                        NOM_CMP='VZ',
                        VALE=19370.0,
                        PRECISION=0.014,
                        REFERENCE='SOURCE_EXTERNE',),
                     _F(CHAM_GD=EFGEMOR,
                        MAILLE='M3166',
                        GROUP_NO='PM5',
                        NOM_CMP='MT',
                        VALE=26.69,
                        PRECISION=1.0,
                        REFERENCE='SOURCE_EXTERNE',),
                     _F(CHAM_GD=EFGEMOR,
                        MAILLE='M3166',
                        GROUP_NO='PM5',
                        NOM_CMP='MFY',
                        VALE=12100.0,
                        PRECISION=0.037,
                        REFERENCE='SOURCE_EXTERNE',),
                     _F(CHAM_GD=EFGEMOR,
                        MAILLE='M3166',
                        GROUP_NO='PM5',
                        NOM_CMP='MFZ',
                        VALE=381.5,
                        PRECISION=0.364,
                        REFERENCE='SOURCE_EXTERNE',),
                     _F(CHAM_GD=EFGEMOR,
                        MAILLE='M3159',
                        GROUP_NO='PM1',
                        NOM_CMP='N',
                        VALE=5007.0,
                        PRECISION=0.224,
                        REFERENCE='SOURCE_EXTERNE',),
                     _F(CHAM_GD=EFGEMOR,
                        MAILLE='M3159',
                        GROUP_NO='PM1',
                        NOM_CMP='VY',
                        VALE=2255.0,
                        PRECISION=0.297,
                        REFERENCE='SOURCE_EXTERNE',),
                     _F(CHAM_GD=EFGEMOR,
                        MAILLE='M3159',
                        GROUP_NO='PM1',
                        NOM_CMP='VZ',
                        VALE=33060.0,
                        PRECISION=0.058,
                        REFERENCE='SOURCE_EXTERNE',),
                     _F(CHAM_GD=EFGEMOR,
                        MAILLE='M3159',
                        GROUP_NO='PM1',
                        NOM_CMP='MT',
                        VALE=21.68,
                        PRECISION=1.0,
                        REFERENCE='SOURCE_EXTERNE',),
                     _F(CHAM_GD=EFGEMOR,
                        MAILLE='M3159',
                        GROUP_NO='PM1',
                        NOM_CMP='MFY',
                        VALE=32630.0,
                        PRECISION=0.036,
                        REFERENCE='SOURCE_EXTERNE',),
                     _F(CHAM_GD=EFGEMOR,
                        MAILLE='M3159',
                        GROUP_NO='PM1',
                        NOM_CMP='MFZ',
                        VALE=765.5,
                        PRECISION=0.342,
                        REFERENCE='SOURCE_EXTERNE',),
                     _F(CHAM_GD=EFGEMOR,
                        MAILLE='M3161',
                        GROUP_NO='PM2',
                        NOM_CMP='N',
                        VALE=2641.0,
                        PRECISION=0.229,
                        REFERENCE='SOURCE_EXTERNE',),
                     _F(CHAM_GD=EFGEMOR,
                        MAILLE='M3161',
                        GROUP_NO='PM2',
                        NOM_CMP='VY',
                        VALE=1955.0,
                        PRECISION=0.298,
                        REFERENCE='SOURCE_EXTERNE',),
                     _F(CHAM_GD=EFGEMOR,
                        MAILLE='M3161',
                        GROUP_NO='PM2',
                        NOM_CMP='VZ',
                        VALE=30170.0,
                        PRECISION=0.045,
                        REFERENCE='SOURCE_EXTERNE',),
                     _F(CHAM_GD=EFGEMOR,
                        MAILLE='M3161',
                        GROUP_NO='PM2',
                        NOM_CMP='MT',
                        VALE=25.72,
                        PRECISION=1.0,
                        REFERENCE='SOURCE_EXTERNE',),
                     _F(CHAM_GD=EFGEMOR,
                        MAILLE='M3161',
                        GROUP_NO='PM2',
                        NOM_CMP='MFY',
                        VALE=45110.0,
                        PRECISION=0.034,
                        REFERENCE='SOURCE_EXTERNE',),
                     _F(CHAM_GD=EFGEMOR,
                        MAILLE='M3161',
                        GROUP_NO='PM2',
                        NOM_CMP='MFZ',
                        VALE=2742.0,
                        PRECISION=0.302,
                        REFERENCE='SOURCE_EXTERNE',),
                     _F(CHAM_GD=EFGEMOR,
                        MAILLE='M3163',
                        GROUP_NO='PM3',
                        NOM_CMP='N',
                        VALE=2641.0,
                        PRECISION=0.229,
                        REFERENCE='SOURCE_EXTERNE',),
                     _F(CHAM_GD=EFGEMOR,
                        MAILLE='M3163',
                        GROUP_NO='PM3',
                        NOM_CMP='VY',
                        VALE=1902.0,
                        PRECISION=0.298,
                        REFERENCE='SOURCE_EXTERNE',),
                     _F(CHAM_GD=EFGEMOR,
                        MAILLE='M3163',
                        GROUP_NO='PM3',
                        NOM_CMP='VZ',
                        VALE=29690.0,
                        PRECISION=0.048,
                        REFERENCE='SOURCE_EXTERNE',),
                     _F(CHAM_GD=EFGEMOR,
                        MAILLE='M3163',
                        GROUP_NO='PM3',
                        NOM_CMP='MT',
                        VALE=25.73,
                        PRECISION=1.0,
                        REFERENCE='SOURCE_EXTERNE',),
                     _F(CHAM_GD=EFGEMOR,
                        MAILLE='M3163',
                        GROUP_NO='PM3',
                        NOM_CMP='MFY',
                        VALE=1440.0,
                        PRECISION=0.003,
                        REFERENCE='SOURCE_EXTERNE',),
                     _F(CHAM_GD=EFGEMOR,
                        MAILLE='M3163',
                        GROUP_NO='PM3',
                        NOM_CMP='MFZ',
                        VALE=190.4,
                        PRECISION=0.342,
                        REFERENCE='SOURCE_EXTERNE',),
                     _F(CHAM_GD=EFGEMOR,
                        MAILLE='M3165',
                        GROUP_NO='PM4',
                        NOM_CMP='N',
                        VALE=777.5,
                        PRECISION=0.258,
                        REFERENCE='SOURCE_EXTERNE',),
                     _F(CHAM_GD=EFGEMOR,
                        MAILLE='M3165',
                        GROUP_NO='PM4',
                        NOM_CMP='VY',
                        VALE=1087.0,
                        PRECISION=0.30,
                        REFERENCE='SOURCE_EXTERNE',),
                     _F(CHAM_GD=EFGEMOR,
                        MAILLE='M3165',
                        GROUP_NO='PM4',
                        NOM_CMP='VZ',
                        VALE=19770.0,
                        PRECISION=0.039,
                        REFERENCE='SOURCE_EXTERNE',),
                     _F(CHAM_GD=EFGEMOR,
                        MAILLE='M3165',
                        GROUP_NO='PM4',
                        NOM_CMP='MT',
                        VALE=26.7,
                        PRECISION=1.0,
                        REFERENCE='SOURCE_EXTERNE',),
                     _F(CHAM_GD=EFGEMOR,
                        MAILLE='M3165',
                        GROUP_NO='PM4',
                        NOM_CMP='MFY',
                        VALE=17970.0,
                        PRECISION=0.014,
                        REFERENCE='SOURCE_EXTERNE',),
                     _F(CHAM_GD=EFGEMOR,
                        MAILLE='M3165',
                        GROUP_NO='PM4',
                        NOM_CMP='MFZ',
                        VALE=1284.0,
                        PRECISION=0.323,
                        REFERENCE='SOURCE_EXTERNE',),
                     _F(CHAM_GD=EFGEMOR,
                        MAILLE='M3167',
                        GROUP_NO='PM5',
                        NOM_CMP='N',
                        VALE=777.1,
                        PRECISION=0.257,
                        REFERENCE='SOURCE_EXTERNE',),
                     _F(CHAM_GD=EFGEMOR,
                        MAILLE='M3167',
                        GROUP_NO='PM5',
                        NOM_CMP='VY',
                        VALE=996.8,
                        PRECISION=0.292,
                        REFERENCE='SOURCE_EXTERNE',),
                     _F(CHAM_GD=EFGEMOR,
                        MAILLE='M3167',
                        GROUP_NO='PM5',
                        NOM_CMP='VZ',
                        VALE=18910.0,
                        PRECISION=0.039,
                        REFERENCE='SOURCE_EXTERNE',),
                     _F(CHAM_GD=EFGEMOR,
                        MAILLE='M3167',
                        GROUP_NO='PM5',
                        NOM_CMP='MT',
                        VALE=26.69,
                        PRECISION=1.0,
                        REFERENCE='SOURCE_EXTERNE',),
                     _F(CHAM_GD=EFGEMOR,
                        MAILLE='M3167',
                        GROUP_NO='PM5',
                        NOM_CMP='MFY',
                        VALE=12110.0,
                        PRECISION=0.036,
                        REFERENCE='SOURCE_EXTERNE',),
                     _F(CHAM_GD=EFGEMOR,
                        MAILLE='M3167',
                        GROUP_NO='PM5',
                        NOM_CMP='MFZ',
                        VALE=381.6,
                        PRECISION=0.364,
                        REFERENCE='SOURCE_EXTERNE',),),);
#

FIN();
#
#
