# TITRE PROBLEME DE HOVGAARD: CALCUL MODAL ET CALCUL SPECTRAL
# ======================================================================
# COPYRIGHT (C) 1991 - 2012  EDF R&D                  WWW.CODE-ASTER.ORG
# THIS PROGRAM IS FREE SOFTWARE; YOU CAN REDISTRIBUTE IT AND/OR MODIFY
# IT UNDER THE TERMS OF THE GNU GENERAL PUBLIC LICENSE AS PUBLISHED BY
# THE FREE SOFTWARE FOUNDATION; EITHER VERSION 2 OF THE LICENSE, OR
# (AT YOUR OPTION) ANY LATER VERSION.
#
# THIS PROGRAM IS DISTRIBUTED IN THE HOPE THAT IT WILL BE USEFUL, BUT
# WITHOUT ANY WARRANTY; WITHOUT EVEN THE IMPLIED WARRANTY OF
# MERCHANTABILITY OR FITNESS FOR A PARTICULAR PURPOSE. SEE THE GNU
# GENERAL PUBLIC LICENSE FOR MORE DETAILS.
#
# YOU SHOULD HAVE RECEIVED A COPY OF THE GNU GENERAL PUBLIC LICENSE
# ALONG WITH THIS PROGRAM; IF NOT, WRITE TO EDF R&D CODE_ASTER,
#    1 AVENUE DU GENERAL DE GAULLE, 92141 CLAMART CEDEX, FRANCE.
# ======================================================================
#

DEBUT(CODE=_F(NIV_PUB_WEB='INTERNET'),DEBUG=_F(SDVERI='OUI'))

MAILLAGE=LIRE_MAILLAGE(FORMAT='MED', )

MODELE=AFFE_MODELE(  MAILLAGE=MAILLAGE,AFFE=(
                  _F(  GROUP_MA = 'POU_D_T',  PHENOMENE = 'MECANIQUE',
                         MODELISATION = 'POU_D_T'),
                       _F(  GROUP_MA = 'POU_C_T',  PHENOMENE = 'MECANIQUE',
                         MODELISATION = 'POU_C_T'))                  )

#

MAT=DEFI_MATERIAU( ELAS=_F(  E = 1.658E+11,  RHO = 1.3404106E+04,
                                   NU = 0.3,  ALPHA = 1.288E-05)    )

CHAMPMAT=AFFE_MATERIAU(  MAILLAGE=MAILLAGE,
                            AFFE=_F(  GROUP_MA = 'MAT_1',  MATER = MAT) )

COND_LIM=AFFE_CHAR_MECA(  MODELE=MODELE,
                         DDL_IMPO=_F(  GROUP_NO = 'ENCASTRE',
                                    DX = 0.,  DY = 0.,  DZ = 0.,
                                    DRX = 0.,  DRY = 0.,  DRZ = 0.)   )

#

CARA_ELE=AFFE_CARA_ELEM(  MODELE=MODELE,POUTRE=(
                  _F(  GROUP_MA = 'SEC_1',  SECTION = 'GENERALE',
                           CARA = ( 'A',  'IZ', 'IY', 'AY', 'AZ', 'JX',
                                  'EZ', 'EY', 'RY', 'RZ', 'RT',      ),
                           VALE = ( 3.4390E-03,  1.3770E-05,  1.3770E-05,
                                  2.0,  2.0,  2.7540E-05,  0.0,  0.0,
                                  1.0,  1.0,  1.0,        )),
                         _F(  GROUP_MA = 'SEC_2', SECTION = 'GENERALE',
                           CARA = ( 'A',  'IZ', 'IY', 'AY', 'AZ', 'JX',
                                  'EZ', 'EY', 'RY', 'RZ', 'RT',      ),
                           VALE = ( 3.4390E-03, 5.8870E-06, 5.8870E-06,
                                  2.0,  2.0,  2.7540E-05,  0.0,  0.0,
                                  1.0,  1.0,  1.0,        ))),DEFI_ARC=(
                  _F(  MAILLE = 'E3',  ORIE_ARC = 90., RAYON = 0.922),
                           _F(  MAILLE = 'E4',  ORIE_ARC = 90., RAYON = 0.922),
                           _F(  MAILLE = 'E9',  ORIE_ARC = 0., RAYON = 0.922),
                           _F(  MAILLE = 'E10', ORIE_ARC = 0., RAYON = 0.922)) )

#

RIGI_ELE=CALC_MATR_ELEM(  MODELE=MODELE,   OPTION='RIGI_MECA',
                              CHAM_MATER=CHAMPMAT,   CARA_ELEM=CARA_ELE,
                              CHARGE=( COND_LIM, )                   )

MASS_ELE=CALC_MATR_ELEM(  MODELE=MODELE,   OPTION='MASS_MECA',
                              CHAM_MATER=CHAMPMAT,   CARA_ELEM=CARA_ELE,
                              CHARGE=( COND_LIM, )                   )

MASS_ELD=CALC_MATR_ELEM(  MODELE=MODELE,   OPTION='MASS_MECA_DIAG',
                              CHAM_MATER=CHAMPMAT,   CARA_ELEM=CARA_ELE,
                              CHARGE=( COND_LIM, )                   )

NUMEDDL=NUME_DDL(  MATR_RIGI=RIGI_ELE)

RIGIDITE=ASSE_MATRICE(  MATR_ELEM=RIGI_ELE,   NUME_DDL=NUMEDDL )

MASSE=ASSE_MATRICE(  MATR_ELEM=MASS_ELE,   NUME_DDL=NUMEDDL )

MASSE_DI=ASSE_MATRICE(  MATR_ELEM=MASS_ELD,   NUME_DDL=NUMEDDL )

TABL_MAS=POST_ELEM(  MODELE=MODELE,
                         CHAM_MATER=CHAMPMAT,   CARA_ELEM=CARA_ELE,
                        MASS_INER=_F(  TOUT = 'OUI')                   )

MODE=MODE_ITER_SIMULT(  MATR_RIGI=RIGIDITE,   MATR_MASS=MASSE,
                    METHODE='TRI_DIAG',
                  CALC_FREQ=_F(  NMAX_FREQ = 9) )


MODE_DIA=MODE_ITER_SIMULT(  MATR_RIGI=RIGIDITE,   MATR_MASS=MASSE_DI,
                    METHODE='TRI_DIAG',
                  CALC_FREQ=_F(  NMAX_FREQ = 9) )


MODE_DIA=NORM_MODE(reuse=MODE_DIA,   MODE=MODE_DIA,   NORME='TRAN_ROTA',)

MODE_DIA=CALC_CHAMP(reuse=MODE_DIA,RESULTAT=MODE_DIA,CONTRAINTE=('SIEF_ELGA','EFGE_ELNO'))


MODE_DIA=CALC_CHAMP(reuse=MODE_DIA,  RESULTAT=MODE_DIA,
                 FORCE='REAC_NODA', )

TEST_RESU(RESU=(_F(PARA='FREQ',
                   NUME_MODE=1,
                   RESULTAT=MODE,
                   VALE_CALC=10.448795819,
                   VALE_REFE=10.390000000000001,
                   REFERENCE='SOURCE_EXTERNE',
                   PRECISION=6.0000000000000001E-3,),
                _F(PARA='FREQ',
                   NUME_MODE=2,
                   RESULTAT=MODE,
                   VALE_CALC=19.906716280,
                   VALE_REFE=20.02,
                   REFERENCE='SOURCE_EXTERNE',
                   PRECISION=6.0000000000000001E-3,),
                _F(PARA='FREQ',
                   NUME_MODE=3,
                   RESULTAT=MODE,
                   VALE_CALC=25.336904316,
                   VALE_REFE=25.449999999999999,
                   REFERENCE='SOURCE_EXTERNE',
                   PRECISION=5.0000000000000001E-3,),
                _F(PARA='FREQ',
                   NUME_MODE=4,
                   RESULTAT=MODE,
                   VALE_CALC=46.880569591,
                   VALE_REFE=48.32,
                   REFERENCE='SOURCE_EXTERNE',
                   PRECISION=0.029999999999999999,),
                _F(PARA='FREQ',
                   NUME_MODE=5,
                   RESULTAT=MODE,
                   VALE_CALC=51.770836284,
                   VALE_REFE=52.600000000000001,
                   REFERENCE='SOURCE_EXTERNE',
                   PRECISION=0.016,),
                _F(PARA='FREQ',
                   NUME_MODE=6,
                   RESULTAT=MODE,
                   VALE_CALC=82.433475580,
                   VALE_REFE=84.810000000000002,
                   REFERENCE='SOURCE_EXTERNE',
                   PRECISION=0.029000000000000001,),
                _F(PARA='FREQ',
                   NUME_MODE=7,
                   RESULTAT=MODE,
                   VALE_CALC=84.173712693,
                   VALE_REFE=87.159999999999997,
                   REFERENCE='SOURCE_EXTERNE',
                   PRECISION=0.035000000000000003,),
                _F(PARA='FREQ',
                   NUME_MODE=8,
                   RESULTAT=MODE,
                   VALE_CALC=130.137899294,
                   VALE_REFE=129.31,
                   REFERENCE='SOURCE_EXTERNE',
                   PRECISION=7.0000000000000001E-3,),
                _F(PARA='FREQ',
                   NUME_MODE=9,
                   RESULTAT=MODE,
                   VALE_REFE=131.69,
                   VALE_CALC=131.69122034376,
                   REFERENCE='SOURCE_EXTERNE',
                   PRECISION=1.E-3,
                   ),
                ),
          )

#

TEST_RESU(RESU=(_F(PARA='FREQ',
                   NUME_MODE=1,
                   RESULTAT=MODE_DIA,
                   VALE_CALC=10.198605717,
                   VALE_REFE=10.18,
                   REFERENCE='SOURCE_EXTERNE',
                   PRECISION=5.0000000000000001E-3,),
                _F(PARA='FREQ',
                   NUME_MODE=2,
                   RESULTAT=MODE_DIA,
                   VALE_CALC=19.544417108,
                   VALE_REFE=19.539999999999999,
                   REFERENCE='SOURCE_EXTERNE',
                   PRECISION=5.0000000000000001E-3,),
                _F(PARA='FREQ',
                   NUME_MODE=3,
                   RESULTAT=MODE_DIA,
                   VALE_CALC=25.368555003,
                   VALE_REFE=25.469999999999999,
                   REFERENCE='SOURCE_EXTERNE',
                   PRECISION=5.0000000000000001E-3,),
                _F(PARA='FREQ',
                   NUME_MODE=4,
                   RESULTAT=MODE_DIA,
                   VALE_CALC=47.764046850,
                   VALE_REFE=48.090000000000003,
                   REFERENCE='SOURCE_EXTERNE',
                   PRECISION=8.0000000000000002E-3,),
                _F(PARA='FREQ',
                   NUME_MODE=5,
                   RESULTAT=MODE_DIA,
                   VALE_CALC=52.509060354,
                   VALE_REFE=52.859999999999999,
                   REFERENCE='SOURCE_EXTERNE',
                   PRECISION=1.E-2,),
                _F(PARA='FREQ',
                   NUME_MODE=6,
                   RESULTAT=MODE_DIA,
                   VALE_CALC=75.131095909,
                   VALE_REFE=75.939999999999998,
                   REFERENCE='SOURCE_EXTERNE',
                   PRECISION=0.010999999999999999,),
                _F(PARA='FREQ',
                   NUME_MODE=7,
                   RESULTAT=MODE_DIA,
                   VALE_CALC=79.512708521,
                   VALE_REFE=80.109999999999999,
                   REFERENCE='SOURCE_EXTERNE',
                   PRECISION=1.E-2,),
                _F(PARA='FREQ',
                   NUME_MODE=8,
                   RESULTAT=MODE_DIA,
                   VALE_CALC=120.785751835,
                   VALE_REFE=122.34,
                   REFERENCE='SOURCE_EXTERNE',
                   PRECISION=0.014999999999999999,),
                _F(PARA='FREQ',
                   NUME_MODE=9,
                   RESULTAT=MODE_DIA,
                   VALE_CALC=121.480944836,
                   VALE_REFE=123.15000000000001,
                   REFERENCE='SOURCE_EXTERNE',
                   PRECISION=0.014999999999999999,),
                ),
          )

#

MODE_STA=MODE_STATIQUE(  MATR_RIGI=RIGIDITE,   MATR_MASS=MASSE_DI,
                             PSEUDO_MODE=_F(  AXE = ( 'X',  'Y',  'Z', ))  )

IMPR_RESU(RESU=_F(RESULTAT=MODE_STA,),)
IMPR_RESU(FORMAT='MED',RESU=_F(RESULTAT=MODE_STA,),)


T_RELE = POST_RELEVE_T ( ACTION=_F( INTITULE = 'MO_ST',
                                    NOEUD    = 'N1000',
                                    RESULTAT = MODE_STA,
                                    NOM_CHAM = 'DEPL',
                                    TOUT_CMP = 'OUI',
                                    OPERATION= 'EXTRACTION',),)
IMPR_TABLE ( TABLE = T_RELE,
             NOM_PARA = ('NOEUD','NUME_ORDRE','DX','DY','DZ','NOEUD_CMP',), )

MODE_STA=CALC_CHAMP(reuse=MODE_STA,RESULTAT=MODE_STA,CONTRAINTE=('SIEF_ELGA','EFGE_ELNO'))


MODE_STA=CALC_CHAMP(reuse=MODE_STA,  RESULTAT=MODE_STA,
                    FORCE='REAC_NODA',)

#

ACCE_XY=DEFI_FONCTION(  NOM_PARA='FREQ',    INTERPOL='LOG',
                            VALE=(     1.0,   1.962,   10.0,   19.62,
                                      30.0,  19.62,   100.0,    1.962,
                                   10000.0,   1.962,          )       )

ACCE_Z=DEFI_FONCTION(  NOM_PARA='FREQ',    INTERPOL='LOG',
                            VALE=(     1.0,   0.981,   10.0,    9.81,
                                      30.0,   9.81,   100.0,    0.981,
                                   10000.0,   0.981,          )       )

SPECT_XY=DEFI_NAPPE(  NOM_PARA='AMOR',
                            INTERPOL=( 'LIN', 'LOG', ),
                          PARA=(     0.015,   0.02,    0.025,  ),
                          FONCTION=( ACCE_XY,  ACCE_XY,  ACCE_XY, )  )

SPECT_Z=DEFI_NAPPE(  NOM_PARA='AMOR',
                            INTERPOL=( 'LIN', 'LOG', ),
                          PARA=(     0.015,   0.02,    0.025,  ),
                          FONCTION=( ACCE_Z,   ACCE_Z,   ACCE_Z,  )  )

#

SISM_SPE=COMB_SISM_MODAL(  MODE_MECA=MODE_DIA,
                           AMOR_REDUIT=0.02,
                           MASS_INER=TABL_MAS,
                           CORR_FREQ='NON',
                           MONO_APPUI = 'OUI',
                           EXCIT=_F( TRI_SPEC = 'OUI',
                                     SPEC_OSCI = ( SPECT_XY,  SPECT_XY,
                                                SPECT_XY, ),
                           ECHELLE = ( 1.,  1.,  0.5, )),
                           COMB_MODE=_F(  TYPE = 'SRSS'),
                           COMB_DIRECTION=_F(  TYPE = 'QUAD'),
                           OPTION=( 'DEPL',  'EFGE_ELNO',
                                      'REAC_NODA', )
                            )


TEST_RESU(RESU=(_F(RESULTAT=SISM_SPE,
                   NOM_CHAM='DEPL',
                   NOEUD='N300',
                   NOM_CMP='DX',
                   VALE_CALC=4.8449312048525E-03,
                   VALE_REFE=4.8469999999999997E-3,
                   REFERENCE = 'ANALYTIQUE',
                   PRECISION=1.E-3,
                   NOEUD_CMP=('COMBI', 'QUAD'),),
                _F(NUME_ORDRE=4,
                   RESULTAT=SISM_SPE,
                   NOM_CHAM='DEPL',
                   NOEUD='N300',
                   NOM_CMP='DY',
                   VALE_CALC=2.191360935879E-03,
                   VALE_REFE=2.1919999999999999E-3,
                   REFERENCE = 'ANALYTIQUE',
                   PRECISION=1.E-3,),
                _F(RESULTAT=SISM_SPE,
                   NOM_CHAM='DEPL',
                   NOEUD='N300',
                   NOM_CMP='DZ',
                   VALE_CALC=2.7341500281281E-06,
                   VALE_REFE=2.7350000000000001E-06,
                   REFERENCE = 'ANALYTIQUE',
                   PRECISION=1.E-3,
                   NOEUD_CMP=('COMBI', 'QUAD'),),
                _F(RESULTAT=SISM_SPE,
                   NOM_CHAM='DEPL',
                   NOEUD='N500',
                   NOM_CMP='DX',
                   VALE_CALC=4.8062588510258E-03,
                   VALE_REFE=4.8079999999999998E-3,
                   REFERENCE = 'ANALYTIQUE',
                   PRECISION=1.E-3,
                   NOEUD_CMP=('COMBI', 'QUAD'),),
                _F(RESULTAT=SISM_SPE,
                   NOM_CHAM='DEPL',
                   NOEUD='N500',
                   NOM_CMP='DY',
                   VALE_CALC=2.9130843515835E-03,
                   VALE_REFE=2.9139999999999999E-3,
                   REFERENCE = 'ANALYTIQUE',
                   PRECISION=1.E-3,
                   NOEUD_CMP=('COMBI', 'QUAD'),),
                _F(RESULTAT=SISM_SPE,
                   NOM_CHAM='DEPL',
                   NOEUD='N500',
                   NOM_CMP='DZ',
                   VALE_CALC=6.5047906977535E-04,
                   VALE_REFE=6.5070000000000004E-4,
                   REFERENCE = 'ANALYTIQUE',
                   PRECISION=1.E-3,
                   NOEUD_CMP=('COMBI', 'QUAD'),),
                _F(RESULTAT=SISM_SPE,
                   NOM_CHAM='DEPL',
                   NOEUD='N700',
                   NOM_CMP='DX',
                   VALE_CALC=3.5866408095593E-03,
                   VALE_REFE=3.588E-3,
                   REFERENCE = 'ANALYTIQUE',
                   PRECISION=1.E-3,
                   NOEUD_CMP=('COMBI', 'QUAD'),),
                _F(RESULTAT=SISM_SPE,
                   NOM_CHAM='DEPL',
                   NOEUD='N700',
                   NOM_CMP='DY',
                   VALE_CALC=2.91238915622E-03,
                   VALE_REFE=2.9139999999999999E-3,
                   REFERENCE = 'ANALYTIQUE',
                   PRECISION=1.E-3,
                   NOEUD_CMP=('COMBI', 'QUAD'),),
                _F(RESULTAT=SISM_SPE,
                   NOM_CHAM='DEPL',
                   NOEUD='N700',
                   NOM_CMP='DZ',
                   VALE_CALC=8.5959508739068E-04,
                   VALE_REFE=8.5990000000000003E-4,
                   REFERENCE = 'ANALYTIQUE',
                   PRECISION=1.E-3,
                   NOEUD_CMP=('COMBI', 'QUAD'),),
                _F(RESULTAT=SISM_SPE,
                   NOM_CHAM='DEPL',
                   NOEUD='N900',
                   NOM_CMP='DX',
                   VALE_CALC=2.3415022604844E-03,
                   VALE_REFE=2.3419999999999999E-3,
                   REFERENCE = 'ANALYTIQUE',
                   PRECISION=1.E-3,
                   NOEUD_CMP=('COMBI', 'QUAD'),),
                _F(RESULTAT=SISM_SPE,
                   NOM_CHAM='DEPL',
                   NOEUD='N900',
                   NOM_CMP='DY',
                   VALE_CALC=2.9114097088766E-03,
                   VALE_REFE=2.9129999999999998E-3,
                   REFERENCE = 'ANALYTIQUE',
                   PRECISION=1.E-3,
                   NOEUD_CMP=('COMBI', 'QUAD'),),
                _F(RESULTAT=SISM_SPE,
                   NOM_CHAM='DEPL',
                   NOEUD='N900',
                   NOM_CMP='DZ',
                   VALE_CALC=1.0261332933536E-03,
                   VALE_REFE=1.0269999999999999E-3,
                   REFERENCE = 'ANALYTIQUE',
                   PRECISION=1.E-3,
                   NOEUD_CMP=('COMBI', 'QUAD'),),
                _F(RESULTAT=SISM_SPE,
                   NOM_CHAM='DEPL',
                   NOEUD='N1100',
                   NOM_CMP='DX',
                   VALE_CALC=3.0075054665013E-06,
                   VALE_REFE=3.0089999999999999E-06,
                   REFERENCE = 'ANALYTIQUE',
                   PRECISION=1.E-3,
                   NOEUD_CMP=('COMBI', 'QUAD'),),
                _F(RESULTAT=SISM_SPE,
                   NOM_CHAM='DEPL',
                   NOEUD='N1100',
                   NOM_CMP='DY',
                   VALE_CALC=9.3710969982804E-04,
                   VALE_REFE=9.3749999999999997E-4,
                   REFERENCE = 'ANALYTIQUE',
                   PRECISION=1.E-3,
                   NOEUD_CMP=('COMBI', 'QUAD'),),
                _F(RESULTAT=SISM_SPE,
                   NOM_CHAM='DEPL',
                   NOEUD='N1100',
                   NOM_CMP='DZ',
                   VALE_CALC=3.3621127605473E-04,
                   VALE_REFE=3.3639999999999999E-4,
                   REFERENCE = 'ANALYTIQUE',
                   PRECISION=1.E-3,
                   NOEUD_CMP=('COMBI', 'QUAD'),),
                ),
          )

TEST_RESU(RESU=(_F(RESULTAT=SISM_SPE,
                   NOM_CHAM='REAC_NODA',
                   NOEUD='N100',
                   NOM_CMP='DX',
                   VALE_CALC=2130.8075188378,
                   VALE_REFE=2132.0,
                   REFERENCE = 'ANALYTIQUE',
                   PRECISION=1.E-3,
                   NOEUD_CMP=('COMBI', 'QUAD'),),
                _F(RESULTAT=SISM_SPE,
                   NOM_CHAM='REAC_NODA',
                   NOEUD='N100',
                   NOM_CMP='DY',
                   VALE_CALC=1240.2453353889,
                   VALE_REFE=1241.0,
                   REFERENCE = 'ANALYTIQUE',
                   PRECISION=1.E-3,
                   NOEUD_CMP=('COMBI', 'QUAD'),),
                _F(RESULTAT=SISM_SPE,
                   NOM_CHAM='REAC_NODA',
                   NOEUD='N100',
                   NOM_CMP='DZ',
                   VALE_CALC=564.33317014461,
                   VALE_REFE=564.60000000000002,
                   REFERENCE = 'ANALYTIQUE',
                   PRECISION=1.E-3,
                   NOEUD_CMP=('COMBI', 'QUAD'),),
                _F(RESULTAT=SISM_SPE,
                   NOM_CHAM='REAC_NODA',
                   NOEUD='N100',
                   NOM_CMP='DRX',
                   VALE_CALC=2351.2710093412,
                   VALE_REFE=2352.0,
                   REFERENCE = 'ANALYTIQUE',
                   PRECISION=1.E-3,
                   NOEUD_CMP=('COMBI', 'QUAD'),),
                _F(RESULTAT=SISM_SPE,
                   NOM_CHAM='REAC_NODA',
                   NOEUD='N100',
                   NOM_CMP='DRY',
                   VALE_CALC=4744.2758983442,
                   VALE_REFE=4746.0,
                   REFERENCE = 'ANALYTIQUE',
                   PRECISION=1.E-3,
                   NOEUD_CMP=('COMBI', 'QUAD'),),
                _F(RESULTAT=SISM_SPE,
                   NOM_CHAM='REAC_NODA',
                   NOEUD='N100',
                   NOM_CMP='DRZ',
                   VALE_CALC=936.91671177706,
                   VALE_REFE=937.29999999999995,
                   REFERENCE = 'ANALYTIQUE',
                   PRECISION=1.E-3,
                   NOEUD_CMP=('COMBI', 'QUAD'),),
                _F(RESULTAT=SISM_SPE,
                   NOM_CHAM='REAC_NODA',
                   NOEUD='N1500',
                   NOM_CMP='DX',
                   VALE_CALC=1652.2402486252,
                   VALE_REFE=1653.0,
                   REFERENCE = 'ANALYTIQUE',
                   PRECISION=1.E-3,
                   NOEUD_CMP=('COMBI', 'QUAD'),),
                _F(RESULTAT=SISM_SPE,
                   NOM_CHAM='REAC_NODA',
                   NOEUD='N1500',
                   NOM_CMP='DY',
                   VALE_CALC=3352.193653602,
                   VALE_REFE=3354.0,
                   REFERENCE = 'ANALYTIQUE',
                   PRECISION=1.E-3,
                   NOEUD_CMP=('COMBI', 'QUAD'),),
                _F(RESULTAT=SISM_SPE,
                   NOM_CHAM='REAC_NODA',
                   NOEUD='N1500',
                   NOM_CMP='DZ',
                   VALE_CALC=893.34422021589,
                   VALE_REFE=893.70000000000005,
                   REFERENCE = 'ANALYTIQUE',
                   PRECISION=1.E-3,
                   NOEUD_CMP=('COMBI', 'QUAD'),),
                _F(RESULTAT=SISM_SPE,
                   NOM_CHAM='REAC_NODA',
                   NOEUD='N1500',
                   NOM_CMP='DRX',
                   VALE_CALC=170.74409115573,
                   VALE_REFE=170.80000000000001,
                   REFERENCE = 'ANALYTIQUE',
                   PRECISION=1.E-3,
                   NOEUD_CMP=('COMBI', 'QUAD'),),
                _F(RESULTAT=SISM_SPE,
                   NOM_CHAM='REAC_NODA',
                   NOEUD='N1500',
                   NOM_CMP='DRY',
                   VALE_CALC=1667.7102871828,
                   VALE_REFE=1668.0,
                   REFERENCE = 'ANALYTIQUE',
                   PRECISION=1.E-3,
                   NOEUD_CMP=('COMBI', 'QUAD'),),
                _F(RESULTAT=SISM_SPE,
                   NOM_CHAM='REAC_NODA',
                   NOEUD='N1500',
                   NOM_CMP='DRZ',
                   VALE_CALC=4900.6238683482,
                   VALE_REFE=4903.0,
                   REFERENCE = 'ANALYTIQUE',
                   PRECISION=1.E-3,
                   NOEUD_CMP=('COMBI', 'QUAD'),),
                ),
          )

TEST_RESU(RESU=(_F(RESULTAT=SISM_SPE,
                   NOM_CHAM='EFGE_ELNO',
                   NOEUD='N300',
                   NOM_CMP='N',
                   VALE_CALC=559.86214966882,
                   VALE_REFE=559.89999999999998,
                   REFERENCE = 'ANALYTIQUE',
                   PRECISION=1.E-3,
                   NOEUD_CMP=('COMBI', 'QUAD'),
                   MAILLE='E2',),
                _F(RESULTAT=SISM_SPE,
                   NOM_CHAM='EFGE_ELNO',
                   NOEUD='N300',
                   NOM_CMP='VY',
                   VALE_CALC=430.75559131583,
                   VALE_REFE=430.80000000000001,
                   REFERENCE = 'ANALYTIQUE',
                   PRECISION=1.E-3,
                   NOEUD_CMP=('COMBI', 'QUAD'),
                   MAILLE='E2',),
                _F(RESULTAT=SISM_SPE,
                   NOM_CHAM='EFGE_ELNO',
                   NOEUD='N300',
                   NOM_CMP='VZ',
                   VALE_CALC=914.88432680659,
                   VALE_REFE=914.89999999999998,
                   REFERENCE = 'ANALYTIQUE',
                   PRECISION=1.E-3,
                   NOEUD_CMP=('COMBI', 'QUAD'),
                   MAILLE='E2',),
                _F(RESULTAT=SISM_SPE,
                   NOM_CHAM='EFGE_ELNO',
                   NOEUD='N300',
                   NOM_CMP='MT',
                   VALE_CALC=932.50566089224,
                   VALE_REFE=932.5,
                   REFERENCE = 'ANALYTIQUE',
                   PRECISION=1.E-3,
                   NOEUD_CMP=('COMBI', 'QUAD'),
                   MAILLE='E2',),
                _F(RESULTAT=SISM_SPE,
                   NOM_CHAM='EFGE_ELNO',
                   NOEUD='N300',
                   NOM_CMP='MFY',
                   VALE_CALC=587.3483668775,
                   VALE_REFE=587.29999999999995,
                   REFERENCE = 'ANALYTIQUE',
                   PRECISION=1.E-3,
                   NOEUD_CMP=('COMBI', 'QUAD'),
                   MAILLE='E2',),
                _F(RESULTAT=SISM_SPE,
                   NOM_CHAM='EFGE_ELNO',
                   NOEUD='N300',
                   NOM_CMP='MFZ',
                   VALE_CALC=620.36542755141,
                   VALE_REFE=620.39999999999998,
                   REFERENCE = 'ANALYTIQUE',
                   PRECISION=1.E-3,
                   NOEUD_CMP=('COMBI', 'QUAD'),
                   MAILLE='E2',),
                _F(RESULTAT=SISM_SPE,
                   NOM_CHAM='EFGE_ELNO',
                   NOEUD='N700',
                   NOM_CMP='N',
                   VALE_CALC=1624.8357636688,
                   VALE_REFE=1625.0,
                   REFERENCE = 'ANALYTIQUE',
                   PRECISION=1.E-3,
                   NOEUD_CMP=('COMBI', 'QUAD'),
                   MAILLE='E7',),
                _F(RESULTAT=SISM_SPE,
                   NOM_CHAM='EFGE_ELNO',
                   NOEUD='N700',
                   NOM_CMP='VY',
                   VALE_CALC=1367.0416468893,
                   VALE_REFE=1367.0,
                   REFERENCE = 'ANALYTIQUE',
                   PRECISION=1.E-3,
                   NOEUD_CMP=('COMBI', 'QUAD'),
                   MAILLE='E7',),
                _F(RESULTAT=SISM_SPE,
                   NOM_CHAM='EFGE_ELNO',
                   NOEUD='N700',
                   NOM_CMP='VZ',
                   VALE_CALC=225.37818210769,
                   VALE_REFE=225.40000000000001,
                   REFERENCE = 'ANALYTIQUE',
                   PRECISION=1.E-3,
                   NOEUD_CMP=('COMBI', 'QUAD'),
                   MAILLE='E7',),
                _F(RESULTAT=SISM_SPE,
                   NOM_CHAM='EFGE_ELNO',
                   NOEUD='N700',
                   NOM_CMP='MT',
                   VALE_CALC=649.57788162155,
                   VALE_REFE=649.60000000000002,
                   REFERENCE = 'ANALYTIQUE',
                   PRECISION=1.E-3,
                   NOEUD_CMP=('COMBI', 'QUAD'),
                   MAILLE='E7',),
                _F(RESULTAT=SISM_SPE,
                   NOM_CHAM='EFGE_ELNO',
                   NOEUD='N700',
                   NOM_CMP='MFY',
                   VALE_CALC=499.8220535878,
                   VALE_REFE=499.80000000000001,
                   REFERENCE = 'ANALYTIQUE',
                   PRECISION=1.E-3,
                   NOEUD_CMP=('COMBI', 'QUAD'),
                   MAILLE='E7',),
                _F(RESULTAT=SISM_SPE,
                   NOM_CHAM='EFGE_ELNO',
                   NOEUD='N700',
                   NOM_CMP='MFZ',
                   VALE_CALC=908.6695301894,
                   VALE_REFE=908.70000000000005,
                   REFERENCE = 'ANALYTIQUE',
                   PRECISION=1.E-3,
                   NOEUD_CMP=('COMBI', 'QUAD'),
                   MAILLE='E7',),
                _F(RESULTAT=SISM_SPE,
                   NOM_CHAM='EFGE_ELNO',
                   NOEUD='N1100',
                   NOM_CMP='N',
                   VALE_CALC=1651.6631350863,
                   VALE_REFE=1652.0,
                   REFERENCE = 'ANALYTIQUE',
                   PRECISION=1.E-3,
                   NOEUD_CMP=('COMBI', 'QUAD'),
                   MAILLE='E11',),
                _F(RESULTAT=SISM_SPE,
                   NOM_CHAM='EFGE_ELNO',
                   NOEUD='N1100',
                   NOM_CMP='VY',
                   VALE_CALC=3176.775704817,
                   VALE_REFE=3177.0,
                   REFERENCE = 'ANALYTIQUE',
                   PRECISION=1.E-3,
                   NOEUD_CMP=('COMBI', 'QUAD'),
                   MAILLE='E11',),
                _F(RESULTAT=SISM_SPE,
                   NOM_CHAM='EFGE_ELNO',
                   NOEUD='N1100',
                   NOM_CMP='VZ',
                   VALE_CALC=795.67684188906,
                   VALE_REFE=795.70000000000005,
                   REFERENCE = 'ANALYTIQUE',
                   PRECISION=1.E-3,
                   NOEUD_CMP=('COMBI', 'QUAD'),
                   MAILLE='E11',),
                _F(RESULTAT=SISM_SPE,
                   NOM_CHAM='EFGE_ELNO',
                   NOEUD='N1100',
                   NOM_CMP='MT',
                   VALE_CALC=170.64527643038,
                   VALE_REFE=170.59999999999999,
                   REFERENCE = 'ANALYTIQUE',
                   PRECISION=1.E-3,
                   NOEUD_CMP=('COMBI', 'QUAD'),
                   MAILLE='E11',),
                _F(RESULTAT=SISM_SPE,
                   NOM_CHAM='EFGE_ELNO',
                   NOEUD='N1100',
                   NOM_CMP='MFY',
                   VALE_CALC=924.69652736032,
                   VALE_REFE=924.70000000000005,
                   REFERENCE = 'ANALYTIQUE',
                   PRECISION=1.E-3,
                   NOEUD_CMP=('COMBI', 'QUAD'),
                   MAILLE='E11',),
                _F(RESULTAT=SISM_SPE,
                   NOM_CHAM='EFGE_ELNO',
                   NOEUD='N1100',
                   NOM_CMP='MFZ',
                   VALE_CALC=2150.2861533472,
                   VALE_REFE=2150.0,
                   REFERENCE = 'ANALYTIQUE',
                   PRECISION=1.E-3,
                   NOEUD_CMP=('COMBI', 'QUAD'),
                   MAILLE='E11',),
                ),
          )

# ----------------------------------------------------------------------
#      COMPARAISON AVEC POUX, POUR VALIDER L'OPTION CORR_FREQ
# ----------------------------------------------------------------------

SISM_SIS=COMB_SISM_MODAL(  MODE_MECA=MODE_DIA,
                           AMOR_REDUIT=0.02,
                           CORR_FREQ='OUI',
                           MASS_INER=TABL_MAS,
                           MONO_APPUI = 'OUI',
                           EXCIT=_F( TRI_SPEC = 'OUI',
                                     SPEC_OSCI = ( SPECT_XY,  SPECT_XY,
                                                SPECT_Z,  ),
                                     ECHELLE = ( 1.,  1.,  1., )),
                           COMB_MODE=_F(  TYPE = 'SRSS'),
                           COMB_DIRECTION=_F(  TYPE = 'QUAD'),
                           OPTION=( 'DEPL',  'EFGE_ELNO',
                                      'REAC_NODA', )
                            )

TEST_RESU(RESU=(_F(RESULTAT=SISM_SIS,
                   NOM_CHAM='DEPL',
                   NOEUD='N300',
                   NOM_CMP='DX',
                   VALE_CALC=4.8468699761877E-03,
                   VALE_REFE=4.8469999999999997E-3,
                   REFERENCE = 'ANALYTIQUE',
                   PRECISION=1.E-3,
                   NOEUD_CMP=('COMBI', 'QUAD'),),
                _F(RESULTAT=SISM_SIS,
                   NOM_CHAM='DEPL',
                   NOEUD='N300',
                   NOM_CMP='DY',
                   VALE_CALC=2.1922378544307E-03,
                   VALE_REFE=2.1919999999999999E-3,
                   REFERENCE = 'ANALYTIQUE',
                   PRECISION=1.E-3,
                   NOEUD_CMP=('COMBI', 'QUAD'),),
                _F(RESULTAT=SISM_SIS,
                   NOM_CHAM='DEPL',
                   NOEUD='N700',
                   NOM_CMP='DX',
                   VALE_CALC=3.5880760967768E-03,
                   VALE_REFE=3.588E-3,
                   REFERENCE = 'ANALYTIQUE',
                   PRECISION=1.E-3,
                   NOEUD_CMP=('COMBI', 'QUAD'),),
                _F(RESULTAT=SISM_SIS,
                   NOM_CHAM='DEPL',
                   NOEUD='N700',
                   NOM_CMP='DY',
                   VALE_CALC=2.9135545847103E-03,
                   VALE_REFE=2.9139999999999999E-3,
                   REFERENCE = 'ANALYTIQUE',
                   PRECISION=1.E-3,
                   NOEUD_CMP=('COMBI', 'QUAD'),),
                _F(RESULTAT=SISM_SIS,
                   NOM_CHAM='DEPL',
                   NOEUD='N700',
                   NOM_CMP='DRY',
                   VALE_CALC=1.4361405298619E-03,
                   VALE_REFE=1.436E-3,
                   REFERENCE = 'ANALYTIQUE',
                   PRECISION=1.E-3,
                   NOEUD_CMP=('COMBI', 'QUAD'),),
                _F(RESULTAT=SISM_SIS,
                   NOM_CHAM='REAC_NODA',
                   NOEUD='N100',
                   NOM_CMP='DX',
                   VALE_CALC=2131.6638382116,
                   VALE_REFE=2132.0,
                   REFERENCE = 'ANALYTIQUE',
                   PRECISION=1.E-3,
                   NOEUD_CMP=('COMBI', 'QUAD'),),
                _F(RESULTAT=SISM_SIS,
                   NOM_CHAM='REAC_NODA',
                   NOEUD='N100',
                   NOM_CMP='DY',
                   VALE_CALC=1240.7458202091,
                   VALE_REFE=1241.0,
                   REFERENCE = 'ANALYTIQUE',
                   PRECISION=1.E-3,
                   NOEUD_CMP=('COMBI', 'QUAD'),),
                _F(RESULTAT=SISM_SIS,
                   NOM_CHAM='REAC_NODA',
                   NOEUD='N100',
                   NOM_CMP='DZ',
                   VALE_CALC=564.559722706,
                   VALE_REFE=564.60000000000002,
                   REFERENCE = 'ANALYTIQUE',
                   PRECISION=1.E-3,
                   NOEUD_CMP=('COMBI', 'QUAD'),),
                _F(RESULTAT=SISM_SIS,
                   NOM_CHAM='REAC_NODA',
                   NOEUD='N1500',
                   NOM_CMP='DRX',
                   VALE_CALC=170.81280560099,
                   VALE_REFE=170.80000000000001,
                   REFERENCE = 'ANALYTIQUE',
                   PRECISION=1.E-3,
                   NOEUD_CMP=('COMBI', 'QUAD'),),
                _F(RESULTAT=SISM_SIS,
                   NOM_CHAM='REAC_NODA',
                   NOEUD='N1500',
                   NOM_CMP='DRY',
                   VALE_CALC=1668.3786192251,
                   VALE_REFE=1668.0,
                   REFERENCE = 'ANALYTIQUE',
                   PRECISION=1.E-3,
                   NOEUD_CMP=('COMBI', 'QUAD'),),
                _F(RESULTAT=SISM_SIS,
                   NOM_CHAM='REAC_NODA',
                   NOEUD='N1500',
                   NOM_CMP='DRZ',
                   VALE_CALC=4902.5852980978,
                   VALE_REFE=4903.0,
                   REFERENCE = 'ANALYTIQUE',
                   PRECISION=1.E-3,
                   NOEUD_CMP=('COMBI', 'QUAD'),),
                _F(RESULTAT=SISM_SIS,
                   NOM_CHAM='EFGE_ELNO',
                   NOEUD='N100',
                   NOM_CMP='N',
                   VALE_CALC=564.559722706,
                   VALE_REFE=564.60000000000002,
                   REFERENCE = 'ANALYTIQUE',
                   PRECISION=1.E-3,
                   NOEUD_CMP=('COMBI', 'QUAD'),
                   MAILLE='E1',),
                _F(RESULTAT=SISM_SIS,
                   NOM_CHAM='EFGE_ELNO',
                   NOEUD='N100',
                   NOM_CMP='VY',
                   VALE_CALC=1240.7458202091,
                   VALE_REFE=1241.0,
                   REFERENCE = 'ANALYTIQUE',
                   PRECISION=1.E-3,
                   NOEUD_CMP=('COMBI', 'QUAD'),
                   MAILLE='E1',),
                _F(RESULTAT=SISM_SIS,
                   NOM_CHAM='EFGE_ELNO',
                   NOEUD='N100',
                   NOM_CMP='VZ',
                   VALE_CALC=2131.6638382116,
                   VALE_REFE=2132.0,
                   REFERENCE = 'ANALYTIQUE',
                   PRECISION=1.E-3,
                   NOEUD_CMP=('COMBI', 'QUAD'),
                   MAILLE='E1',),
                _F(RESULTAT=SISM_SIS,
                   NOM_CHAM='EFGE_ELNO',
                   NOEUD='N200',
                   NOM_CMP='MT',
                   VALE_CALC=936.18632627895,
                   VALE_REFE=936.20000000000005,
                   REFERENCE = 'ANALYTIQUE',
                   PRECISION=1.E-3,
                   NOEUD_CMP=('COMBI', 'QUAD'),
                   MAILLE='E1',),
                _F(RESULTAT=SISM_SIS,
                   NOM_CHAM='EFGE_ELNO',
                   NOEUD='N200',
                   NOM_CMP='MFY',
                   VALE_CALC=1857.4864186328,
                   VALE_REFE=1857.0,
                   REFERENCE = 'ANALYTIQUE',
                   PRECISION=1.E-3,
                   NOEUD_CMP=('COMBI', 'QUAD'),
                   MAILLE='E1',),
                _F(RESULTAT=SISM_SIS,
                   NOM_CHAM='EFGE_ELNO',
                   NOEUD='N200',
                   NOM_CMP='MFZ',
                   VALE_CALC=759.55789773499,
                   VALE_REFE=759.60000000000002,
                   REFERENCE = 'ANALYTIQUE',
                   PRECISION=1.E-3,
                   NOEUD_CMP=('COMBI', 'QUAD'),
                   MAILLE='E1',),
                _F(RESULTAT=SISM_SIS,
                   NOM_CHAM='EFGE_ELNO',
                   NOEUD='N1000',
                   NOM_CMP='N',
                   VALE_CALC=2454.3367867424,
                   VALE_REFE=2454.0,
                   REFERENCE = 'ANALYTIQUE',
                   PRECISION=1.E-3,
                   NOEUD_CMP=('COMBI', 'QUAD'),
                   MAILLE='E10',),
                _F(RESULTAT=SISM_SIS,
                   NOM_CHAM='EFGE_ELNO',
                   NOEUD='N1000',
                   NOM_CMP='VY',
                   VALE_CALC=1997.469254526,
                   VALE_REFE=1997.0,
                   REFERENCE = 'ANALYTIQUE',
                   PRECISION=1.E-3,
                   NOEUD_CMP=('COMBI', 'QUAD'),
                   MAILLE='E10',),
                _F(RESULTAT=SISM_SIS,
                   NOM_CHAM='EFGE_ELNO',
                   NOEUD='N1000',
                   NOM_CMP='VZ',
                   VALE_CALC=504.95967897754,
                   VALE_REFE=505.0,
                   REFERENCE = 'ANALYTIQUE',
                   PRECISION=1.E-3,
                   NOEUD_CMP=('COMBI', 'QUAD'),
                   MAILLE='E10',),
                _F(RESULTAT=SISM_SIS,
                   NOM_CHAM='EFGE_ELNO',
                   NOEUD='N1100',
                   NOM_CMP='MT',
                   VALE_CALC=170.62725862357,
                   VALE_REFE=170.59999999999999,
                   REFERENCE = 'ANALYTIQUE',
                   PRECISION=1.E-3,
                   NOEUD_CMP=('COMBI', 'QUAD'),
                   MAILLE='E10',),
                _F(RESULTAT=SISM_SIS,
                   NOM_CHAM='EFGE_ELNO',
                   NOEUD='N1100',
                   NOM_CMP='MFY',
                   VALE_CALC=925.08257298996,
                   VALE_REFE=925.10000000000002,
                   REFERENCE = 'ANALYTIQUE',
                   PRECISION=1.E-3,
                   NOEUD_CMP=('COMBI', 'QUAD'),
                   MAILLE='E10',),
                _F(RESULTAT=SISM_SIS,
                   NOM_CHAM='EFGE_ELNO',
                   NOEUD='N1100',
                   NOM_CMP='MFZ',
                   VALE_CALC=2151.146726403,
                   VALE_REFE=2151.0,
                   REFERENCE = 'ANALYTIQUE',
                   PRECISION=1.E-3,
                   NOEUD_CMP=('COMBI', 'QUAD'),
                   MAILLE='E10',),
                ),
          )

#

FIN( )
