# TITRE CALCUL DES FREQUENCES PROPRES D'UNE POUTRE ARTICULEE
#            CONFIGURATION MANAGEMENT OF EDF VERSION
# ======================================================================
# COPYRIGHT (C) 1991 - 2013  EDF R&D                  WWW.CODE-ASTER.ORG
# THIS PROGRAM IS FREE SOFTWARE; YOU CAN REDISTRIBUTE IT AND/OR MODIFY
# IT UNDER THE TERMS OF THE GNU GENERAL PUBLIC LICENSE AS PUBLISHED BY
# THE FREE SOFTWARE FOUNDATION; EITHER VERSION 2 OF THE LICENSE, OR
# (AT YOUR OPTION) ANY LATER VERSION.
#
# THIS PROGRAM IS DISTRIBUTED IN THE HOPE THAT IT WILL BE USEFUL, BUT
# WITHOUT ANY WARRANTY; WITHOUT EVEN THE IMPLIED WARRANTY OF
# MERCHANTABILITY OR FITNESS FOR A PARTICULAR PURPOSE. SEE THE GNU
# GENERAL PUBLIC LICENSE FOR MORE DETAILS.
#
# YOU SHOULD HAVE RECEIVED A COPY OF THE GNU GENERAL PUBLIC LICENSE
# ALONG WITH THIS PROGRAM; IF NOT, WRITE TO EDF R&D CODE_ASTER,
#    1 AVENUE DU GENERAL DE GAULLE, 92141 CLAMART CEDEX, FRANCE.
# ======================================================================
# ELEMENTS  : MECAPOUD_E
# REFERENCE : ANALYTIQUE

DEBUT(CODE=_F( NOM = 'SDLX400A',NIV_PUB_WEB='INTERNET'))

ACIER=DEFI_MATERIAU(
                         ELAS=_F(  RHO = 2400.,
                           NU = 0.,
                           E = 6.7E10))

MAYA=LIRE_MAILLAGE( )

MATER=AFFE_MATERIAU(    MAILLAGE=MAYA,
                                 AFFE=_F(  GROUP_MA = 'GROUP_MA_POUTRE',
                                        MATER = ACIER))

STRUC_1=AFFE_MODELE(    MAILLAGE=MAYA,
                               AFFE=_F(  GROUP_MA = 'GROUP_MA_POUTRE',
                                      MODELISATION = 'POU_D_E',
                                      PHENOMENE = 'MECANIQUE'))

CARA_1=AFFE_CARA_ELEM(      MODELE=STRUC_1,
                                POUTRE=_F(
                            GROUP_MA = 'GROUP_MA_POUTRE',
                            SECTION = 'RECTANGLE',
                            CARA = ( 'HY',  'HZ', ),
                            VALE = ( 0.014,  0.014,  ))
                          )

FIXA_1=AFFE_CHAR_MECA(      MODELE=STRUC_1,DDL_IMPO=(
                              _F(  GROUP_NO = 'GROUP_NO_POINT_A',
                                               DX = 0.,
                                               DY = 0.),
                                       _F(  GROUP_NO = 'GROUP_NO_TOUT',
                                               DZ = 0.,
                                              DRX = 0.,
                                              DRY = 0.))
                          )

# CALCUL DES MATRICES ELEMENTAIRES DE RIGIDITE ET DE MASSE

K_EL_1=CALC_MATR_ELEM(        MODELE=STRUC_1,
                                 CARA_ELEM=CARA_1,
                                    CHARGE=FIXA_1,
                                CHAM_MATER=MATER,
                                   OPTION='RIGI_MECA' )

M_EL_1=CALC_MATR_ELEM(        MODELE=STRUC_1,
                                 CARA_ELEM=CARA_1,
                                    CHARGE=FIXA_1,
                                CHAM_MATER=MATER,
                                   OPTION='MASS_MECA' )

# NUMEROTATION

NUMERO_1=NUME_DDL(    MATR_RIGI=K_EL_1 )

# ASSEMBLAGE DES MATRICES DE RIGIDITE ET DE MASSE


K_AS_1=ASSE_MATRICE(    MATR_ELEM=K_EL_1,
                             NUME_DDL=NUMERO_1)

M_AS_1=ASSE_MATRICE(    MATR_ELEM=M_EL_1,
                             NUME_DDL=NUMERO_1 )

# CALCUL DES MODES PAR SORENSEN + BANDE

MODE_A_1=MODE_ITER_SIMULT(       MATR_RIGI=K_AS_1,
                                   MATR_MASS=M_AS_1,
                               CALC_FREQ=_F(  OPTION = 'BANDE',
                                           FREQ = ( 10.,  2000., )))


TEST_RESU(RESU=(_F(PARA='FREQ',
                   NUME_MODE=2,
                   REFERENCE='ANALYTIQUE',
                   RESULTAT=MODE_A_1,
                   VALE_CALC=85.468622725,
                   VALE_REFE=85.5,
                   CRITERE='RELATIF',
                   PRECISION=1.E-3,),
                _F(PARA='FREQ',
                   NUME_MODE=3,
                   REFERENCE='ANALYTIQUE',
                   RESULTAT=MODE_A_1,
                   VALE_CALC=277.014981159,
                   VALE_REFE=277.0,
                   CRITERE='RELATIF',
                   PRECISION=1.E-3,),
                _F(PARA='FREQ',
                   NUME_MODE=4,
                   REFERENCE='ANALYTIQUE',
                   RESULTAT=MODE_A_1,
                   VALE_CALC=578.283946285,
                   VALE_REFE=577.89999999999998,
                   CRITERE='RELATIF',
                   PRECISION=1.E-3,),
                _F(PARA='FREQ',
                   NUME_MODE=5,
                   REFERENCE='ANALYTIQUE',
                   RESULTAT=MODE_A_1,
                   VALE_CALC=990.189596128,
                   VALE_REFE=988.20000000000005,
                   CRITERE='RELATIF',
                   PRECISION=3.0000000000000001E-3,),
                _F(PARA='FREQ',
                   NUME_MODE=6,
                   REFERENCE='ANALYTIQUE',
                   RESULTAT=MODE_A_1,
                   VALE_CALC= 1.51475582E+03,
                   VALE_REFE=1507.9000000000001,
                   CRITERE='RELATIF',
                   PRECISION=5.0000000000000001E-3,),
                ),
          )

# CALCUL DES MODES PAR JACOBI + BANDE

MODE_B_1=MODE_ITER_SIMULT(       MATR_RIGI=K_AS_1,
                                   MATR_MASS=M_AS_1,
                                  METHODE='JACOBI',
                               CALC_FREQ=_F(  OPTION = 'BANDE',
                                           FREQ = ( 10.,  2000., ),))


TEST_RESU(RESU=(_F(PARA='FREQ',
                   NUME_MODE=2,
                   REFERENCE='ANALYTIQUE',
                   RESULTAT=MODE_B_1,
                   VALE_CALC=85.468622725,
                   VALE_REFE=85.5,
                   CRITERE='RELATIF',
                   PRECISION=1.E-3,),
                _F(PARA='FREQ',
                   NUME_MODE=3,
                   REFERENCE='ANALYTIQUE',
                   RESULTAT=MODE_B_1,
                   VALE_CALC=277.014981159,
                   VALE_REFE=277.0,
                   CRITERE='RELATIF',
                   PRECISION=1.E-3,),
                _F(PARA='FREQ',
                   NUME_MODE=4,
                   REFERENCE='ANALYTIQUE',
                   RESULTAT=MODE_B_1,
                   VALE_CALC=578.283946285,
                   VALE_REFE=577.89999999999998,
                   CRITERE='RELATIF',
                   PRECISION=1.E-3,),
                _F(PARA='FREQ',
                   NUME_MODE=5,
                   REFERENCE='ANALYTIQUE',
                   RESULTAT=MODE_B_1,
                   VALE_CALC=990.189596128,
                   VALE_REFE=988.20000000000005,
                   CRITERE='RELATIF',
                   PRECISION=3.0000000000000001E-3,),
                _F(PARA='FREQ',
                   NUME_MODE=6,
                   REFERENCE='ANALYTIQUE',
                   RESULTAT=MODE_B_1,
                   VALE_CALC= 1.51475582E+03,
                   VALE_REFE=1507.9000000000001,
                   CRITERE='RELATIF',
                   PRECISION=5.0000000000000001E-3,),
                ),
          )

#------------------------------------------------------------------
#     CALCUL AVEC RESSORT
#------------------------------------------------------------------

STRUC_2=AFFE_MODELE(    MAILLAGE=MAYA,AFFE=(
                               _F(  GROUP_MA = 'GROUP_MA_POUTRE',
                                      MODELISATION = 'POU_D_E',
                                      PHENOMENE = 'MECANIQUE'),

                                    _F(  GROUP_MA = 'GROUP_MA_RESSORT',
                                      MODELISATION = 'DIS_TR',
                                      PHENOMENE = 'MECANIQUE')))

CARA_2=AFFE_CARA_ELEM(      MODELE=STRUC_2,
                                POUTRE=_F(
                            GROUP_MA = 'GROUP_MA_POUTRE',
                            SECTION = 'RECTANGLE',
                            CARA = ( 'HY',  'HZ', ),
                            VALE = ( 0.014,  0.014,  )),

                               DISCRET=(_F(
                            CARA = 'K_TR_D_N',
                            GROUP_MA = 'GROUP_MA_RESSORT',
                            REPERE = 'GLOBAL',
                  VALE = ( 0.,18000.,0.,0.,0.,0.,)),
                                          _F(
                            CARA = 'M_TR_D_N',
                            GROUP_MA = 'GROUP_MA_RESSORT',
                            REPERE = 'GLOBAL',
                  VALE = ( 0.,0.,0.,0.,0.,0.,0.,0.,0.,0.,)),)


                          )

FIXA_2=AFFE_CHAR_MECA(      MODELE=STRUC_2,DDL_IMPO=(
                              _F(  GROUP_NO = 'GROUP_NO_POINT_A',
                                               DX = 0.,
                                               DY = 0.),
                                       _F(  GROUP_NO = 'GROUP_NO_TOUT',
                                               DZ = 0.,
                                              DRX = 0.,
                                              DRY = 0.))
                          )

# CALCUL DES MATRICES ELEMENTAIRES DE RIGIDITE ET DE MASSE

K_EL_2=CALC_MATR_ELEM(        MODELE=STRUC_2,
                                 CARA_ELEM=CARA_2,
                                    CHARGE=FIXA_2,
                                CHAM_MATER=MATER,
                                   OPTION='RIGI_MECA' )

M_EL_2=CALC_MATR_ELEM(        MODELE=STRUC_2,
                                 CARA_ELEM=CARA_2,
                                    CHARGE=FIXA_2,
                                CHAM_MATER=MATER,
                                   OPTION='MASS_MECA' )

# NUMEROTATION

NUMERO_2=NUME_DDL(    MATR_RIGI=K_EL_2 )

# ASSEMBLAGE DES MATRICES DE RIGIDITE ET DE MASSE


K_AS_2=ASSE_MATRICE(    MATR_ELEM=K_EL_2,
                             NUME_DDL=NUMERO_2 )

M_AS_2=ASSE_MATRICE(    MATR_ELEM=M_EL_2,
                             NUME_DDL=NUMERO_2 )

# A - CALCUL DES MODES PAR SORENSEN + BANDE


MODE_A_2=MODE_ITER_SIMULT(       MATR_RIGI=K_AS_2,
                                   MATR_MASS=M_AS_2,
                               CALC_FREQ=_F(  OPTION = 'BANDE',
                                           FREQ = ( 10.,  2000., ),))


TEST_RESU(RESU=(_F(PARA='FREQ',
                   NUME_MODE=1,
                   REFERENCE='ANALYTIQUE',
                   RESULTAT=MODE_A_2,
                   VALE_CALC=43.090426897,
                   VALE_REFE=43.100000000000001,
                   CRITERE='RELATIF',
                   PRECISION=1.E-3,),
                _F(PARA='FREQ',
                   NUME_MODE=2,
                   REFERENCE='ANALYTIQUE',
                   RESULTAT=MODE_A_2,
                   VALE_CALC=115.367143318,
                   VALE_REFE=115.40000000000001,
                   CRITERE='RELATIF',
                   PRECISION=1.E-3,),
                _F(PARA='FREQ',
                   NUME_MODE=3,
                   REFERENCE='ANALYTIQUE',
                   RESULTAT=MODE_A_2,
                   VALE_CALC=286.582534135,
                   VALE_REFE=286.5,
                   CRITERE='RELATIF',
                   PRECISION=1.E-3,),
                _F(PARA='FREQ',
                   NUME_MODE=4,
                   REFERENCE='ANALYTIQUE',
                   RESULTAT=MODE_A_2,
                   VALE_CALC=582.699711671,
                   VALE_REFE=582.29999999999995,
                   CRITERE='RELATIF',
                   PRECISION=1.E-3,),
                _F(PARA='FREQ',
                   NUME_MODE=5,
                   REFERENCE='ANALYTIQUE',
                   RESULTAT=MODE_A_2,
                   VALE_CALC=992.743946446,
                   VALE_REFE=990.70000000000005,
                   CRITERE='RELATIF',
                   PRECISION=3.0000000000000001E-3,),
                _F(PARA='FREQ',
                   NUME_MODE=6,
                   REFERENCE='ANALYTIQUE',
                   RESULTAT=MODE_A_2,
                   VALE_CALC= 1.51643027E+03,
                   VALE_REFE=1509.5999999999999,
                   CRITERE='RELATIF',
                   PRECISION=5.0000000000000001E-3,),
                ),
          )

# B - CALCUL DES MODES PAR JACOBI + BANDE

MODE_B_2=MODE_ITER_SIMULT(       MATR_RIGI=K_AS_2,
                                   MATR_MASS=M_AS_2,
                                  METHODE='JACOBI',
                               CALC_FREQ=_F(  OPTION = 'BANDE',
                                           FREQ = ( 10.,  2000., ),))


TEST_RESU(RESU=(_F(PARA='FREQ',
                   NUME_MODE=1,
                   REFERENCE='ANALYTIQUE',
                   RESULTAT=MODE_B_2,
                   VALE_CALC=43.090426897,
                   VALE_REFE=43.100000000000001,
                   CRITERE='RELATIF',
                   PRECISION=1.E-3,),
                _F(PARA='FREQ',
                   NUME_MODE=2,
                   REFERENCE='ANALYTIQUE',
                   RESULTAT=MODE_B_2,
                   VALE_CALC=115.367143318,
                   VALE_REFE=115.40000000000001,
                   CRITERE='RELATIF',
                   PRECISION=1.E-3,),
                _F(PARA='FREQ',
                   NUME_MODE=3,
                   REFERENCE='ANALYTIQUE',
                   RESULTAT=MODE_B_2,
                   VALE_CALC=286.582534135,
                   VALE_REFE=286.5,
                   CRITERE='RELATIF',
                   PRECISION=1.E-3,),
                _F(PARA='FREQ',
                   NUME_MODE=4,
                   REFERENCE='ANALYTIQUE',
                   RESULTAT=MODE_B_2,
                   VALE_CALC=582.699711671,
                   VALE_REFE=582.29999999999995,
                   CRITERE='RELATIF',
                   PRECISION=1.E-3,),
                _F(PARA='FREQ',
                   NUME_MODE=5,
                   REFERENCE='ANALYTIQUE',
                   RESULTAT=MODE_B_2,
                   VALE_CALC=992.743946446,
                   VALE_REFE=990.70000000000005,
                   CRITERE='RELATIF',
                   PRECISION=3.0000000000000001E-3,),
                _F(PARA='FREQ',
                   NUME_MODE=6,
                   REFERENCE='ANALYTIQUE',
                   RESULTAT=MODE_B_2,
                   VALE_CALC= 1.51643027E+03,
                   VALE_REFE=1509.5999999999999,
                   CRITERE='RELATIF',
                   PRECISION=5.0000000000000001E-3,),
                ),
          )

#------------------------------------------------------------------
FIN()
#

