# TITRE PROBLEME DE HOVGAARD: CALCUL MODAL ET CALCUL SPECTRAL
# ======================================================================
# COPYRIGHT (C) 1991 - 2012  EDF R&D                  WWW.CODE-ASTER.ORG
# THIS PROGRAM IS FREE SOFTWARE; YOU CAN REDISTRIBUTE IT AND/OR MODIFY
# IT UNDER THE TERMS OF THE GNU GENERAL PUBLIC LICENSE AS PUBLISHED BY
# THE FREE SOFTWARE FOUNDATION; EITHER VERSION 2 OF THE LICENSE, OR
# (AT YOUR OPTION) ANY LATER VERSION.
#
# THIS PROGRAM IS DISTRIBUTED IN THE HOPE THAT IT WILL BE USEFUL, BUT
# WITHOUT ANY WARRANTY; WITHOUT EVEN THE IMPLIED WARRANTY OF
# MERCHANTABILITY OR FITNESS FOR A PARTICULAR PURPOSE. SEE THE GNU
# GENERAL PUBLIC LICENSE FOR MORE DETAILS.
#
# YOU SHOULD HAVE RECEIVED A COPY OF THE GNU GENERAL PUBLIC LICENSE
# ALONG WITH THIS PROGRAM; IF NOT, WRITE TO EDF R&D CODE_ASTER,
#    1 AVENUE DU GENERAL DE GAULLE, 92141 CLAMART CEDEX, FRANCE.
# ======================================================================
#

DEBUT(CODE=_F(NIV_PUB_WEB='INTERNET'), DEBUG=_F(SDVERI='OUI'))

MAILLAGE=LIRE_MAILLAGE(VERI_MAIL=_F(VERIF='OUI'),FORMAT='MED', )

MODELE=AFFE_MODELE(  MAILLAGE=MAILLAGE,AFFE=(
                  _F(  GROUP_MA = 'POU_D_T',  PHENOMENE = 'MECANIQUE',
                          MODELISATION = 'POU_D_E'),
                       _F(  GROUP_MA = 'POU_C_T',  PHENOMENE = 'MECANIQUE',
                         MODELISATION = 'POU_D_T'))                  )

#

MAT=DEFI_MATERIAU( ELAS=_F(  E = 1.658E+11,  RHO = 1.3404106E+04,
                                   NU = 0.3,  ALPHA = 1.288E-05)    )

CHAMPMAT=AFFE_MATERIAU(  MAILLAGE=MAILLAGE,
                            AFFE=_F(  TOUT = 'OUI',  MATER = MAT) )

COND_LIM=AFFE_CHAR_MECA(  MODELE=MODELE,
                         DDL_IMPO=_F(  GROUP_NO = ('P100', 'P1500',),
                                    DX = 0.,  DY = 0.,  DZ = 0.,
                                    DRX = 0.,  DRY = 0.,  DRZ = 0.)   )

#

CARA_ELE=AFFE_CARA_ELEM(  MODELE=MODELE,POUTRE=(
                  _F(  GROUP_MA = 'POU_D_T',   SECTION = 'GENERALE',
                           CARA = ( 'A',  'IZ', 'IY', 'AY', 'AZ', 'JX',
                                  'EZ', 'EY', 'RY', 'RZ', 'RT',      ),
                           VALE = ( 3.4390E-03,  1.3770E-05,  1.3770E-05,
                                  2.0,  2.0,  2.7540E-05,  0.0,  0.0,
                                  1.0,  1.0,  1.0,        )),
                         _F(  GROUP_MA = 'POU_C_T',   SECTION = 'GENERALE',
                           CARA = ( 'A',  'IZ', 'IY', 'AY', 'AZ', 'JX',
                                  'EZ', 'EY', 'RY', 'RZ', 'RT',      ),
                           VALE = ( 3.4390E-03, 5.8870E-06, 5.8870E-06,
                                  2.0,  2.0,  2.7540E-05,  0.0,  0.0,
                                  1.0,  1.0,  1.0,        ))),
                                        )

ASSEMBLAGE(MODELE=MODELE,  CHARGE=COND_LIM,
              CARA_ELEM=CARA_ELE, CHAM_MATER=CHAMPMAT, NUME_DDL=CO("NUMDDL"),MATR_ASSE=(
                _F( MATRICE = CO("RIGIDITE"), OPTION = 'RIGI_MECA'),
                          _F( MATRICE = CO("MASSE"),    OPTION = 'MASS_MECA')))

MODE=CALC_MODES(MATR_RIGI=RIGIDITE,
                CALC_FREQ=_F(NMAX_FREQ=8,
                             ),
                MATR_MASS=MASSE,
                SOLVEUR_MODAL=_F(METHODE='TRI_DIAG',
                                 ),
                )

TEST_RESU(RESU=(_F(PARA='FREQ',
                   NUME_MODE=1,
                   RESULTAT=MODE,
                   VALE_CALC=10.4036440963,
                   VALE_REFE=10.39,
                   REFERENCE='SOURCE_EXTERNE',
                   PRECISION=1.5E-3,
                   ),
                _F(PARA='FREQ',
                   NUME_MODE=2,
                   RESULTAT=MODE,
                   VALE_CALC=19.9729519725,
                   VALE_REFE=20.02,
                   REFERENCE='SOURCE_EXTERNE',
                   PRECISION=4.0000000000000001E-3,),
                _F(PARA='FREQ',
                   NUME_MODE=3,
                   RESULTAT=MODE,
                   VALE_CALC=25.4460418873,
                   VALE_REFE=25.449999999999999,
                   REFERENCE='SOURCE_EXTERNE',
                   PRECISION=2.E-3,),
                _F(PARA='FREQ',
                   NUME_MODE=4,
                   RESULTAT=MODE,
                   VALE_CALC=48.2494390715,
                   VALE_REFE=48.32,
                   REFERENCE='SOURCE_EXTERNE',
                   PRECISION=4.0000000000000001E-3,),
                _F(PARA='FREQ',
                   NUME_MODE=5,
                   RESULTAT=MODE,
                   VALE_CALC=52.4529611688,
                   VALE_REFE=52.600000000000001,
                   REFERENCE='SOURCE_EXTERNE',
                   PRECISION=4.0000000000000001E-3,),
                _F(PARA='FREQ',
                   NUME_MODE=6,
                   RESULTAT=MODE,
                   VALE_CALC=84.2403669725,
                   VALE_REFE=84.810000000000002,
                   REFERENCE='SOURCE_EXTERNE',
                   PRECISION=8.9999999999999993E-3,),
                _F(PARA='FREQ',
                   NUME_MODE=7,
                   RESULTAT=MODE,
                   VALE_CALC=86.5802760688,
                   VALE_REFE=87.159999999999997,
                   REFERENCE='SOURCE_EXTERNE',
                   PRECISION=8.9999999999999993E-3,),
                _F(PARA='FREQ',
                   NUME_MODE=8,
                   RESULTAT=MODE,
                   VALE_CALC=128.893766674,
                   VALE_REFE=129.31,
                   REFERENCE='SOURCE_EXTERNE',
                   PRECISION=3.5000000000000001E-3,),
                ),
          )

ASSEMBLAGE(MODELE=MODELE,  CHARGE=COND_LIM,
              CARA_ELEM=CARA_ELE, CHAM_MATER=CHAMPMAT, NUME_DDL=NUMDDL,MATR_ASSE=(
                _F( MATRICE = CO("RIGIDITD"), OPTION = 'RIGI_MECA'),
                         _F( MATRICE = CO("MASSED"),    OPTION = 'MASS_MECA_DIAG')))

MODE_DIA=CALC_MODES(MATR_RIGI=RIGIDITD,
                    CALC_FREQ=_F(NMAX_FREQ=8,
                                 ),
                    MATR_MASS=MASSED,
                    SOLVEUR_MODAL=_F(METHODE='TRI_DIAG',
                                     ),
                    )

TEST_RESU(RESU=(_F(PARA='FREQ',
                   NUME_MODE=1,
                   RESULTAT=MODE_DIA,
                   VALE_CALC=10.3913314388,
                   VALE_REFE=10.39,
                   REFERENCE='SOURCE_EXTERNE',
                   PRECISION=1.E-3,
                   ),
                _F(PARA='FREQ',
                   NUME_MODE=2,
                   RESULTAT=MODE_DIA,
                   VALE_CALC=19.9589180646,
                   VALE_REFE=20.02,
                   REFERENCE='SOURCE_EXTERNE',
                   PRECISION=5.0000000000000001E-3,),
                _F(PARA='FREQ',
                   NUME_MODE=3,
                   RESULTAT=MODE_DIA,
                   VALE_CALC=25.4373436055,
                   VALE_REFE=25.449999999999999,
                   REFERENCE='SOURCE_EXTERNE',
                   PRECISION=2.E-3,),
                _F(PARA='FREQ',
                   NUME_MODE=4,
                   RESULTAT=MODE_DIA,
                   VALE_CALC=48.269560216,
                   VALE_REFE=48.32,
                   REFERENCE='SOURCE_EXTERNE',
                   PRECISION=2.E-3,),
                _F(PARA='FREQ',
                   NUME_MODE=5,
                   RESULTAT=MODE_DIA,
                   VALE_CALC=52.478283654,
                   VALE_REFE=52.600000000000001,
                   REFERENCE='SOURCE_EXTERNE',
                   PRECISION=4.0000000000000001E-3,),
                _F(PARA='FREQ',
                   NUME_MODE=6,
                   RESULTAT=MODE_DIA,
                   VALE_CALC=83.9877808727,
                   VALE_REFE=84.810000000000002,
                   REFERENCE='SOURCE_EXTERNE',
                   PRECISION=0.012,),
                _F(PARA='FREQ',
                   NUME_MODE=7,
                   RESULTAT=MODE_DIA,
                   VALE_CALC=86.4400180761,
                   VALE_REFE=87.159999999999997,
                   REFERENCE='SOURCE_EXTERNE',
                   PRECISION=1.E-2,),
                _F(PARA='FREQ',
                   NUME_MODE=8,
                   RESULTAT=MODE_DIA,
                   VALE_CALC=128.68329476,
                   VALE_REFE=129.31,
                   REFERENCE='SOURCE_EXTERNE',
                   PRECISION=7.0000000000000001E-3,),
                ),
          )

FIN( )
#
