#
# ======================================================================
# COPYRIGHT (C) 1991 - 2016  EDF R&D                  WWW.CODE-ASTER.ORG
# THIS PROGRAM IS FREE SOFTWARE; YOU CAN REDISTRIBUTE IT AND/OR MODIFY
# IT UNDER THE TERMS OF THE GNU GENERAL PUBLIC LICENSE AS PUBLISHED BY
# THE FREE SOFTWARE FOUNDATION; EITHER VERSION 2 OF THE LICENSE, OR
# (AT YOUR OPTION) ANY LATER VERSION.
#
# THIS PROGRAM IS DISTRIBUTED IN THE HOPE THAT IT WILL BE USEFUL, BUT
# WITHOUT ANY WARRANTY; WITHOUT EVEN THE IMPLIED WARRANTY OF
# MERCHANTABILITY OR FITNESS FOR A PARTICULAR PURPOSE. SEE THE GNU
# GENERAL PUBLIC LICENSE FOR MORE DETAILS.
#
# YOU SHOULD HAVE RECEIVED A COPY OF THE GNU GENERAL PUBLIC LICENSE
# ALONG WITH THIS PROGRAM; IF NOT, WRITE TO EDF R&D CODE_ASTER,
#    1 AVENUE DU GENERAL DE GAULLE, 92141 CLAMART CEDEX, FRANCE.
# ======================================================================
#
# --------------------------------------------------------------------------------------------------
#
#                   DISCRET COMPORTEMENT ECROUISSAGE TRACTION
#
#   Validation du comportement avec DYNA_VIBRA Schéma RK54
#
#
# --------------------------------------------------------------------------------------------------
import numpy as NU

DEBUT(CODE=_F(NIV_PUB_WEB='INTERNET',VISU_EFICAS='NON'),PAR_LOT='NON')

MAIL=LIRE_MAILLAGE()
#
# Modèle
Modele=AFFE_MODELE(
    MAILLAGE=MAIL,
    AFFE=(
        _F(GROUP_MA=('MASSE','GM0203'), PHENOMENE='MECANIQUE', MODELISATION='DIS_T',),
        _F(MAILLE=('PT01'), PHENOMENE='MECANIQUE', MODELISATION='DIS_T',),
    ),
)

U01   = 2.00
Sy    = 200.0
Su    = Sy + 250.0
Kp    = 4.0*Sy/U01
Puiss = 1.50
Masse = 200.0

def FctRp(p):
    return Sy + Kp*p/pow(1.0+pow(Kp*p/(Su-Sy),Puiss),1.0/Puiss)

Lt_p  = NU.arange(0.0,U01*20.0,0.01)
Lt_rp = map( FctRp , Lt_p )
Lt_p += Sy/Kp
Lt_p = list(Lt_p)
Lt_p.insert(0, 0.0)
Lt_rp.insert(0, 0.0)

fctsy = DEFI_FONCTION(NOM_PARA='DX',
    ABSCISSE = Lt_p,
    ORDONNEE = Lt_rp,
)

# Caractéristiques : Ressorts / Masse
caraElem=AFFE_CARA_ELEM(
    MODELE=Modele,
    DISCRET=(
        _F( REPERE='LOCAL',CARA='M_T_D_N', MAILLE='PT01', VALE=( 0.0, ), ),
        _F( REPERE='LOCAL',CARA='K_T_D_N', MAILLE='PT01', VALE=( Kp,0.0,0.0,), ),

        _F( REPERE='LOCAL',CARA='M_T_D_N', GROUP_MA='MASSE', VALE=( Masse ), ),
        _F( REPERE='LOCAL',CARA='K_T_D_N', GROUP_MA='MASSE', VALE=( 0.0,0.0,0.0,), ),

        _F( REPERE='LOCAL',CARA='M_T_D_L', GROUP_MA='GM0203', VALE=( 0.0,), ),
        _F( REPERE='LOCAL',CARA='K_T_D_L', GROUP_MA='GM0203', VALE=( Kp, 400.0, 400.0,), ),
    ),
)
#
# condition aux limites en déplacement
Blocage=AFFE_CHAR_MECA(
   MODELE=Modele,
   DDL_IMPO= (
        _F(NOEUD='N01', DX=0.0, DY=0.0, DZ=0.0,),
        _F(NOEUD='N02',         DY=0.0, DZ=0.0,),
        _F(NOEUD='N03', DX=0.0, DY=0.0, DZ=0.0,),
    ),
)
#
Frequence = 0.50
Pulsation = 2.0*pi*Frequence
Amplitude = U01*3.0
#
Tsignal = 4.0/Frequence
LinstF = DEFI_LIST_REEL(
    DEBUT=0.,
    INTERVALLE=_F(JUSQU_A = 4.0*Tsignal, PAS = 0.5/Frequence/80.0),
)
#
DEPL  = FORMULE(NOM_PARA='INST',VALE='Amplitude*sin(Pulsation*INST)/(Pulsation**2)')
#
DEPLI = CALC_FONC_INTERP(NOM_RESU='DEPL',
    FONCTION=DEPL, LIST_PARA=LinstF, NOM_PARA = 'INST',
    PROL_GAUCHE='CONSTANT', PROL_DROITE='CONSTANT',
)
#
VITEI=CALC_FONCTION(DERIVE=_F(FONCTION=DEPLI,), PROL_GAUCHE='CONSTANT', PROL_DROITE='CONSTANT')
ACCEI=CALC_FONCTION(DERIVE=_F(FONCTION=VITEI,), PROL_GAUCHE='CONSTANT', PROL_DROITE='CONSTANT')
#
ASSEMBLAGE(
    MODELE=Modele, CARA_ELEM=caraElem, CHARGE=Blocage,
    NUME_DDL=CO('NumeDDL'),
    MATR_ASSE=(
        _F(MATRICE=CO('Rigidite'), OPTION='RIGI_MECA',),
        _F(MATRICE=CO('Masse'),    OPTION='MASS_MECA',),
    ),
)
#
# Mode de la structure
ModeStr=CALC_MODES(
    MATR_RIGI=Rigidite, OPTION='BANDE',
    CALC_FREQ=_F( FREQ=(0.0,3.0,), ),
    MATR_MASS=Masse,
)
#
# calcul des modes statiques aux points d'ancrage et des chargements sismiques
ModeSta=MODE_STATIQUE(
    MATR_RIGI=Rigidite,
    MATR_MASS=Masse,
    MODE_STAT=_F(GROUP_NO=('GPT01','GPT03'),AVEC_CMP='DX',),
)
#
DeplSis1=CALC_CHAR_SEISME(
    MATR_MASS=Masse,
    MODE_STAT=ModeSta, NOEUD='N01',
    DIRECTION=(1.0, 0.0, 0.0),
)
#
DeplSis3=CALC_CHAR_SEISME(
    MATR_MASS=Masse,
    MODE_STAT=ModeSta, NOEUD='N03',
    DIRECTION=(1.0, 0.0, 0.0),
)

# projection des matrices et vecteurs sur la base modale
PROJ_BASE(
    BASE=ModeStr,
    STOCKAGE='DIAG',
    MATR_ASSE_GENE=(
        _F(MATRICE = CO("MasseGen"), MATR_ASSE = Masse),
        _F(MATRICE = CO("RigidGen"), MATR_ASSE = Rigidite),
    ),
    VECT_ASSE_GENE=(
        _F(VECTEUR = CO("Depl1Gen"), VECT_ASSE = DeplSis1),
        _F(VECTEUR = CO("Depl3Gen"), VECT_ASSE = DeplSis3),
    ),
)
#
# --------------------------------------------------------------------------------------------------
#
dt = 0.5/Frequence/4000.0
archivedInstants = (1.2750000000e+00,
                    2.5250000000e+00,
                    3.6250000000e+00,
                    4.5250000000e+00,
                    5.3750000000e+00,
                    6.4000000000e+00,
                    7.5250000000e+00,
                    8.5500000000e+00,
                    9.5000000000e+00,
                    1.0450000000e+01,
                    1.1450000000e+01,
                    1.2525000000e+01,
                    1.3525000000e+01,
                    1.4500000000e+01,
                    1.5475000000e+01,
                    1.6475000000e+01,
                    1.7500000000e+01,
                    1.8525000000e+01,
                    1.9500000000e+01,
                    2.0500000000e+01,
                    2.1475000000e+01,
                    2.2500000000e+01,
                    2.3525000000e+01,
                    2.4525000000e+01,
                    2.5500000000e+01,
                    2.7475000000e+01,
                    2.8500000000e+01,
                    2.9525000000e+01,
                    3.0500000000e+01,
                    3.1500000000e+01)

Resultat=DYNA_VIBRA(
    TYPE_CALCUL='TRAN', BASE_CALCUL='GENE',
    MATR_MASS=MasseGen, MATR_RIGI=RigidGen,
    SCHEMA_TEMPS=_F(SCHEMA='RUNGE_KUTTA_54',TOLERANCE=1.0E-10, PAS_MAXI=5*dt),
    INCREMENT=_F(PAS=dt, INST_INIT=0.0, INST_FIN=4.0*Tsignal),
    MODE_STAT=ModeSta,
    EXCIT=(
        _F(VECT_ASSE_GENE=Depl1Gen, ACCE=ACCEI, VITE=VITEI, DEPL=DEPLI),
        _F(VECT_ASSE_GENE=Depl3Gen, ACCE=ACCEI, VITE=VITEI, DEPL=DEPLI),
    ),
    COMPORTEMENT=_F(RELATION='DIS_ECRO_TRAC', 
                    NOEUD_1='N01', NOEUD_2='N02',FX= fctsy ,),
    ARCHIVAGE=_F(PAS_ARCH=1.E8, INST=archivedInstants),
    IMPRESSION=_F(UNITE_DIS_ECRO_TRAC =38),
)

TABVARI1 = LIRE_TABLE(UNITE=38)

# dans unite=38 : INST FORCE DEPLVISC DEPL PUISS
Forc =LIRE_FONCTION(UNITE=38, NOM_PARA='INST', NOM_RESU='Forc',
    INDIC_PARA=[1,1], INDIC_RESU=[1,2])
Depl =LIRE_FONCTION(UNITE=38, NOM_PARA='INST', NOM_RESU='Depl',
    INDIC_PARA=[1,1], INDIC_RESU=[1,3])
Puiss=LIRE_FONCTION(UNITE=38, NOM_PARA='INST', NOM_RESU='Puiss',
    INDIC_PARA=[1,1], INDIC_RESU=[1,4])

#NUME_ORDRE
#       INST               FORCE              U                  PUISS
#       INST               Force              Ux                 Puiss
ResuIntgr = {
 1: ( 1.2750000000e+00,  4.0514894798e+02,  1.7698257727e+00,  2.7736499231e+02, ),
 2: ( 2.5250000000e+00, -4.3584584746e+02, -2.0647457796e+00,  1.0140956362e+03, ),
 3: ( 3.6250000000e+00,  4.3921743018e+02,  7.7222798608e-01,  1.2982852020e+03, ),
 4: ( 4.5250000000e+00, -9.1517869526e+01, -5.5460371803e-01,  1.2982880767e+03, ),
 5: ( 5.3750000000e+00,  3.5606065994e+02,  5.6434260564e-01,  1.2982880767e+03, ),
 6: ( 6.4000000000e+00, -4.3979663909e+02, -1.5724584569e+00,  1.3629654339e+03, ),
 7: ( 7.5250000000e+00,  4.4218453636e+02,  1.4184292106e+00,  1.7096345513e+03, ),
 8: ( 8.5500000000e+00, -4.4221217527e+02, -8.0345047549e-01,  1.7144548218e+03, ),
 9: ( 9.5000000000e+00,  2.2752558203e+02,  8.7087877798e-01,  1.7144615167e+03, ),
10: ( 1.0450000000e+01, -4.0783181773e+02, -7.1751472141e-01,  1.7144615167e+03, ),
11: ( 1.1450000000e+01,  4.1833665733e+02,  1.3479064662e+00,  1.7144615167e+03, ),
12: ( 1.2525000000e+01, -4.4304091849e+02, -1.1860039454e+00,  1.8828697637e+03, ),
13: ( 1.3525000000e+01,  4.0986343649e+02,  9.4625260557e-01,  1.8828716850e+03, ),
14: ( 1.4500000000e+01, -3.2997441963e+02, -9.0334203471e-01,  1.8828716850e+03, ),
15: ( 1.5475000000e+01,  3.8962560459e+02,  8.9565802583e-01,  1.8828716850e+03, ),
16: ( 1.6475000000e+01, -4.2729911340e+02, -1.1466537692e+00,  1.8828716850e+03, ),
17: ( 1.7500000000e+01,  4.4325666418e+02,  1.1421035643e+00,  1.9326673282e+03, ),
18: ( 1.8525000000e+01, -4.2314597979e+02, -1.0239023388e+00,  1.9326676415e+03, ),
19: ( 1.9500000000e+01,  3.6609776208e+02,  9.4920701588e-01,  1.9326676415e+03, ),
20: ( 2.0500000000e+01, -3.7879651773e+02, -9.1302868365e-01,  1.9326676415e+03, ),
21: ( 2.1475000000e+01,  4.0795130776e+02,  1.0538408801e+00,  1.9326676415e+03, ),
22: ( 2.2500000000e+01, -4.4331858840e+02, -1.1071188427e+00,  1.9472008256e+03, ),
23: ( 2.3525000000e+01,  4.3377501330e+02,  1.0856147283e+00,  1.9472010177e+03, ),
24: ( 2.4525000000e+01, -3.9592010424e+02, -9.8862306556e-01,  1.9472010177e+03, ),
25: ( 2.5500000000e+01,  3.7185745032e+02,  9.3082082084e-01,  1.9472010177e+03, ),
26: ( 2.7475000000e+01,  4.3090549548e+02,  1.0784409337e+00,  1.9472010177e+03, ),
27: ( 2.8500000000e+01, -4.4332341320e+02, -1.1099055100e+00,  1.9484308660e+03, ),
28: ( 2.9525000000e+01,  4.1639039299e+02,  1.0393789703e+00,  1.9484308815e+03, ),
29: ( 3.0500000000e+01, -3.7903620354e+02, -9.4918752099e-01,  1.9484308815e+03, ),
30: ( 3.1500000000e+01,  3.7762832948e+02,  9.4247381156e-01,  1.9484308815e+03, ),
}

ResuCalc = {
 1: ( 1.2750000000E+00, 4.0484411892E+02, 1.7689051541E+00, 2.7729935641E+02, ),
 2: ( 2.5250000000E+00, -4.3559557605E+02, -2.0638313007E+00, 1.0138137711E+03, ),
 3: ( 3.6250000000E+00, 4.3921550248E+02, 7.7296201584E-01, 1.2981845810E+03, ),
 4: ( 4.5250000000E+00, -9.2182701203E+01, -5.5539085610E-01, 1.2982472295E+03, ),
 5: ( 5.3750000000E+00, 3.5581323674E+02, 5.6459898876E-01, 1.2982472295E+03, ),
 6: ( 6.4000000000E+00, -4.3979093127E+02, -1.5704146224E+00, 1.3624165803E+03, ),
 7: ( 7.5250000000E+00, 4.4217024726E+02, 1.4181153118E+00, 1.7082971868E+03, ),
 8: ( 8.5500000000E+00, -4.4220186277E+02, -8.0464867112E-01, 1.7139765659E+03, ),
 9: ( 9.5000000000E+00, 2.2838686992E+02, 8.7137403791E-01, 1.7141751690E+03, ),
10: ( 1.0450000000E+01, -4.0763645925E+02, -7.1868428500E-01, 1.7141751690E+03, ),
11: ( 1.1450000000E+01, 4.1821868156E+02, 1.3459535670E+00, 1.7141751690E+03, ),
12: ( 1.2525000000E+01, -4.4295440534E+02, -1.1853274064E+00, 1.8816464670E+03, ),
13: ( 1.3525000000E+01, 4.1016164432E+02, 9.4746271777E-01, 1.8816464670E+03, ),
14: ( 1.4500000000E+01, -3.3057854946E+02, -9.0438776668E-01, 1.8816464670E+03, ),
15: ( 1.5475000000E+01, 3.8951602577E+02, 8.9584867140E-01, 1.8816464670E+03, ),
16: ( 1.6475000000E+01, -4.2685258501E+02, -1.1450728556E+00, 1.8816464670E+03, ),
17: ( 1.7500000000E+01, 4.4324912081E+02, 1.1412694405E+00, 1.9308742182E+03, ),
18: ( 1.8525000000E+01, -4.2337589162E+02, -1.0251664405E+00, 1.9309303557E+03, ),
19: ( 1.9500000000E+01, 3.6682337513E+02, 9.5033172632E-01, 1.9309303557E+03, ),
20: ( 2.0500000000E+01, -3.7873676711E+02, -9.1356862927E-01, 1.9309303557E+03, ),
21: ( 2.1475000000E+01, 4.0756782483E+02, 1.0521928506E+00, 1.9309303557E+03, ),
22: ( 2.2500000000E+01, -4.4322855165E+02, -1.1061661014E+00, 1.9448351335E+03, ),
23: ( 2.3525000000E+01, 4.3390899424E+02, 1.0866777634E+00, 1.9448351335E+03, ),
24: ( 2.4525000000E+01, -3.9660142156E+02, -9.8959827613E-01, 1.9448351335E+03, ),
25: ( 2.5500000000E+01, 3.7187797691E+02, 9.3160022004E-01, 1.9448351335E+03, ),
26: ( 2.7475000000E+01, 4.3027998024E+02, 1.0776052284E+00, 1.9448351335E+03, ),
27: ( 2.8500000000E+01, -4.4331428719E+02, -1.1095865480E+00, 1.9462564373E+03, ),
28: ( 2.9525000000E+01, 4.1684618160E+02, 1.0407522513E+00, 1.9462840880E+03, ),
29: ( 3.0500000000E+01, -3.7965230476E+02, -9.5049396459E-01, 1.9462840880E+03, ),
30: ( 3.1500000000E+01, 3.7753027659E+02, 9.4246248879E-01, 1.9462840880E+03, ),
}


## Small script to generate/print out non regression results, use with /PAR_LOT = 'NON'/
## ----------------------------------------------------------------------------------
from aster import getvectjev as getjv
desc = getjv('Resultat           .DESC')
nbvint = desc[3]
inst = getjv('Resultat           .DISC')
vint = getjv('Resultat        .NL.VINT')
print "ResuCalc = {"
for i in range(1,len(inst)-1) : print "%2d: ( %16.10E, %16.10E, %16.10E, %16.10E, ),"%(i, inst[i], vint[i*nbvint+7], vint[i*nbvint+9], vint[i*nbvint+10] )
print "}"

for nume_ordre in ResuIntgr.keys():
    TEST_FONCTION(
        VALEUR= (
            _F(FONCTION=Forc,  NOM_PARA='INST', VALE_PARA=ResuIntgr[nume_ordre][0],
               VALE_CALC=ResuCalc[nume_ordre][1],
               REFERENCE='AUTRE_ASTER', VALE_REFE=ResuIntgr[nume_ordre][1], PRECISION=1.0E-02,),
            _F(FONCTION=Depl,  NOM_PARA='INST', VALE_PARA=ResuIntgr[nume_ordre][0],
               VALE_CALC=ResuCalc[nume_ordre][2],
               REFERENCE='AUTRE_ASTER', VALE_REFE=ResuIntgr[nume_ordre][2], PRECISION=1.0E-02,),
            _F(FONCTION=Puiss, NOM_PARA='INST', VALE_PARA=ResuIntgr[nume_ordre][0],
               VALE_CALC=ResuCalc[nume_ordre][3],
               REFERENCE='AUTRE_ASTER', VALE_REFE=ResuIntgr[nume_ordre][3], PRECISION=1.0E-02,),
        ),
    )

FIN()

