# TITRE TEST DU MULTI-APPUIS SUR UN SYSTEME MASSES-RESSORTS NON LINEAIRE
# ======================================================================
# COPYRIGHT (C) 1991 - 2012  EDF R&D                  WWW.CODE-ASTER.ORG
# THIS PROGRAM IS FREE SOFTWARE; YOU CAN REDISTRIBUTE IT AND/OR MODIFY
# IT UNDER THE TERMS OF THE GNU GENERAL PUBLIC LICENSE AS PUBLISHED BY
# THE FREE SOFTWARE FOUNDATION; EITHER VERSION 2 OF THE LICENSE, OR
# (AT YOUR OPTION) ANY LATER VERSION.
#
# THIS PROGRAM IS DISTRIBUTED IN THE HOPE THAT IT WILL BE USEFUL, BUT
# WITHOUT ANY WARRANTY; WITHOUT EVEN THE IMPLIED WARRANTY OF
# MERCHANTABILITY OR FITNESS FOR A PARTICULAR PURPOSE. SEE THE GNU
# GENERAL PUBLIC LICENSE FOR MORE DETAILS.
#
# YOU SHOULD HAVE RECEIVED A COPY OF THE GNU GENERAL PUBLIC LICENSE
# ALONG WITH THIS PROGRAM; IF NOT, WRITE TO EDF R&D CODE_ASTER,
#    1 AVENUE DU GENERAL DE GAULLE, 92141 CLAMART CEDEX, FRANCE.
# ======================================================================
# ----------------------------------------------------------------------
# COMPARAISON DE LA REPONSE D UN SYSTEME A UN DDL BUTANT CONTRE UNE
# PAROI FIXE ET CELLE DE DEUX SYSTEMES A UN DDL   L'UN SOUMIS A GAMMA
# L'AUTRE SOUMIS A -GAMMA  POUVANT BUTER L'UN CONTRE L'AUTRE
#
# CALCUL TRANSITOIRE DIRECT AVEC DYNA_NON_LINE
# ----------------------------------------------------------------------
#

DEBUT(CODE=_F(
NIV_PUB_WEB='INTERNET',),DEBUG=_F(SDVERI='NON'))
# SDVERI='NON' car la verification est trop couteuse en CPU

MAILLAGE=LIRE_MAILLAGE();

#
# DESCRIPTION DES PAS DE CALCUL ET D ARCHIVAGE
#---------------------------------------------

L_INST=DEFI_LIST_REEL(DEBUT=0.,
                      INTERVALLE=_F(JUSQU_A=0.5,
                                    PAS=0.001,),);

L_INST2=DEFI_LIST_REEL(DEBUT=0.,
                       INTERVALLE=_F(JUSQU_A=0.5,
                                     PAS=0.002,),);

LISTIMP=DEFI_LIST_REEL(DEBUT=0.002,
                       INTERVALLE=_F(JUSQU_A=0.5,
                                     NOMBRE=249,),);

INTLI=DEFI_LIST_ENTI(OPERATION='DEFI',
                     DEBUT=1,
                     INTERVALLE=_F(JUSQU_A=501,
                                   PAS=2,),);

#
# DESCRIPTION DES ACCELEROGRAMMES ET DE LEURS INTEGRALES :
#---------------------------------------------------------
OMEGAA = ((2.0 * pi) * 10.0);


ACCE1 = FORMULE(VALE='sin(OMEGAA*INST) ',
                NOM_PARA='INST',);

ACCELER1=CALC_FONC_INTERP(FONCTION=ACCE1,
                          LIST_PARA=L_INST,
                          NOM_RESU='ACCE',
                          NOM_PARA='INST',
                          PROL_DROITE='LINEAIRE',
                          PROL_GAUCHE='LINEAIRE',
                          INFO=1,);

ACCE2 = FORMULE(VALE='- sin(OMEGAA*INST) ',
                NOM_PARA='INST',);

ACCELER2=CALC_FONC_INTERP(FONCTION=ACCE2,
                          LIST_PARA=L_INST,
                          NOM_RESU='ACCE',
                          NOM_PARA='INST',
                          PROL_DROITE='LINEAIRE',
                          PROL_GAUCHE='LINEAIRE',
                          INFO=1,);

VITE1 = FORMULE(VALE='-cos(OMEGAA*INST)/OMEGAA ',
                NOM_PARA='INST',);

VITESSE1=CALC_FONC_INTERP(FONCTION=VITE1,
                          LIST_PARA=L_INST,
                          NOM_RESU='VITE',
                          NOM_PARA='INST',
                          PROL_DROITE='LINEAIRE',
                          PROL_GAUCHE='LINEAIRE',
                          INFO=1,);

DEPL1 = FORMULE(VALE='-sin(OMEGAA*INST)/(OMEGAA**2) ',
                NOM_PARA='INST',);

DEPLACE1=CALC_FONC_INTERP(FONCTION=DEPL1,
                          LIST_PARA=L_INST,
                          NOM_RESU='DEPL',
                          NOM_PARA='INST',
                          PROL_DROITE='LINEAIRE',
                          PROL_GAUCHE='LINEAIRE',
                          INFO=1,);

#

VITE2 = FORMULE(VALE='cos(OMEGAA*INST)/OMEGAA ',
                NOM_PARA='INST',);

VITESSE2=CALC_FONC_INTERP(FONCTION=VITE2,
                          LIST_PARA=L_INST,
                          NOM_RESU='VITE',
                          NOM_PARA='INST',
                          PROL_DROITE='LINEAIRE',
                          PROL_GAUCHE='LINEAIRE',
                          INFO=1,);

DEPL2 = FORMULE(VALE='sin(OMEGAA*INST)/(OMEGAA**2) ',
                NOM_PARA='INST',);

DEPLACE2=CALC_FONC_INTERP(FONCTION=DEPL2,
                          LIST_PARA=L_INST,
                          NOM_RESU='DEPL',
                          NOM_PARA='INST',
                          PROL_DROITE='LINEAIRE',
                          PROL_GAUCHE='LINEAIRE',
                          INFO=1,);

#
# MATERIAU

MAT_CHO=DEFI_MATERIAU(DIS_CONTACT=_F(RIGI_NOR=5.76E7,
                                     DIST_1=0.4495,
                                     JEU=0.45,),);

MATCHO=DEFI_MATERIAU(DIS_CONTACT=_F(RIGI_NOR=2.88E7,
                                    DIST_1=0.4495,
                                    DIST_2=0.4495,),);

MATBID=DEFI_MATERIAU(ELAS=_F(E=1.E10,
                             NU=0.3,
                             RHO=0.,),);

#

CH_MAT=AFFE_MATERIAU(MAILLAGE=MAILLAGE,
                     AFFE=(_F(GROUP_MA='RESSORT1',
                              MATER=MATBID,),
                           _F(GROUP_MA='MASSES1',
                              MATER=MAT_CHO,),),);

CHMAT=AFFE_MATERIAU(MAILLAGE=MAILLAGE,
                    AFFE=(_F(GROUP_MA='RESSORTS',
                             MATER=MATBID,),
                          _F(GROUP_MA=('MASSES1','MASSES2',),
                             MATER=MATBID,),
                          _F(GROUP_MA='RESSORT2',
                             MATER=MATCHO,),),);

#
#=======================================================================
# 1/ ON ETUDIE LE SYSTEME A 1 DDL
#       ACCE_IMPO = ACCELER1 (SIN(OMEGAA*T)) EN X=0
#----------------------------------------------------------------------
#
# MODELISATION

MODELE=AFFE_MODELE(MAILLAGE=MAILLAGE,
                   AFFE=(_F(GROUP_MA='RESSORT1',
                            PHENOMENE='MECANIQUE',
                            MODELISATION='DIS_T',),
                         _F(GROUP_MA='MASSES1',
                            PHENOMENE='MECANIQUE',
                            MODELISATION='DIS_T',),),);

CON_LIM=AFFE_CHAR_MECA(MODELE=MODELE,
                       DDL_IMPO=(_F(NOEUD='NO1',
                                    DX=0.,
                                    DY=0.,
                                    DZ=0.,),
                                 _F(GROUP_NO='MASSES1',
                                    DY=0.,
                                    DZ=0.,),),);

#

CARA_ELE=AFFE_CARA_ELEM(MODELE=MODELE,
                        DISCRET=(
                                 _F(REPERE='GLOBAL',
                                    CARA='K_T_D_L',
                                    GROUP_MA='RESSORT1',
                                    VALE=(98696.,0.,0.,),),
                                 _F(REPERE='GLOBAL',
                                    CARA='M_T_L',
                                    GROUP_MA='RESSORT1',
                                    VALE=(0.,0.,0.,0.,0.,0.,0.,0.,0.,
                                    0.,0.,0.,0.,0.,0.,0.,0.,0.,0.,0.,0.,),),
                                 _F(REPERE='GLOBAL',
                                    CARA='A_T_D_L',
                                    GROUP_MA='RESSORT1',
                                    VALE=(0.,0.,0.,),),
                                 _F(CARA='M_T_D_N',
                                    GROUP_MA='MASSES1',
                                    VALE=25.,),
                                 _F(CARA='K_T_D_N',
                                    GROUP_MA='MASSES1',
                                    VALE=(0.,0.,0.),),
                                 _F(CARA='A_T_D_N',
                                    GROUP_MA='MASSES1',
                                    VALE=(0.,0.,0.),),
                                    ),);

ASSEMBLAGE(MODELE=MODELE,
                CARA_ELEM=CARA_ELE,
                CHARGE=CON_LIM,
                NUME_DDL=CO('NUM'),
                SOLVEUR=_F(METHODE='LDLT',
                           RENUM='RCMK',),
                MATR_ASSE=(_F(MATRICE=CO('RIGIDITE'),
                              OPTION='RIGI_MECA',),
                           _F(MATRICE=CO('MASSE'),
                              OPTION='MASS_MECA',),),);

# CALCUL DES MODES STATIQUES AUX POINTS D ANCRAGE ET DES CHARGEMENTS
# SISMIQUES :

MODE_STA=MODE_STATIQUE(MATR_RIGI=RIGIDITE,
                       MATR_MASS=MASSE,
                       MODE_STAT=_F(TOUT='OUI',
                                    AVEC_CMP='DX',),);

#

MONO_X=CALC_CHAR_SEISME(MATR_MASS=MASSE,
                        DIRECTION=(1.,0.,0.,),
                        MONO_APPUI='OUI',);

CHAR_SEI=AFFE_CHAR_MECA(MODELE=MODELE,
                        VECT_ASSE=MONO_X,);

MODE=CALC_MODES( OPTION='BANDE',
                 MATR_RIGI=RIGIDITE,
                 MATR_MASS=MASSE,
                 SOLVEUR_MODAL=_F( METHODE='JACOBI' ),
                 CALC_FREQ=_F( FREQ=(1.,30.) ),);

MODE=NORM_MODE(reuse =MODE,
               MODE=MODE,
               NORME='MASS_GENE',);

# CALCUL DIRECT
# -------------

TRAN_DY=DYNA_NON_LINE(MODELE=MODELE,INFO=1,
                      CHAM_MATER=CH_MAT,
                      MODE_STAT=MODE_STA,
                      CARA_ELEM=CARA_ELE,
                      EXCIT=(_F(CHARGE=CON_LIM,),
                             _F(CHARGE=CHAR_SEI,
                                DEPL=DEPLACE1,
                                ACCE=ACCELER1,
                                VITE=VITESSE1,
                                MULT_APPUI='OUI',
                                DIRECTION=(1.,0.,0.,),
                                NOEUD='NO1',),),
                      AMOR_MODAL=_F(MODE_MECA=MODE,
                                    AMOR_REDUIT=0.07,
                                    REAC_VITE='OUI',),
                      COMPORTEMENT=(_F(RELATION='ELAS',
                                    GROUP_MA='RESSORT1',),
                                 _F(RELATION='DIS_CHOC',
                                    GROUP_MA='MASSES1',),),
                      INCREMENT=_F(LIST_INST=L_INST,INST_FIN=0.2,),
                      SCHEMA_TEMPS=_F(SCHEMA='NEWMARK',
                                      FORMULATION='DEPLACEMENT',),
                      NEWTON=_F(REAC_ITER=1,),
                      SOLVEUR=_F(METHODE='LDLT',
                                 RENUM='RCMK',),
                      CONVERGENCE=_F(RESI_GLOB_RELA=1.E-8,
                                     ITER_GLOB_MAXI=20,),
                      OBSERVATION=(_F(TITRE='DEPL_ABS_DX_NO1',
                                      NOM_CMP='DX',
                                      NOEUD='NO1',
                                      NOM_CHAM='DEPL_ABSOLU',
                                      LIST_INST=L_INST,),
                                   _F(TITRE='VITE_ABS_DX_NO1',
                                      NOM_CMP='DX',
                                      NOEUD='NO1',
                                      NOM_CHAM='VITE_ABSOLU',
                                      LIST_INST=L_INST,),
                                   _F(
                                      TITRE='ACCE_ABS_DX_NO1',
                                      NOM_CMP='DX',
                                      NOEUD='NO1',
                                      NOM_CHAM='ACCE_ABSOLU',
                                      LIST_INST=L_INST,),
                                    _F(TITRE='DEPL_NO1_DX',
                                      NOM_CMP='DX',
                                      NOEUD='NO2',
                                      NOM_CHAM='DEPL',
                                      LIST_INST=L_INST,),
                                    _F(NOM_CMP='DX',
                                        TITRE='VITE_NO2_DY',
                                      NOEUD='NO2',
                                      NOM_CHAM='VITE',
                                      LIST_INST=L_INST,),
                                 ),
#  Pour valider les valeurs de SUIVI_DDL, on peut comparer visuellement avec
#  ce qui sera sorti par la table OBSERVATION. Pour cela on sort les valeurs dans le .resu
#  pour temps = 0,01 s.
#  Les valeurs MIN de SUIV_DDL pour t = 0,01 s doivent valoir les valeurs au noeud N02.
                      SUIVI_DDL=(
                                 _F(NOM_CMP='DX',
                                    NOEUD='NO2',
                                    NOM_CHAM='DEPL',),
                                 _F(NOM_CMP='DX',
                                    GROUP_MA='RESSORT1',
                                    EVAL_CHAM='MIN',
                                    NOM_CHAM='DEPL',),
                                 _F(NOM_CMP='DX',
                                    NOEUD='NO2',
                                    NOM_CHAM='VITE',),
                                 _F(NOM_CMP='DX',
                                    GROUP_MA='RESSORT1',
                                    EVAL_CHAM='MIN',
                                    NOM_CHAM='VITE',),
                                ),
                      ARCHIVAGE=_F(LIST_INST=L_INST2,),
);
# On valide la poursuite
TRAN_DY=DYNA_NON_LINE(reuse=TRAN_DY,ETAT_INIT=_F(EVOL_NOLI = TRAN_DY),
                      MODELE=MODELE,INFO=1,
                      CHAM_MATER=CH_MAT,
                      MODE_STAT=MODE_STA,
                      CARA_ELEM=CARA_ELE,
                      EXCIT=(_F(CHARGE=CON_LIM,),
                             _F(CHARGE=CHAR_SEI,
                                DEPL=DEPLACE1,
                                ACCE=ACCELER1,
                                VITE=VITESSE1,
                                MULT_APPUI='OUI',
                                DIRECTION=(1.,0.,0.,),
                                NOEUD='NO1',),),
                      AMOR_MODAL=_F(MODE_MECA=MODE,
                                    AMOR_REDUIT=0.07,
                                    REAC_VITE='OUI',),
                      COMPORTEMENT=(_F(RELATION='ELAS',
                                    GROUP_MA='RESSORT1',),
                                 _F(RELATION='DIS_CHOC',
                                    GROUP_MA='MASSES1',),),
                      INCREMENT=_F(LIST_INST=L_INST,),
                      SCHEMA_TEMPS=_F(SCHEMA='NEWMARK',
                                      FORMULATION='DEPLACEMENT',),
                      NEWTON=_F(REAC_ITER=1,),
                      SOLVEUR=_F(METHODE='LDLT',
                                 RENUM='RCMK',),
                      CONVERGENCE=_F(RESI_GLOB_RELA=1.E-8,
                                     ITER_GLOB_MAXI=20,),
                      OBSERVATION=(_F(TITRE='DEPL_ABS_DX_NO1',
                                      NOM_CMP='DX',
                                      NOEUD='NO1',
                                      NOM_CHAM='DEPL_ABSOLU',
                                      LIST_INST=L_INST,),
                                   _F(TITRE='VITE_ABS_DX_NO1',
                                      NOM_CMP='DX',
                                      NOEUD='NO1',
                                      NOM_CHAM='VITE_ABSOLU',
                                      LIST_INST=L_INST,),
                                   _F(
                                      TITRE='ACCE_ABS_DX_NO1',
                                      NOM_CMP='DX',
                                      NOEUD='NO1',
                                      NOM_CHAM='ACCE_ABSOLU',
                                      LIST_INST=L_INST,),
                                    _F(TITRE='DEPL_NO1_DX',
                                      NOM_CMP='DX',
                                      NOEUD='NO2',
                                      NOM_CHAM='DEPL',
                                      LIST_INST=L_INST,),
                                    _F(NOM_CMP='DX',
                                        TITRE='VITE_NO2_DY',
                                      NOEUD='NO2',
                                      NOM_CHAM='VITE',
                                      LIST_INST=L_INST,),
                                 ),
#  Pour valider les valeurs de SUIVI_DDL, on peut comparer visuellement avec
#  ce qui sera sorti par la table OBSERVATION. Pour cela on sort les valeurs dans le .resu
#  pour temps = 0,01 s.
#  Les valeurs MIN de SUIV_DDL pour t = 0,01 s doivent valoir les valeurs au noeud N02.
                      SUIVI_DDL=(
                                 _F(NOM_CMP='DX',
                                    NOEUD='NO2',
                                    NOM_CHAM='DEPL',),
                                 _F(NOM_CMP='DX',
                                    GROUP_MA='RESSORT1',
                                    EVAL_CHAM='MIN',
                                    NOM_CHAM='DEPL',),
                                 _F(NOM_CMP='DX',
                                    NOEUD='NO2',
                                    NOM_CHAM='VITE',),
                                 _F(NOM_CMP='DX',
                                    GROUP_MA='RESSORT1',
                                    EVAL_CHAM='MIN',
                                    NOM_CHAM='VITE',),
                                ),
                      ARCHIVAGE=_F(LIST_INST=L_INST2,),
);

TEST_RESU(RESU=_F(INST=1.E-2,
                  RESULTAT=TRAN_DY,
                  NOM_CHAM='DEPL_ABSOLU',
                  NOEUD='NO1',
                  NOM_CMP='DX',
                  VALE_CALC=-1.4888774372446E-4,
                  ),
          )

TEST_RESU(RESU=_F(INST=1.E-2,
                  RESULTAT=TRAN_DY,
                  NOM_CHAM='VITE_ABSOLU',
                  NOEUD='NO1',
                  NOM_CMP='DX',
                  VALE_CALC=-0.012875905370012,
                  ),
          )

TEST_RESU(RESU=_F(INST=1.E-2,
                  RESULTAT=TRAN_DY,
                  NOM_CHAM='ACCE_ABSOLU',
                  NOEUD='NO1',
                  NOM_CMP='DX',
                  VALE_CALC=0.58778525229247003,
                  ),
          )

TAB_OBS=RECU_TABLE(CO=TRAN_DY,
                   NOM_TABLE='OBSERVATION',);

#  Impression de la table permettant de comparer aux valeurs OBSERVATION :
IMPR_TABLE(TABLE=TAB_OBS,
           FILTRE=_F(NOM_PARA='INST',
                     VALE=0.1,),);

TEST_TABLE(
           VALE_CALC=-1.4888774372446E-4,
           NOM_PARA='VALE',
           TABLE=TAB_OBS,
           FILTRE=(_F(CRIT_COMP='EQ',
                      NOM_PARA='NOM_CHAM',
                      VALE_K='DEPL_ABSOLU',),
                   _F(NOM_PARA='NOM_OBSERVATION',
                      VALE_K='DEPL_ABS_DX_NO1',),
                   _F(CRIT_COMP='EQ',
                      NOM_PARA='INST',
                      VALE=1.E-2,),
                   ),
           )

TEST_TABLE(
           VALE_CALC=-0.012875905370012,
           NOM_PARA='VALE',
           TABLE=TAB_OBS,
           FILTRE=(_F(CRIT_COMP='EQ',
                      NOM_PARA='NOM_CHAM',
                      VALE_K='VITE_ABSOLU',),
                   _F(NOM_PARA='NOM_OBSERVATION',
                      VALE_K='VITE_ABS_DX_NO1',),
                   _F(CRIT_COMP='EQ',
                      NOM_PARA='INST',
                      VALE=1.E-2,),
                   ),
           )

TEST_TABLE(
           VALE_CALC=0.58778525229247003,
           NOM_PARA='VALE',
           TABLE=TAB_OBS,
           FILTRE=(_F(CRIT_COMP='EQ',
                      NOM_PARA='NOM_CHAM',
                      VALE_K='ACCE_ABSOLU',),
                   _F(NOM_PARA='NOM_OBSERVATION',
                      VALE_K='ACCE_ABS_DX_NO1',),
                   _F(CRIT_COMP='EQ',
                      NOM_PARA='INST',
                      VALE=1.E-2,),
                   ),
           )

#
#=======================================================================
# 2/ ON ETUDIE LE SYSTEME A 2 DDL
#       ACCE_IMPO = ACCELER1 (SIN(OMEGAA*T)) EN X=0 NO1
#       ACCE_IMPO = ACCELER2 (-SIN(OMEGAA*T)) EN X=1 NO11
#----------------------------------------------------------------------
#
# MODELISATION
#

BICHOC=AFFE_MODELE(MAILLAGE=MAILLAGE,
                   AFFE=(_F(GROUP_MA=('RESSORTS','RESSORT2',),
                            PHENOMENE='MECANIQUE',
                            MODELISATION='DIS_TR',),
                         _F(GROUP_MA=('MASSES1','MASSES2',),
                            PHENOMENE='MECANIQUE',
                            MODELISATION='DIS_TR',),),);

CL_BICHO=AFFE_CHAR_MECA(MODELE=BICHOC,
                        DDL_IMPO=(_F(GROUP_NO='ENCBICHO',
                                     DX=0.,
                                     DY=0.,
                                     DZ=0.,
                                     DRX=0.,
                                     DRY=0.,
                                     DRZ=0.,),
                                  _F(GROUP_NO=('MASSES1','MASSES2',),
                                     DY=0.,
                                     DZ=0.,
                                     DRX=0.,
                                     DRY=0.,
                                     DRZ=0.,),),);

#

CARA_BIC=AFFE_CARA_ELEM(MODELE=BICHOC,
                        DISCRET=(_F(REPERE='GLOBAL',
                                    CARA='K_TR_D_L',
                                    GROUP_MA='RESSORTS',
                                    VALE=(98696.,0.,0.,0.,0.,0.,),),
                                 _F(REPERE='GLOBAL',
                                    CARA='M_TR_L',
                                    GROUP_MA='RESSORTS',
                                    VALE=(0.,0.,0.,0.,0.,0.,0.,0.,0.,0.,0.,0.,0.,0.,0.,0.,0.,0.,0.,0.,
                                    0.,0.,0.,0.,0.,0.,0.,0.,0.,0.,0.,0.,0.,0.,0.,0.,0.,0.,0.,0.,
                                    0.,0.,0.,0.,0.,0.,0.,0.,0.,0.,0.,0.,0.,0.,0.,0.,0.,0.,0.,0.,
                                    0.,0.,0.,0.,0.,0.,0.,0.,0.,0.,0.,0.,0.,0.,0.,0.,0.,0.,),),
                                 _F(REPERE='GLOBAL',
                                    CARA='A_TR_D_L',
                                    GROUP_MA='RESSORTS',
                                    VALE=(0.,0.,0.,0.,0.,0.,),),
                                 _F(REPERE='GLOBAL',
                                    CARA='K_TR_D_L',
                                    GROUP_MA='RESSORT2',
                                    VALE=(0.,0.,0.,0.,0.,0.,),),
                                 _F(REPERE='GLOBAL',
                                    CARA='M_TR_L',
                                    GROUP_MA='RESSORT2',
                                    VALE=(0.,0.,0.,0.,0.,0.,0.,0.,0.,0.,0.,0.,0.,0.,0.,0.,0.,0.,0.,0.,
                                    0.,0.,0.,0.,0.,0.,0.,0.,0.,0.,0.,0.,0.,0.,0.,0.,0.,0.,0.,0.,
                                    0.,0.,0.,0.,0.,0.,0.,0.,0.,0.,0.,0.,0.,0.,0.,0.,0.,0.,0.,0.,
                                    0.,0.,0.,0.,0.,0.,0.,0.,0.,0.,0.,0.,0.,0.,0.,0.,0.,0.,),),
                                 _F(REPERE='GLOBAL',
                                    CARA='A_TR_D_L',
                                    GROUP_MA='RESSORT2',
                                    VALE=(0.,0.,0.,0.,0.,0.,),),
                                 _F(CARA='M_TR_D_N',
                                    GROUP_MA='MASSES1',
                                    VALE=(25.,0.,0.,0.,0.,0.,0.,0.,0.,0.,),),
                                 _F(CARA='K_TR_D_N',
                                    GROUP_MA='MASSES1',
                                    VALE=(0.,0.,0.,0.,0.,0.,),),
                                 _F(CARA='A_TR_D_N',
                                    GROUP_MA='MASSES1',
                                    VALE=(0.,0.,0.,0.,0.,0.,),),
                                 _F(CARA='M_TR_D_N',
                                    GROUP_MA='MASSES2',
                                    VALE=(25.,0.,0.,0.,0.,0.,0.,0.,0.,0.,),),
                                 _F(CARA='K_TR_D_N',
                                    GROUP_MA='MASSES2',
                                    VALE=(0.,0.,0.,0.,0.,0.,),),
                                 _F(CARA='A_TR_D_N',
                                    GROUP_MA='MASSES2',
                                    VALE=(0.,0.,0.,0.,0.,0.,),),
                                    ),);

ASSEMBLAGE(MODELE=BICHOC,
                CARA_ELEM=CARA_BIC,
                CHARGE=CL_BICHO,
                NUME_DDL=CO('NUMDDLC'),
                SOLVEUR=_F(METHODE='LDLT',
                           RENUM='RCMK',),
                MATR_ASSE=(_F(MATRICE=CO('RIGI_BIC'),
                              OPTION='RIGI_MECA',),
                           _F(MATRICE=CO('MASS_BIC'),
                              OPTION='MASS_MECA',),),);

# CALCUL DES MODES STATIQUES AUX POINTS D ANCRAGE ET DES CHARGEMENTS
# SISMIQUES :

MSTA_BIC=MODE_STATIQUE(MATR_RIGI=RIGI_BIC,
                       MATR_MASS=MASS_BIC,
                       MODE_STAT=_F(TOUT='OUI',
                                    AVEC_CMP='DX',),);

#

MULT_X1=CALC_CHAR_SEISME(MATR_MASS=MASS_BIC,
                         DIRECTION=(1.,0.,0.,),
                         MODE_STAT=MSTA_BIC,
                         NOEUD='NO1',);

MULT_X2=CALC_CHAR_SEISME(MATR_MASS=MASS_BIC,
                         DIRECTION=(1.,0.,0.,),
                         MODE_STAT=MSTA_BIC,
                         NOEUD='NO11',);

CHAR_SE1=AFFE_CHAR_MECA(MODELE=BICHOC,
                        VECT_ASSE=MULT_X1,);

CHAR_SE2=AFFE_CHAR_MECA(MODELE=BICHOC,
                        VECT_ASSE=MULT_X2,);

MODE_BIC=CALC_MODES(MATR_RIGI=RIGI_BIC,
                    OPTION='BANDE',
                    CALC_FREQ=_F(FREQ=(1.,30.,),
                                 ),
                    MATR_MASS=MASS_BIC,
                    SOLVEUR_MODAL=_F(MODE_RIGIDE='NON',
                                     METHODE='TRI_DIAG',
                                     ),
                    )

MODE_BIC=NORM_MODE(reuse =MODE_BIC,
                   MODE=MODE_BIC,
                   NORME='MASS_GENE',);

# CALCUL DIRECT
# -------------

TRAN_DY2=DYNA_NON_LINE(MODELE=BICHOC,
                       CHAM_MATER=CHMAT,
                       MODE_STAT=MSTA_BIC,
                       CARA_ELEM=CARA_BIC,
                       EXCIT=(_F(CHARGE=CL_BICHO,),
                              _F(CHARGE=CHAR_SE1,
                                 DEPL=DEPLACE1,
                                 ACCE=ACCELER1,
                                 VITE=VITESSE1,
                                 MULT_APPUI='OUI',
                                 DIRECTION=(1.,0.,0.,),
                                 NOEUD='NO1',),
                              _F(CHARGE=CHAR_SE2,
                                 DEPL=DEPLACE2,
                                 ACCE=ACCELER2,
                                 VITE=VITESSE2,
                                 MULT_APPUI='OUI',
                                 DIRECTION=(1.,0.,0.,),
                                 NOEUD='NO11',),),
                       AMOR_MODAL=_F(MODE_MECA=MODE_BIC,
                                     AMOR_REDUIT=0.07,
                                     REAC_VITE='OUI',),
                       COMPORTEMENT=(_F(RELATION='ELAS',
                                     GROUP_MA='RESSORTS',),
                                  _F(RELATION='ELAS',
                                     GROUP_MA=('MASSES1','MASSES2',),),
                                  _F(RELATION='DIS_CHOC',
                                     GROUP_MA='RESSORT2',),),
                       INCREMENT=_F(LIST_INST=L_INST,INST_FIN=0.3,),
                       SCHEMA_TEMPS=_F(SCHEMA='NEWMARK',
                                       FORMULATION='DEPLACEMENT',),
                       NEWTON=_F(REAC_ITER=1,),
                       SOLVEUR=_F(METHODE='LDLT',
                                  RENUM='RCMK',),
                       CONVERGENCE=_F(RESI_GLOB_RELA=1.E-8,
                                      ITER_GLOB_MAXI=20,),
                       ARCHIVAGE=_F(LIST_INST=L_INST2,),);

TRAN_DY2=DYNA_NON_LINE(reuse = TRAN_DY2,ETAT_INIT=_F(EVOL_NOLI = TRAN_DY2),
                       MODELE=BICHOC,
                       CHAM_MATER=CHMAT,
                       MODE_STAT=MSTA_BIC,
                       CARA_ELEM=CARA_BIC,
                       EXCIT=(_F(CHARGE=CL_BICHO,),
                              _F(CHARGE=CHAR_SE1,
                                 DEPL=DEPLACE1,
                                 ACCE=ACCELER1,
                                 VITE=VITESSE1,
                                 MULT_APPUI='OUI',
                                 DIRECTION=(1.,0.,0.,),
                                 NOEUD='NO1',),
                              _F(CHARGE=CHAR_SE2,
                                 DEPL=DEPLACE2,
                                 ACCE=ACCELER2,
                                 VITE=VITESSE2,
                                 MULT_APPUI='OUI',
                                 DIRECTION=(1.,0.,0.,),
                                 NOEUD='NO11',),),
                       AMOR_MODAL=_F(MODE_MECA=MODE_BIC,
                                     AMOR_REDUIT=0.07,
                                     REAC_VITE='OUI',),
                       COMPORTEMENT=(_F(RELATION='ELAS',
                                     GROUP_MA='RESSORTS',),
                                  _F(RELATION='ELAS',
                                     GROUP_MA=('MASSES1','MASSES2',),),
                                  _F(RELATION='DIS_CHOC',
                                     GROUP_MA='RESSORT2',),),
                       INCREMENT=_F(LIST_INST=L_INST,),
                       SCHEMA_TEMPS=_F(SCHEMA='NEWMARK',
                                       FORMULATION='DEPLACEMENT',),
                       NEWTON=_F(REAC_ITER=1,),
                       SOLVEUR=_F(METHODE='LDLT',
                                  RENUM='RCMK',),
                       CONVERGENCE=_F(RESI_GLOB_RELA=1.E-8,
                                      ITER_GLOB_MAXI=20,),
                       ARCHIVAGE=_F(LIST_INST=L_INST2,),);

#
#=======================================================================
# RECUPERATION DES GRANDEURS CALCULEES
#----------------------------------------

DEPL_ENT=CALC_FONC_INTERP(FONCTION=DEPL1,
                          LIST_PARA=LISTIMP,
                          NOM_RESU='DEPL',
                          NOM_PARA='INST',
                          PROL_DROITE='LINEAIRE',
                          PROL_GAUCHE='LINEAIRE',
                          INFO=1,);

# DEPLACEMENTS RELATIFS CALCULES

NO2_DX_R=RECU_FONCTION(RESULTAT=TRAN_DY2,
                       LIST_INST=LISTIMP,
                       NOM_CHAM='DEPL',
                       NOM_CMP='DX',
                       NOEUD='NO2',
                       PROL_DROITE='LINEAIRE',
                       PROL_GAUCHE='LINEAIRE',);

NO2_DXR=RECU_FONCTION(RESULTAT=TRAN_DY,
                      LIST_INST=LISTIMP,
                      NOM_CHAM='DEPL',
                      NOM_CMP='DX',
                      NOEUD='NO2',
                      PROL_DROITE='LINEAIRE',
                      PROL_GAUCHE='LINEAIRE',);

# DEPLACEMENTS ABSOLUS CALCULES

NO2_DXA=RECU_FONCTION(RESULTAT=TRAN_DY,
                      LIST_INST=LISTIMP,
                      NOM_CHAM='DEPL_ABSOLU',
                      NOM_CMP='DX',
                      NOEUD='NO2',
                      PROL_DROITE='LINEAIRE',
                      PROL_GAUCHE='LINEAIRE',);

NO2_DX_A=RECU_FONCTION(RESULTAT=TRAN_DY2,
                       LIST_INST=LISTIMP,
                       NOM_CHAM='DEPL_ABSOLU',
                       NOM_CMP='DX',
                       NOEUD='NO2',
                       PROL_DROITE='LINEAIRE',
                       PROL_GAUCHE='LINEAIRE',);

#
# FORCES DE CHOC AU NOEUD NO2
# ---------------------------

EFF_CHOC=RECU_FONCTION(RESULTAT=TRAN_DY,
                       NOM_CHAM='SIEF_ELGA',
                       NOM_CMP='N',
                       MAILLE='ELM1',
                       POINT=1,
                       PROL_DROITE='LINEAIRE',
                       PROL_GAUCHE='LINEAIRE',);

EFFOCHOC=RECU_FONCTION(RESULTAT=TRAN_DY2,
                       NOM_CHAM='SIEF_ELGA',
                       NOM_CMP='N',
                       MAILLE='ELN2',
                       POINT=1,
                       PROL_DROITE='LINEAIRE',
                       PROL_GAUCHE='LINEAIRE',);

#
# TESTS
# -----

MAXF_CHO=INFO_FONCTION(MAX=_F(FONCTION=EFF_CHOC,),);

MAXFCHOC=INFO_FONCTION(MAX=_F(FONCTION=EFFOCHOC,),);

TEST_TABLE(PRECISION=1.E-2,
           VALE_CALC=629.304205396,
           VALE_REFE=629.28700000000003,
           REFERENCE='AUTRE_ASTER',
           NOM_PARA='N',
           TABLE=MAXF_CHO,
           FILTRE=(_F(NOM_PARA='FONCTION',
                      VALE_K='EFF_CHOC',),
                   _F(NOM_PARA='INST',
                      VALE=0.376,),
                   _F(NOM_PARA='TYPE',
                      VALE_K='MAXI',),
                   ),
           )

TEST_TABLE(PRECISION=1.E-2,
           VALE_CALC=-629.304205365,
           VALE_REFE=-629.28700000000003,
           REFERENCE='AUTRE_ASTER',
           NOM_PARA='N',
           TABLE=MAXFCHOC,
           FILTRE=(_F(NOM_PARA='FONCTION',
                      VALE_K='EFFOCHOC',),
                   _F(NOM_PARA='INST',
                      VALE=0.376,),
                   _F(NOM_PARA='TYPE',
                      VALE_K='MINI',),
                   ),
           )

DIFF=CALC_FONCTION(COMB=(_F(FONCTION=NO2_DX_A,
                            COEF=1.,),
                         _F(FONCTION=NO2_DXA,
                            COEF=-1.,),),);

TEST_FONCTION(VALEUR=(_F(VALE_CALC=0.0,
                         VALE_REFE=0.0,
                         REFERENCE='AUTRE_ASTER',
                         PRECISION=3.0E-05,
                         CRITERE='ABSOLU',
                         VALE_PARA=0.1,
                         FONCTION=DIFF,),
                      _F(VALE_CALC=0.0,
                         VALE_REFE=0.0,
                         REFERENCE='AUTRE_ASTER',
                         PRECISION=3.0E-05,
                         CRITERE='ABSOLU',
                         VALE_PARA=0.2,
                         FONCTION=DIFF,),
                      _F(VALE_CALC=0.0,
                         VALE_REFE=0.0,
                         REFERENCE='AUTRE_ASTER',
                         PRECISION=3.0E-05,
                         CRITERE='ABSOLU',
                         VALE_PARA=0.3,
                         FONCTION=DIFF,),
                      _F(VALE_CALC=0.0,
                         VALE_REFE=0.0,
                         REFERENCE='AUTRE_ASTER',
                         PRECISION=3.0E-05,
                         CRITERE='ABSOLU',
                         VALE_PARA=0.4,
                         FONCTION=DIFF,),
                      _F(VALE_CALC=0.0,
                         VALE_REFE=0.0,
                         REFERENCE='AUTRE_ASTER',
                         PRECISION=3.0E-05,
                         CRITERE='ABSOLU',
                         VALE_PARA=0.05,
                         FONCTION=DIFF,),
                      ),
              )

FIN();

#
