# MODIF  DATE 10/10/2012   AUTEUR COURTOIS M.COURTOIS 
# TITRE CALCUL DE LA PUISSANCE D'USURE D'UN PATIN FROTTANT
# sdnd104a.para = tps_job 60 mem_job 512Mo ncpus 1 liste_test S
#            CONFIGURATION MANAGEMENT OF EDF VERSION
# ======================================================================
# COPYRIGHT (C) 1991 - 2012  EDF R&D                  WWW.CODE-ASTER.ORG
# THIS PROGRAM IS FREE SOFTWARE; YOU CAN REDISTRIBUTE IT AND/OR MODIFY
# IT UNDER THE TERMS OF THE GNU GENERAL PUBLIC LICENSE AS PUBLISHED BY
# THE FREE SOFTWARE FOUNDATION; EITHER VERSION 2 OF THE LICENSE, OR
# (AT YOUR OPTION) ANY LATER VERSION.
#
# THIS PROGRAM IS DISTRIBUTED IN THE HOPE THAT IT WILL BE USEFUL, BUT
# WITHOUT ANY WARRANTY; WITHOUT EVEN THE IMPLIED WARRANTY OF
# MERCHANTABILITY OR FITNESS FOR A PARTICULAR PURPOSE. SEE THE GNU
# GENERAL PUBLIC LICENSE FOR MORE DETAILS.
#
# YOU SHOULD HAVE RECEIVED A COPY OF THE GNU GENERAL PUBLIC LICENSE
# ALONG WITH THIS PROGRAM; IF NOT, WRITE TO EDF R&D CODE_ASTER,
#    1 AVENUE DU GENERAL DE GAULLE, 92141 CLAMART CEDEX, FRANCE.
# ======================================================================
# CAS_TEST__:SDND104A
# FICHIER DE COMMANDE ASTER DU CAS-TEST DE FROTTEMNT A 1 DDL
#

DEBUT(CODE=_F(NOM='SDND104A',NIV_PUB_WEB='INTERNET'),DEBUG=_F(SDVERI='OUI'))

#

M=1.

K=3.E-05

G=10.

U0=0.85E-03

COULOMB=0.1

ANG=cos( pi / 4. )

#

POUTRE=LIRE_MAILLAGE( )

POUTRE=DEFI_GROUP( reuse=POUTRE,   MAILLAGE=POUTRE,
  CREA_GROUP_MA=_F(  NOM = 'TOUT', TOUT = 'OUI'))

#

MODELE=AFFE_MODELE(   MAILLAGE=POUTRE,
                         AFFE=_F( TOUT = 'OUI', PHENOMENE = 'MECANIQUE',
                        MODELISATION = 'DIS_T'))

#
CHAMPCAR=AFFE_CARA_ELEM(  MODELE=MODELE,DISCRET=(
                _F(
       GROUP_MA = 'TOUT',
 CARA = 'K_T_D_N', VALE = ( K, K, K, )),
                        _F(  GROUP_MA = 'TOUT', CARA = 'M_T_D_N', VALE = M))
                         )

#
CHARGE=AFFE_CHAR_MECA(  MODELE=MODELE,
             DDL_IMPO=_F( TOUT = 'OUI',  DY = 0.,DZ = 0.0)
                       )

#
RIGIELEM=CALC_MATR_ELEM(  MODELE=MODELE,  CHARGE=CHARGE,
                         CARA_ELEM=CHAMPCAR,
                         OPTION='RIGI_MECA')

#
MASSELEM=CALC_MATR_ELEM(  MODELE=MODELE,  CHARGE=CHARGE,
                         CARA_ELEM=CHAMPCAR,
                         OPTION='MASS_MECA')

#
VECTELEM=CALC_VECT_ELEM(   CHARGE=CHARGE,  OPTION='CHAR_MECA')

#
NUMEROTA=NUME_DDL(   MATR_RIGI=RIGIELEM )

#
MATRRIGI=ASSE_MATRICE(MATR_ELEM=RIGIELEM,NUME_DDL=NUMEROTA)

#
MATRMASS=ASSE_MATRICE(MATR_ELEM=MASSELEM,NUME_DDL=NUMEROTA)

#
MODES=MODE_ITER_INV(   MATR_RIGI=MATRRIGI,  MATR_MASS=MATRMASS,
                         CALC_FREQ=_F( OPTION = 'PROCHE',
                        NMAX_FREQ = 1,
                        FREQ = ( 1., )))


OMEGA=2.*pi

#
LINST=DEFI_LIST_REEL(DEBUT=0.0,
                     INTERVALLE=_F(JUSQU_A=12.,
                                   NOMBRE =10000,),);
ACCE1    = FORMULE(NOM_PARA='INST',VALE='15.*sin (OMEGA *INST)')
ACCELER1 = CALC_FONC_INTERP(FONCTION=ACCE1,
                            LIST_PARA=LINST,
                            NOM_PARA = 'INST',
                            PROL_GAUCHE='CONSTANT',
                            PROL_DROITE='CONSTANT' )
ACCE2    = FORMULE(NOM_PARA='INST',VALE='1.5*sin (OMEGA *INST)')
ACCELER2 = CALC_FONC_INTERP(FONCTION=ACCE2,
                            LIST_PARA=LINST,
                            NOM_PARA = 'INST',
                            PROL_GAUCHE='CONSTANT',
                            PROL_DROITE='CONSTANT' )
ACCE3    = FORMULE(NOM_PARA='INST',VALE='1.01*sin (OMEGA *INST)')
ACCELER3 = CALC_FONC_INTERP(FONCTION=ACCE3,
                            LIST_PARA=LINST,
                            NOM_PARA = 'INST',
                            PROL_GAUCHE='CONSTANT',
                            PROL_DROITE='CONSTANT' )
ACCE4    = FORMULE(NOM_PARA='INST',VALE='0.99*sin (OMEGA *INST)')
ACCELER4 = CALC_FONC_INTERP(FONCTION=ACCE4,
                            LIST_PARA=LINST,
                            NOM_PARA = 'INST',
                            PROL_GAUCHE='CONSTANT',
                            PROL_DROITE='CONSTANT' )

SEISME=CALC_CHAR_SEISME(   MATR_MASS=MATRMASS,
                         DIRECTION=( 1., 0., 0., ),  MONO_APPUI='OUI' )

#

U1=U0 * ANG

#
NUMEGE=NUME_DDL_GENE(   BASE=MODES,
                          STOCKAGE='DIAG' )

#
FGENE=PROJ_VECT_BASE(  BASE=MODES,  VECT_ASSE=SEISME,
                          NUME_DDL_GENE=NUMEGE
                       )

#
MASSEGEN=PROJ_MATR_BASE(  BASE=MODES,
                            NUME_DDL_GENE=NUMEGE,
                            MATR_ASSE=MATRMASS
                         )

#
RIGIDGEN=PROJ_MATR_BASE(  BASE=MODES,
                          NUME_DDL_GENE=NUMEGE,
                            MATR_ASSE=MATRRIGI
                         )

#
PLANZ=DEFI_OBSTACLE(   TYPE='PLAN_Z' )

#
DYNAMOA1=DYNA_VIBRA(TYPE_CALCUL='TRAN',BASE_CALCUL='GENE',
                               SCHEMA_TEMPS=_F(SCHEMA='ADAPT_ORDRE2',),
                               MATR_MASS=MASSEGEN,
                               MATR_RIGI=RIGIDGEN,
                               AMOR_MODAL=_F(AMOR_REDUIT=0.,),
                     EXCIT=_F(  VECT_ASSE_GENE = FGENE, FONC_MULT = ACCELER1),
                              INCREMENT=_F( INST_INIT = 0.,
                                         INST_FIN = 12.,
# POUR AMELIORER LE TEMPS CPU ON IMPOSE UN PAS_MAXI PLUS GRAND QUE PAS
                                         PAS_MAXI = 0.0001,
                                         PAS = 0.00001,
                                         NMAX_ITER_PAS=50,),
                             CHOC=_F(  NOEUD_1 = 'NO1',
                                    OBSTACLE = PLANZ,
                                    ORIG_OBST = (0., 0., 1.,),
                                    NORM_OBST = (0., 1., 0.,),
                                    JEU = 0.50,
                                    RIGI_NOR = 20.,
                                    RIGI_TAN = 9000000.,
                                    FROTTEMENT='COULOMB',
                                    COULOMB = COULOMB)
                           )

#
DYNAMOD1=DYNA_VIBRA(TYPE_CALCUL='TRAN',BASE_CALCUL='GENE',
                               SCHEMA_TEMPS=_F(SCHEMA='DEVOGE',),
                               MATR_MASS=MASSEGEN,
                               MATR_RIGI=RIGIDGEN,
                               AMOR_MODAL=_F(AMOR_REDUIT=0.,),
                     EXCIT=_F(  VECT_ASSE_GENE = FGENE, FONC_MULT = ACCELER1),
                              INCREMENT=_F( INST_INIT = 0.,
                                         INST_FIN = 12.,
                                         PAS = 0.0001),
                             CHOC=_F(  NOEUD_1 = 'NO1',
                                    OBSTACLE = PLANZ,
                                    ORIG_OBST = (0., 0., 1.,),
                                    NORM_OBST = (0., 1., 0.,),
                                    JEU = 0.50,
                                    RIGI_NOR = 20.,
                                    RIGI_TAN = 9000000.,
                                    FROTTEMENT='COULOMB',
                                    COULOMB = COULOMB)
                           )

#
DYNAMOE1=DYNA_VIBRA(TYPE_CALCUL='TRAN',BASE_CALCUL='GENE',
                                SCHEMA_TEMPS=_F(SCHEMA='EULER',),
                                MATR_MASS=MASSEGEN,
                                MATR_RIGI=RIGIDGEN,
                               AMOR_MODAL=_F(AMOR_REDUIT=0.,),
                     EXCIT=_F(  VECT_ASSE_GENE = FGENE, FONC_MULT = ACCELER1),
                              INCREMENT=_F( INST_INIT = 0.,
                                         INST_FIN = 12.,
                                         PAS = 0.0001),
                             CHOC=_F(  NOEUD_1 = 'NO1',
                                    OBSTACLE = PLANZ,
                                    ORIG_OBST = (0., 0., 1.,),
                                    NORM_OBST = (0., 1., 0.,),
                                    JEU = 0.50,
                                    RIGI_NOR = 20.,
                                    RIGI_TAN = 9000000.,
                                    FROTTEMENT='COULOMB',
                                    COULOMB = COULOMB)
                           )

#
DYNAMOA2=DYNA_VIBRA(TYPE_CALCUL='TRAN',BASE_CALCUL='GENE',
                               SCHEMA_TEMPS=_F(SCHEMA='ADAPT_ORDRE2',),
                               MATR_MASS=MASSEGEN,
                               MATR_RIGI=RIGIDGEN,
                               AMOR_MODAL=_F(AMOR_REDUIT=0.,),
                     EXCIT=_F(  VECT_ASSE_GENE = FGENE, FONC_MULT = ACCELER2),
                              INCREMENT=_F( INST_INIT = 0.,
                                         INST_FIN = 12.,
# POUR AMELIORER LE TEMPS CPU ON IMPOSE UN PAS_MAXI PLUS GRAND QUE PAS
                                         PAS_MAXI = 0.0001,
                                         PAS = 0.00001,
                                         NMAX_ITER_PAS=50,),
                             CHOC=_F(  NOEUD_1 = 'NO1',
                                    OBSTACLE = PLANZ,
                                    ORIG_OBST = (0., 0., 1.,),
                                    NORM_OBST = (0., 1., 0.,),
                                    JEU = 0.50,
                                    RIGI_NOR = 20.,
                                    RIGI_TAN = 9000000.,
                                    FROTTEMENT='COULOMB',
                                    COULOMB = COULOMB)
                           )

#
DYNAMOD2=DYNA_VIBRA(TYPE_CALCUL='TRAN',BASE_CALCUL='GENE',
                               SCHEMA_TEMPS=_F(SCHEMA='DEVOGE',),
                               MATR_MASS=MASSEGEN,
                               MATR_RIGI=RIGIDGEN,
                               AMOR_MODAL=_F(AMOR_REDUIT=0.,),
                     EXCIT=_F(  VECT_ASSE_GENE = FGENE, FONC_MULT = ACCELER2),
                              INCREMENT=_F( INST_INIT = 0.,
                                         INST_FIN = 12.,
                                         PAS = 0.0001),
                             CHOC=_F(  NOEUD_1 = 'NO1',
                                    OBSTACLE = PLANZ,
                                    ORIG_OBST = (0., 0., 1.,),
                                    NORM_OBST = (0., 1., 0.,),
                                    JEU = 0.50,
                                    RIGI_NOR = 20.,
                                    RIGI_TAN = 9000000.,
                                    FROTTEMENT='COULOMB',
                                    COULOMB = COULOMB)
                           )

#
DYNAMOE2=DYNA_VIBRA(TYPE_CALCUL='TRAN',BASE_CALCUL='GENE',
                               SCHEMA_TEMPS=_F(SCHEMA='EULER',),
                                MATR_MASS=MASSEGEN,
                                MATR_RIGI=RIGIDGEN,
                               AMOR_MODAL=_F(AMOR_REDUIT=0.,),
                     EXCIT=_F(  VECT_ASSE_GENE = FGENE, FONC_MULT = ACCELER2),
                              INCREMENT=_F( INST_INIT = 0.,
                                         INST_FIN = 12.,
                                         PAS = 0.0001),
                             CHOC=_F(  NOEUD_1 = 'NO1',
                                    OBSTACLE = PLANZ,
                                    ORIG_OBST = (0., 0., 1.,),
                                    NORM_OBST = (0., 1., 0.,),
                                    JEU = 0.50,
                                    RIGI_NOR = 20.,
                                    RIGI_TAN = 9000000.,
                                    FROTTEMENT='COULOMB',
                                    COULOMB = COULOMB)
                           )

#
DYNAMOA3=DYNA_VIBRA(TYPE_CALCUL='TRAN',BASE_CALCUL='GENE',
                               SCHEMA_TEMPS=_F(SCHEMA='ADAPT_ORDRE2',),
                                MATR_MASS=MASSEGEN,
                                MATR_RIGI=RIGIDGEN,
                               AMOR_MODAL=_F(AMOR_REDUIT=0.,),
                     EXCIT=_F(  VECT_ASSE_GENE = FGENE, FONC_MULT = ACCELER3),
                              INCREMENT=_F( INST_INIT = 0.,
                                         INST_FIN = 12.,
# POUR AMELIORER LE TEMPS CPU ON IMPOSE UN PAS_MAXI PLUS GRAND QUE PAS
                                         PAS_MAXI = 0.0001,
                                         PAS = 0.00001,
                                         NMAX_ITER_PAS=50,),
                             CHOC=_F(  NOEUD_1 = 'NO1',
                                    OBSTACLE = PLANZ,
                                    ORIG_OBST = (0., 0., 1.,),
                                    NORM_OBST = (0., 1., 0.,),
                                    JEU = 0.50,
                                    RIGI_NOR = 20.,
                                    RIGI_TAN = 9000000.,
                                    FROTTEMENT='COULOMB',
                                    COULOMB = COULOMB)
                           )

#
DYNAMOD3=DYNA_VIBRA(TYPE_CALCUL='TRAN',BASE_CALCUL='GENE',
                               SCHEMA_TEMPS=_F(SCHEMA='DEVOGE',),
                                MATR_MASS=MASSEGEN,
                                MATR_RIGI=RIGIDGEN,
                               AMOR_MODAL=_F(AMOR_REDUIT=0.,),
                     EXCIT=_F(  VECT_ASSE_GENE = FGENE, FONC_MULT = ACCELER3),
                              INCREMENT=_F( INST_INIT = 0.,
                                         INST_FIN = 12.,
                                         PAS = 0.0001),
                             CHOC=_F(  NOEUD_1 = 'NO1',
                                    OBSTACLE = PLANZ,
                                    ORIG_OBST = (0., 0., 1.,),
                                    NORM_OBST = (0., 1., 0.,),
                                    JEU = 0.50,
                                    RIGI_NOR = 20.,
                                    RIGI_TAN = 9000000.,
                                    FROTTEMENT='COULOMB',
                                    COULOMB = COULOMB)
                           )

#
DYNAMOE3=DYNA_VIBRA(TYPE_CALCUL='TRAN',BASE_CALCUL='GENE',
                               SCHEMA_TEMPS=_F(SCHEMA='EULER',),
                                MATR_MASS=MASSEGEN,
                                MATR_RIGI=RIGIDGEN,
                               AMOR_MODAL=_F(AMOR_REDUIT=0.,),
                     EXCIT=_F(  VECT_ASSE_GENE = FGENE, FONC_MULT = ACCELER3),
                              INCREMENT=_F( INST_INIT = 0.,
                                         INST_FIN = 12.,
                                         PAS = 0.0001),
                             CHOC=_F(  NOEUD_1 = 'NO1',
                                    OBSTACLE = PLANZ,
                                    ORIG_OBST = (0., 0., 1.,),
                                    NORM_OBST = (0., 1., 0.,),
                                    JEU = 0.50,
                                    RIGI_NOR = 20.,
                                    RIGI_TAN = 9000000.,
                                    FROTTEMENT='COULOMB',
                                    COULOMB = COULOMB)
                           )

#
DYNAMOA4=DYNA_VIBRA(TYPE_CALCUL='TRAN',BASE_CALCUL='GENE',
                               SCHEMA_TEMPS=_F(SCHEMA='ADAPT_ORDRE2',),
                                MATR_MASS=MASSEGEN,
                                MATR_RIGI=RIGIDGEN,
                               AMOR_MODAL=_F(AMOR_REDUIT=0.,),
                     EXCIT=_F(  VECT_ASSE_GENE = FGENE, FONC_MULT = ACCELER4),
                              INCREMENT=_F( INST_INIT = 0.,
                                         INST_FIN = 12.,
# ON IMPOSE PAS_MAXI = PAS POUR RETROUVER LES ANCIENS RESULTATS
# POUR AMELIORER LE TEMPS CPU IL VAUT MIEUX TESTER AVEC UN PAS_MAXI PLUS GRAND
                                         PAS_MAXI = 0.0001,
                                         PAS = 0.00001,
                                         NMAX_ITER_PAS=50,),
                             CHOC=_F(  NOEUD_1 = 'NO1',
                                    OBSTACLE = PLANZ,
                                    ORIG_OBST = (0., 0., 1.,),
                                    NORM_OBST = (0., 1., 0.,),
                                    JEU = 0.50,
                                    RIGI_NOR = 20.,
                                    RIGI_TAN = 9000000.,
                                    FROTTEMENT='COULOMB',
                                    COULOMB = COULOMB)
                           )

#
DYNAMOD4=DYNA_VIBRA(TYPE_CALCUL='TRAN',BASE_CALCUL='GENE',
                               SCHEMA_TEMPS=_F(SCHEMA='DEVOGE',),
                                MATR_MASS=MASSEGEN,
                                MATR_RIGI=RIGIDGEN,
                               AMOR_MODAL=_F(AMOR_REDUIT=0.,),
                     EXCIT=_F(  VECT_ASSE_GENE = FGENE, FONC_MULT = ACCELER4),
                              INCREMENT=_F( INST_INIT = 0.,
                                         INST_FIN = 12.,
                                         PAS = 0.0001),
                             CHOC=_F(  NOEUD_1 = 'NO1',
                                    OBSTACLE = PLANZ,
                                    ORIG_OBST = (0., 0., 1.,),
                                    NORM_OBST = (0., 1., 0.,),
                                    JEU = 0.50,
                                    RIGI_NOR = 20.,
                                    RIGI_TAN = 9000000.,
                                    FROTTEMENT='COULOMB',
                                    COULOMB = COULOMB)
                           )

#
DYNAMOE4=DYNA_VIBRA(TYPE_CALCUL='TRAN',BASE_CALCUL='GENE',
                               SCHEMA_TEMPS=_F(SCHEMA='EULER',),
                                MATR_MASS=MASSEGEN,
                                MATR_RIGI=RIGIDGEN,
                               AMOR_MODAL=_F(AMOR_REDUIT=0.,),
                     EXCIT=_F(  VECT_ASSE_GENE = FGENE, FONC_MULT = ACCELER4),
                              INCREMENT=_F( INST_INIT = 0.,
                                         INST_FIN = 12.,
                                         PAS = 0.0001),
                             CHOC=_F(  NOEUD_1 = 'NO1',
                                    OBSTACLE = PLANZ,
                                    ORIG_OBST = (0., 0., 1.,),
                                    NORM_OBST = (0., 1., 0.,),
                                    JEU = 0.50,
                                    RIGI_NOR = 20.,
                                    RIGI_TAN = 9000000.,
                                    FROTTEMENT='COULOMB',
                                    COULOMB = COULOMB)
                           )

#
#
TTA1=POST_DYNA_MODA_T(   RESU_GENE=DYNAMOA1,
                          CHOC=_F(   INST_INIT = 4.,
                                  INST_FIN = 12.,
                                  SEUIL_FORCE = 0.,
                                  DUREE_REPOS = 0.001,
                                  NB_BLOC = 8,
                                  OPTION = 'USURE',
                                  NB_CLASSE = 8),
                           INFO=2
                       )

#
TTD1=POST_DYNA_MODA_T(    RESU_GENE=DYNAMOD1,
                          CHOC=_F(   INST_INIT = 4.,
                                  INST_FIN = 12.,
                                  SEUIL_FORCE = 0.,
                                  DUREE_REPOS = 0.001,
                                  NB_BLOC = 8,
                                  OPTION = 'USURE',
                                  NB_CLASSE = 8),
                           INFO=2
                       )

#
TTE1=POST_DYNA_MODA_T(   RESU_GENE=DYNAMOE1,
                          CHOC=_F(   INST_INIT = 4.,
                                  INST_FIN = 12.,
                                  SEUIL_FORCE = 0.,
                                  DUREE_REPOS = 0.001,
                                  NB_BLOC = 8,
                                  OPTION = 'USURE',
                                  NB_CLASSE = 8),
                           INFO=2
                       )

#
TTA2=POST_DYNA_MODA_T(   RESU_GENE=DYNAMOA2,
                          CHOC=_F(   INST_INIT = 4.,
                                  INST_FIN = 12.,
                                  SEUIL_FORCE = 0.,
                                  DUREE_REPOS = 0.001,
                                  NB_BLOC = 8,
                                  OPTION = 'USURE',
                                  NB_CLASSE = 8),
                           INFO=2
                       )

#
TTD2=POST_DYNA_MODA_T(    RESU_GENE=DYNAMOD2,
                          CHOC=_F(   INST_INIT = 4.,
                                  INST_FIN = 12.,
                                  SEUIL_FORCE = 0.,
                                  DUREE_REPOS = 0.001,
                                  NB_BLOC = 8,
                                  OPTION = 'USURE',
                                  NB_CLASSE = 8),
                           INFO=2
                       )

#
TTE2=POST_DYNA_MODA_T(   RESU_GENE=DYNAMOE2,
                          CHOC=_F(   INST_INIT = 4.,
                                  INST_FIN = 12.,
                                  SEUIL_FORCE = 0.,
                                  DUREE_REPOS = 0.001,
                                  NB_BLOC = 8,
                                  OPTION = 'USURE',
                                  NB_CLASSE = 8),
                           INFO=2
                       )

#
TTA3=POST_DYNA_MODA_T(   RESU_GENE=DYNAMOA3,
                          CHOC=_F(   INST_INIT = 4.,
                                  INST_FIN = 12.,
                                  SEUIL_FORCE = 0.,
                                  DUREE_REPOS = 0.001,
                                  NB_BLOC = 8,
                                  OPTION = 'USURE',
                                  NB_CLASSE = 8),
                           INFO=2
                       )

#
TTD3=POST_DYNA_MODA_T(    RESU_GENE=DYNAMOD3,
                          CHOC=_F(   INST_INIT = 4.,
                                  INST_FIN = 12.,
                                  SEUIL_FORCE = 0.,
                                  DUREE_REPOS = 0.001,
                                  NB_BLOC = 8,
                                  OPTION = 'USURE',
                                  NB_CLASSE = 8),
                           INFO=2
                       )

#
TTE3=POST_DYNA_MODA_T(   RESU_GENE=DYNAMOE3,
                          CHOC=_F(   INST_INIT = 4.,
                                  INST_FIN = 12.,
                                  SEUIL_FORCE = 0.,
                                  DUREE_REPOS = 0.001,
                                  NB_BLOC = 8,
                                  OPTION = 'USURE',
                                  NB_CLASSE = 8),
                           INFO=2
                       )

#
TTA4=POST_DYNA_MODA_T(   RESU_GENE=DYNAMOA4,
                          CHOC=_F(   INST_INIT = 4.,
                                  INST_FIN = 12.,
                                  SEUIL_FORCE = 0.,
                                  DUREE_REPOS = 0.001,
                                  NB_BLOC = 8,
                                  OPTION = 'USURE',
                                  NB_CLASSE = 8),
                           INFO=2
                       )

#
TTD4=POST_DYNA_MODA_T(    RESU_GENE=DYNAMOD4,
                          CHOC=_F(   INST_INIT = 4.,
                                  INST_FIN = 12.,
                                  SEUIL_FORCE = 0.,
                                  DUREE_REPOS = 0.001,
                                  NB_BLOC = 8,
                                  OPTION = 'USURE',
                                  NB_CLASSE = 8),
                           INFO=2
                       )

#
TTE4=POST_DYNA_MODA_T(   RESU_GENE=DYNAMOE4,
                          CHOC=_F(   INST_INIT = 4.,
                                  INST_FIN = 12.,
                                  SEUIL_FORCE = 0.,
                                  DUREE_REPOS = 0.001,
                                  NB_BLOC = 8,
                                  OPTION = 'USURE',
                                  NB_CLASSE = 8),
                           INFO=2
                       )

#
TEST_TABLE(CRITERE='RELATIF',
           VALE_CALC=15.267099589400001,
           TOLE_MACHINE=8.0000000000000007E-05,
           NOM_PARA='PUIS_USURE',
           TABLE=TTA1,
           FILTRE=_F(NOM_PARA='NOEUD',
                     VALE_K='NO1',),
           )

#
TEST_TABLE(CRITERE='RELATIF',
           VALE_CALC=15.267099589400001,
           TOLE_MACHINE=5.0000000000000002E-05,
           NOM_PARA='PUIS_USURE',
           TABLE=TTD1,
           FILTRE=_F(NOM_PARA='NOEUD',
                     VALE_K='NO1',),
           )

#
TEST_TABLE(CRITERE='RELATIF',
           VALE_CALC=15.267099589400001,
           TOLE_MACHINE=3.0000000000000001E-05,
           NOM_PARA='PUIS_USURE',
           TABLE=TTE1,
           FILTRE=_F(NOM_PARA='NOEUD',
                     VALE_K='NO1',),
           )

#
TEST_TABLE(CRITERE='RELATIF',
           VALE_CALC=0.40906245000000002,
           TOLE_MACHINE=5.0000000000000002E-05,
           NOM_PARA='PUIS_USURE',
           TABLE=TTA2,
           FILTRE=_F(NOM_PARA='NOEUD',
                     VALE_K='NO1',),
           )

#
TEST_TABLE(CRITERE='RELATIF',
           VALE_CALC=0.40906245000000002,
           TOLE_MACHINE=5.0000000000000002E-05,
           NOM_PARA='PUIS_USURE',
           TABLE=TTD2,
           FILTRE=_F(NOM_PARA='NOEUD',
                     VALE_K='NO1',),
           )

#
TEST_TABLE(CRITERE='RELATIF',
           VALE_CALC=0.40906245000000002,
           TOLE_MACHINE=5.0000000000000002E-05,
           NOM_PARA='PUIS_USURE',
           TABLE=TTE2,
           FILTRE=_F(NOM_PARA='NOEUD',
                     VALE_K='NO1',),
           )

#
TEST_TABLE(CRITERE='RELATIF',
           PRECISION=0.014,
           VALE_CALC= 2.27146953E-04,
           VALE_REFE=2.2616410000000001E-4,
           REFERENCE='NON_DEFINI',
           NOM_PARA='PUIS_USURE',
           TABLE=TTA3,
           FILTRE=_F(NOM_PARA='NOEUD',
                     VALE_K='NO1',),
           )

#
TEST_TABLE(CRITERE='RELATIF',
           VALE_CALC=2.2616410000000001E-4,
           TOLE_MACHINE=8.0000000000000004E-4,
           NOM_PARA='PUIS_USURE',
           TABLE=TTD3,
           FILTRE=_F(NOM_PARA='NOEUD',
                     VALE_K='NO1',),
           )

#
TEST_TABLE(CRITERE='RELATIF',
           VALE_CALC=2.2616410000000001E-4,
           TOLE_MACHINE=8.0000000000000004E-4,
           NOM_PARA='PUIS_USURE',
           TABLE=TTE3,
           FILTRE=_F(NOM_PARA='NOEUD',
                     VALE_K='NO1',),
           )

#
TEST_TABLE(CRITERE='ABSOLU',
           VALE_CALC=0.0,
           TOLE_MACHINE=1.0000000000000001E-05,
           NOM_PARA='PUIS_USURE',
           TABLE=TTA4,
           FILTRE=_F(NOM_PARA='NOEUD',
                     VALE_K='NO1',),
           )

#
TEST_TABLE(CRITERE='ABSOLU',
           VALE_CALC=0.0,
           TOLE_MACHINE=1.0000000000000001E-05,
           NOM_PARA='PUIS_USURE',
           TABLE=TTD4,
           FILTRE=_F(NOM_PARA='NOEUD',
                     VALE_K='NO1',),
           )

#
TEST_TABLE(CRITERE='ABSOLU',
           VALE_CALC=0.0,
           TOLE_MACHINE=1.0000000000000001E-05,
           NOM_PARA='PUIS_USURE',
           TABLE=TTE4,
           FILTRE=_F(NOM_PARA='NOEUD',
                     VALE_K='NO1',),
           )

#
FIN( )
#






