# MODIF  DATE 31/05/2011   AUTEUR NISTOR I.NISTOR 
# TITRE LACHER D'UN PATIN FROTTANT
#            CONFIGURATION MANAGEMENT OF EDF VERSION
# ======================================================================
# COPYRIGHT (C) 1991 - 2011  EDF R&D                  WWW.CODE-ASTER.ORG
# THIS PROGRAM IS FREE SOFTWARE; YOU CAN REDISTRIBUTE IT AND/OR MODIFY
# IT UNDER THE TERMS OF THE GNU GENERAL PUBLIC LICENSE AS PUBLISHED BY
# THE FREE SOFTWARE FOUNDATION; EITHER VERSION 2 OF THE LICENSE, OR
# (AT YOUR OPTION) ANY LATER VERSION.
#
# THIS PROGRAM IS DISTRIBUTED IN THE HOPE THAT IT WILL BE USEFUL, BUT
# WITHOUT ANY WARRANTY; WITHOUT EVEN THE IMPLIED WARRANTY OF
# MERCHANTABILITY OR FITNESS FOR A PARTICULAR PURPOSE. SEE THE GNU
# GENERAL PUBLIC LICENSE FOR MORE DETAILS.
#
# YOU SHOULD HAVE RECEIVED A COPY OF THE GNU GENERAL PUBLIC LICENSE
# ALONG WITH THIS PROGRAM; IF NOT, WRITE TO EDF R&D CODE_ASTER,
#    1 AVENUE DU GENERAL DE GAULLE, 92141 CLAMART CEDEX, FRANCE.
# ======================================================================
# CAS_TEST__:SDND100A
#   FICHIER DE COMMANDE ASTER DU CAS-TEST DE FROTTEMNT A 1 DDL
#

DEBUT( CODE=_F(  NOM = 'SDND100A',NIV_PUB_WEB='INTERNET'),DEBUG=_F(SDVERI='OUI'))

#

M=1.

K=1.E+04

G=10.

U0=0.85E-03

COULOMB=0.1

ANG=cos( pi / 4. )

#

POUTRE=LIRE_MAILLAGE( )

POUTRE=DEFI_GROUP( reuse=POUTRE,   MAILLAGE=POUTRE,
  CREA_GROUP_MA=_F(  NOM = 'TOUT', TOUT = 'OUI'))

#

MODELE=AFFE_MODELE(   MAILLAGE=POUTRE,
                         AFFE=_F( TOUT = 'OUI', PHENOMENE = 'MECANIQUE',
                        MODELISATION = 'DIS_T'))

#
CHAMPCAR=AFFE_CARA_ELEM(  MODELE=MODELE,DISCRET=(
                _F(
       GROUP_MA = 'TOUT',
 CARA = 'K_T_D_N', VALE = ( K, K, K, )),
                        _F(  GROUP_MA = 'TOUT', CARA = 'M_T_D_N', VALE = M))
                         )

#
mANG=-ANG
CHARGE=AFFE_CHAR_MECA(  MODELE=MODELE,
             DDL_IMPO=_F( TOUT = 'OUI',  DZ = 0.0),
             LIAISON_DDL=_F(  NOEUD = (  'NO1',   'NO1', ),
                           DDL = ( 'DX',  'DY', ),
                           COEF_MULT = (  ANG,  mANG, ),
                           COEF_IMPO = 0.))

#
FORCE=AFFE_CHAR_MECA(  MODELE=MODELE,
                     FORCE_NODALE=_F( NOEUD = 'NO1',  FX = 1.)
                       )

#
RIGIELEM=CALC_MATR_ELEM(  MODELE=MODELE,  CHARGE=CHARGE,
                         CARA_ELEM=CHAMPCAR,
                         OPTION='RIGI_MECA')

#
MASSELEM=CALC_MATR_ELEM(  MODELE=MODELE,  CHARGE=CHARGE,
                         CARA_ELEM=CHAMPCAR,
                         OPTION='MASS_MECA')

#
VECTELEM=CALC_VECT_ELEM(   CHARGE=CHARGE,  OPTION='CHAR_MECA')

VECTEL1=CALC_VECT_ELEM(   CHARGE=FORCE,   OPTION='CHAR_MECA')

#
#
NUMEROTA=NUME_DDL(   MATR_RIGI=RIGIELEM )

#
MATRRIGI=ASSE_MATRICE(MATR_ELEM=RIGIELEM,NUME_DDL=NUMEROTA)

#
MATRMASS=ASSE_MATRICE(MATR_ELEM=MASSELEM,NUME_DDL=NUMEROTA)

#
VECTASS=ASSE_VECTEUR(   VECT_ELEM=VECTEL1,  NUME_DDL=NUMEROTA)

#
MODES=MODE_ITER_INV(   MATR_A=MATRRIGI,  MATR_B=MATRMASS,
                         CALC_FREQ=_F( OPTION = 'PROCHE',
                        NMAX_FREQ = 1,
                        FREQ = ( 15., )))

#

U1=U0 * ANG

DEPLPHYS=CREA_CHAMP( OPERATION='AFFE', TYPE_CHAM='NOEU_DEPL_R',
MAILLAGE=POUTRE,
                             CHAM_NO=VECTASS,
                            AFFE=_F(  TOUT = 'OUI',
                                   NOM_CMP = ( 'DX', 'DY', ),
                                   VALE = (  U1,   U1,  ))
                          )

#
NUMEGE=NUME_DDL_GENE(   BASE=MODES,
                          STOCKAGE='DIAG' )

#
DEPINI=PROJ_VECT_BASE(  BASE=MODES,  VECT_ASSE=DEPLPHYS,
                          NUME_DDL_GENE=NUMEGE,
                          TYPE_VECT='DEPL')

#
MASSEGEN=PROJ_MATR_BASE(  BASE=MODES,
                            NUME_DDL_GENE=NUMEGE,
                            MATR_ASSE=MATRMASS
                         )

#
RIGIDGEN=PROJ_MATR_BASE(  BASE=MODES,
                          NUME_DDL_GENE=NUMEGE,
                            MATR_ASSE=MATRRIGI
                         )

#
PLANZ=DEFI_OBSTACLE(   TYPE='PLAN_Z' )

PLANY=DEFI_OBSTACLE(   TYPE='PLAN_Y' )

#
DYNAMODA=DYNA_TRAN_MODAL(       SCHEMA_TEMPS=_F(SCHEMA='EULER',),
                                MATR_MASS=MASSEGEN,
                                MATR_RIGI=RIGIDGEN,
                               AMOR_MODAL=_F(AMOR_REDUIT=0.,),
                              ETAT_INIT=_F( DEPL = DEPINI),
                              INCREMENT=_F( INST_INIT = 0.,
                                         INST_FIN = 0.3,
                                         PAS = 0.0005),
                             CHOC=_F(  NOEUD_1 = 'NO1',
                                    OBSTACLE = PLANZ,
                                    ORIG_OBST = (0., 0., 1.,),
                                    NORM_OBST = (0., 1., 0.,),
                                    JEU = 0.50,
                                    RIGI_NOR = 20.,
                                    RIGI_TAN = 400000.,
                                    FROTTEMENT='COULOMB',
                                    COULOMB = COULOMB)
                           )

#

W0=( K / M ) ** 0.5

C=COULOMB * M * G / K

T1=pi / W0

R1=( ( 2. * C ) - U0 ) * ANG

T2=2. * pi / W0

R2=( U0 - ( 4. * C ) ) * ANG

T3=3. * pi / W0

R3=( ( 6. * C ) - U0 ) * ANG

T4=4. * pi / W0

R4=( U0 - ( 8. * C ) ) * ANG

DYNATRA1=REST_GENE_PHYS(   RESU_GENE=DYNAMODA,
                               NOM_CHAM='DEPL',
                               NOEUD = 'NO1',
                               INTERPOL='LIN',
                               INST=( T1, T2, T3, T4, )
                          )

TEST_RESU(RESU=( _F(  RESULTAT = DYNATRA1,  NUME_ORDRE = 1,
                   NOM_CHAM = 'DEPL',    NOEUD = 'NO1',    NOM_CMP = 'DY',
                   PRECISION = 0.001,     VALE = R1),

                 _F(  RESULTAT = DYNATRA1,  NUME_ORDRE = 2,
                   NOM_CHAM = 'DEPL',    NOEUD = 'NO1',    NOM_CMP = 'DY',
                   PRECISION = 0.001,     VALE = R2),

                 _F(  RESULTAT = DYNATRA1,  NUME_ORDRE = 3,
                   NOM_CHAM = 'DEPL',    NOEUD = 'NO1',    NOM_CMP = 'DY',
                   PRECISION = 0.001,     VALE = R3),

                 _F(  RESULTAT = DYNATRA1,  NUME_ORDRE = 4,
                   NOM_CHAM = 'DEPL',    NOEUD = 'NO1',    NOM_CMP = 'DY',
                   PRECISION = 0.005,     VALE = R4))
           )

#
FIN( )
#
