# TITRE CALCUL DE MODE NON-LINEAIRE SYST 1 DDL (AFFE_CHAR_CINE)
# ======================================================================
# COPYRIGHT (C) 1991 - 2015  EDF R&D                  WWW.CODE-ASTER.ORG
# THIS PROGRAM IS FREE SOFTWARE; YOU CAN REDISTRIBUTE IT AND/OR MODIFY
# IT UNDER THE TERMS OF THE GNU GENERAL PUBLIC LICENSE AS PUBLISHED BY
# THE FREE SOFTWARE FOUNDATION; EITHER VERSION 2 OF THE LICENSE, OR
# (AT YOUR OPTION) ANY LATER VERSION.
#
# THIS PROGRAM IS DISTRIBUTED IN THE HOPE THAT IT WILL BE USEFUL, BUT
# WITHOUT ANY WARRANTY; WITHOUT EVEN THE IMPLIED WARRANTY OF
# MERCHANTABILITY OR FITNESS FOR A PARTICULAR PURPOSE. SEE THE GNU
# GENERAL PUBLIC LICENSE FOR MORE DETAILS.
#
# YOU SHOULD HAVE RECEIVED A COPY OF THE GNU GENERAL PUBLIC LICENSE
# ALONG WITH THIS PROGRAM; IF NOT, WRITE TO EDF R&D CODE_ASTER,
#    1 AVENUE DU GENERAL DE GAULLE, 92141 CLAMART CEDEX, FRANCE.
# ======================================================================

import math
m=1.
k = 10.

DEBUT(CODE=_F(NIV_PUB_WEB='INTERNET'),
      IGNORE_ALARM='FONCT0_62',  #abscisses re-ordonnees dues a table enrichie (reuse)
     )

MA=LIRE_MAILLAGE(FORMAT='ASTER',);

MO = AFFE_MODELE( MAILLAGE = MA,
        AFFE = (_F(  MAILLE=('M1','P2',), PHENOMENE='MECANIQUE', MODELISATION = 'DIS_T'),
                ),)

CARA_ELE =AFFE_CARA_ELEM(  MODELE=MO,
                          DISCRET=(_F(  MAILLE = ('P2',  ),
                                        CARA = 'M_T_D_N',  VALE = m),
                                   _F(  MAILLE = 'M1',  CARA = 'K_T_D_L',
                                        VALE = (k, 0., 0.,),  REPERE = 'GLOBAL'),
                                   _F(  MAILLE = 'P2',  CARA = 'K_T_D_N',
                                        VALE = (0, 0., 0.,),  ),
                         ),)

CDL=AFFE_CHAR_CINE(  MODELE=MO,MECA_IMPO=( _F(  NOEUD='N1', DX = 0., DY = 0., DZ = 0.,),
                                            _F(  NOEUD='N2', DY = 0., DZ = 0.,),
                  ),)

Ke=CALC_MATR_ELEM(OPTION='RIGI_MECA',
                  MODELE=MO,
                  CARA_ELEM=CARA_ELE,);

Me=CALC_MATR_ELEM(OPTION='MASS_MECA',
                  MODELE=MO,
                  CARA_ELEM=CARA_ELE,);

NUM=NUME_DDL(MATR_RIGI=Ke,);

K=ASSE_MATRICE(MATR_ELEM=Ke,
               NUME_DDL=NUM,
               CHAR_CINE=CDL,);

M=ASSE_MATRICE(MATR_ELEM=Me,
               NUME_DDL=NUM,
               CHAR_CINE=CDL,);

MODES=CALC_MODES(MATR_RIGI=K,
                 CALC_FREQ=_F(FREQ=(0.01,10.,),
                              ),
                 OPTION='BANDE',
                 SOLVEUR=_F(METHODE='MUMPS',
                            ),
                 MATR_MASS=M,
                 SOLVEUR_MODAL=_F(METHODE='SORENSEN',
                                  ),
                 )

# les parametres pour MODE_NON_LINE
hu=5;
hf=200;
nbranch=105;
ndiscr=1;
kchoc = 50.
jeu = 0.01

MNL = MODE_NON_LINE(MATR_RIGI=K,   INFO=1,
                 MATR_MASS=M,
                 ETAT_INIT=_F(MODE_LINE = MODES,NUME_ORDRE = 1,
                              DIR_EVOLUTION=1,),
                 # Le mot cle RESI_RELA=1.e-10 permet de se convaincre que
                 # les systemes lineaires sont resolus avec precision.
                 SOLVEUR=_F(METHODE='MUMPS', RESI_RELA=1.e-10),
                 RESOLUTION=_F(METHODE='EHMAN',
                            NB_HARM_LINE=hu,
                            NB_HARM_NONL=hf,
                            NB_PAS_MAN=ndiscr,
                            NB_BRANCHE=nbranch,
                            NB_ORDRE_MAN=20,
                            PREC_MAN=1.E-14,
                            PREC_NEWTON=1.E-09,
                            ITER_NEWTON_MAXI=15),
                 CHOC=(_F(NOEUD='N2',
                          OBSTACLE = 'PLAN',
                          NOM_CMP='DX',
                          JEU=jeu,
                          RIGI_NOR=kchoc,
                          PARA_REGUL=0.00005,),
                      ),
                 )

#test recuperation caracteristiques de choc
CHOCX = EXTR_TABLE(TABLE=MNL,
                     TYPE_RESU = 'TABLE_SDASTER',
                     NOM_PARA = 'CARA_CHOC',
                     FILTRE = _F(NOM_PARA = 'NUME_ORDRE',
                                 VALE_I = 5,),
                    )

MNL = CALC_STABILITE(reuse=MNL,MODE_NON_LINE=MNL,
                     FILTRE=_F( FREQ_MIN = 0.64, FREQ_MAX =0.65,),
                   )

FREQC=RECU_FONCTION(TABLE=MNL,
                    PARA_X='ENERGIE',
                    PARA_Y='FREQUENCE',
                    INTERPOL=('LOG',),
                    )

#valeurs calculees sur machine locale
es=0.00650108331626
fs=0.6467033

#calcul analytique
e_tilda = es/(k*jeu*jeu)
tau_1 = 2.*math.acos(-1./math.sqrt(2.*e_tilda))
tau_2 = 2.*math.sqrt(k/(k+kchoc))*math.acos(math.sqrt(k/(2.*e_tilda*(k+kchoc))))
tau_p = tau_1+tau_2
T = math.sqrt(m/k)*tau_p
fsc = 1./T

TEST_FONCTION(VALEUR=_F(VALE_PARA=es,
                       # Le TOLE_MACHINE reste a expliquer. Voir issue24306.
                       TOLE_MACHINE=2.e-5, VALE_CALC=0.64669392749957,
                       REFERENCE='ANALYTIQUE',
                       VALE_REFE=fsc,
                       FONCTION=FREQC,),
             )

#test manipulation table_container par CALC_TABLE
TCOMPR =CALC_TABLE(TABLE=MNL,
                   ACTION=(_F(OPERATION='FILTRE',NOM_PARA=('NUME_ORDRE'),VALE=80,),
                         ),)

MODE_20 = REST_MODE_NONL(MODE_NON_LINE=MNL,
                     TYPE_RESU = 'DYNA_TRANS',
                     NUME_ORDRE = 10,)

FIN();
