
# ======================================================================
# COPYRIGHT (C) 1991 - 2016  EDF R&D                  WWW.CODE-ASTER.ORG
# THIS PROGRAM IS FREE SOFTWARE; YOU CAN REDISTRIBUTE IT AND/OR MODIFY
# IT UNDER THE TERMS OF THE GNU GENERAL PUBLIC LICENSE AS PUBLISHED BY
# THE FREE SOFTWARE FOUNDATION; EITHER VERSION 2 OF THE LICENSE, OR
# (AT YOUR OPTION) ANY LATER VERSION.
#
# THIS PROGRAM IS DISTRIBUTED IN THE HOPE THAT IT WILL BE USEFUL, BUT
# WITHOUT ANY WARRANTY; WITHOUT EVEN THE IMPLIED WARRANTY OF
# MERCHANTABILITY OR FITNESS FOR A PARTICULAR PURPOSE. SEE THE GNU
# GENERAL PUBLIC LICENSE FOR MORE DETAILS.
#
# YOU SHOULD HAVE RECEIVED A COPY OF THE GNU GENERAL PUBLIC LICENSE
# ALONG WITH THIS PROGRAM; IF NOT, WRITE TO EDF R&D CODE_ASTER,
#    1 AVENUE DU GENERAL DE GAULLE, 92141 CLAMART CEDEX, FRANCE.
# ======================================================================
#  PARTITIONNEMENT DU TEMPS DU TRANSITOIRE EN 10 INTERVALLES
#  SUR LESQUELS ON FAIT LA RESOLUTION DES SYSTEMES LINEAIRES
#  AVEC DES SOLVEURS DIFFERENTS; ON UTILISE 2 FOIS :
#     - LA METHODE DE CROUT POUR DES MATRICES EN LIGNE DE CIEL
#     - LA METHODE MULTIFRONTALE
#     - LA METHODE DU GRADIENT CONJUGUE AVEC OPTION OUI
#
#

DEBUT(CODE=_F(NIV_PUB_WEB='INTERNET'), DEBUG=_F(SDVERI='OUI'))
#

MA=LIRE_MAILLAGE();

MO=AFFE_MODELE(MAILLAGE=MA,
               AFFE=(_F(GROUP_MA='GROUP_MA_CABLE',
                        PHENOMENE='MECANIQUE',
                        MODELISATION='CABLE',),
                     _F(GROUP_MA='GROUP_MA_CHARP',
                        PHENOMENE='MECANIQUE',
                        MODELISATION='POU_D_E',),),);

MAT1=DEFI_MATERIAU(ELAS=_F(E=54000000000.0,
                           RHO=2761.0,
                           NU=0.),
                   CABLE=_F()
                   );

MAT2=DEFI_MATERIAU(ELAS=_F(E=63700000000.0,
                           NU=0.,
                           RHO=110841.0,),
                   CABLE=_F()
                   );

MAT3=DEFI_MATERIAU(ELAS=_F(E=63700000000.0,
                           RHO=104173.0,
                           NU=0.
                           ),
                   CABLE=_F()
                  );

MAT4=DEFI_MATERIAU(ELAS=_F(E=210000000000.0,
                           NU=0.3,
                           RHO=7800.0,),);

CHMAT=AFFE_MATERIAU(MAILLAGE=MA,
                    AFFE=(_F(GROUP_MA=('GROUP_MA_CC1','GROUP_MA_CC2',),
                             MATER=MAT1,),
                          _F(GROUP_MA='GROUP_MA_CH1',
                             MATER=MAT2,),
                          _F(GROUP_MA='GROUP_MA_CH2',
                             MATER=MAT3,),
                          _F(GROUP_MA='GROUP_MA_CHARP',
                             MATER=MAT4,),),);

CHA1=AFFE_CHAR_MECA(MODELE=MO,
                    DDL_IMPO=_F(GROUP_NO=('GROUP_NO_P1','GROUP_NO_P2','GROUP_NO_P3','GROUP_NO_P4',),
                                DX=0.0,
                                DY=0.0,
                                DZ=0.0,
                                DRX=0.0,
                                DRY=0.0,
                                DRZ=0.0,),
                    LIAISON_DDL=(_F(GROUP_NO=('GROUP_NO_P5','GROUP_NO_P9',),
                                    DDL=('DX','DX',),
                                    COEF_MULT=(1.0,-1.0,),
                                    COEF_IMPO=0.0,),
                                 _F(GROUP_NO=('GROUP_NO_P5','GROUP_NO_P9',),
                                    DDL=('DY','DY',),
                                    COEF_MULT=(1.0,-1.0,),
                                    COEF_IMPO=0.0,),
                                 _F(GROUP_NO=('GROUP_NO_P5','GROUP_NO_P9',),
                                    DDL=('DZ','DZ',),
                                    COEF_MULT=(1.0,-1.0,),
                                    COEF_IMPO=0.0,),
                                 _F(GROUP_NO=('GROUP_NO_P6','GROUP_NO_P10',),
                                    DDL=('DX','DX',),
                                    COEF_MULT=(1.0,-1.0,),
                                    COEF_IMPO=0.0,),
                                 _F(GROUP_NO=('GROUP_NO_P6','GROUP_NO_P10',),
                                    DDL=('DY','DY',),
                                    COEF_MULT=(1.0,-1.0,),
                                    COEF_IMPO=0.0,),
                                 _F(GROUP_NO=('GROUP_NO_P6','GROUP_NO_P10',),
                                    DDL=('DZ','DZ',),
                                    COEF_MULT=(1.0,-1.0,),
                                    COEF_IMPO=0.0,),
                                 _F(GROUP_NO=('GROUP_NO_P7','GROUP_NO_P11',),
                                    DDL=('DX','DX',),
                                    COEF_MULT=(1.0,-1.0,),
                                    COEF_IMPO=0.0,),
                                 _F(GROUP_NO=('GROUP_NO_P7','GROUP_NO_P11',),
                                    DDL=('DY','DY',),
                                    COEF_MULT=(1.0,-1.0,),
                                    COEF_IMPO=0.0,),
                                 _F(GROUP_NO=('GROUP_NO_P7','GROUP_NO_P11',),
                                    DDL=('DZ','DZ',),
                                    COEF_MULT=(1.0,-1.0,),
                                    COEF_IMPO=0.0,),
                                 _F(GROUP_NO=('GROUP_NO_P8','GROUP_NO_P12',),
                                    DDL=('DX','DX',),
                                    COEF_MULT=(1.0,-1.0,),
                                    COEF_IMPO=0.0,),
                                 _F(GROUP_NO=('GROUP_NO_P8','GROUP_NO_P12',),
                                    DDL=('DY','DY',),
                                    COEF_MULT=(1.0,-1.0,),
                                    COEF_IMPO=0.0,),
                                 _F(GROUP_NO=('GROUP_NO_P8','GROUP_NO_P12',),
                                    DDL=('DZ','DZ',),
                                    COEF_MULT=(1.0,-1.0,),
                                    COEF_IMPO=0.0,),),);

CHA2=AFFE_CHAR_MECA(MODELE=MO,
                    PESANTEUR=_F(GRAVITE=9.81,
                                 DIRECTION=(0.0,0.0,-1.0,),),);

CHA3=AFFE_CHAR_MECA(MODELE=MO,
                    INTE_ELEC=(_F(GROUP_MA='GROUP_MA_CC1',
                                  GROUP_MA_2='GROUP_MA_CC2',),
                               _F(GROUP_MA='GROUP_MA_CC2',
                                  GROUP_MA_2='GROUP_MA_CC1',),),);

CHA4=AFFE_CHAR_MECA(MODELE=MO,
                    INTE_ELEC=(_F(GROUP_MA='GROUP_MA_CC1',
                                  GROUP_MA_2='GROUP_MA_CC1',),
                               _F(GROUP_MA='GROUP_MA_CC2',
                                  GROUP_MA_2='GROUP_MA_CC2',),),);

CARA=AFFE_CARA_ELEM(MODELE=MO,
                    POUTRE=_F(GROUP_MA='GROUP_MA_CHARP',
                              SECTION='CERCLE',
                              CARA=('R','EP',),
                              VALE=(0.3,0.3,),),
                    CABLE=(_F(GROUP_MA=('GROUP_MA_CC1','GROUP_MA_CC2',),
                              SECTION=0.00171,N_INIT=5000.0,),
                           _F(GROUP_MA='GROUP_MA_CH1',
                              SECTION=0.000628,N_INIT=5000.0,),
                           _F(GROUP_MA='GROUP_MA_CH2',
                              SECTION=0.000942,N_INIT=5000.0,),),);

F1=DEFI_FONC_ELEC(SIGNAL='CONTINU',
                  COUR=_F(INTE_CC_1=54559.0,
                          TAU_CC_1=0.12,
                          PHI_CC_1=1.5,
                          INTE_CC_2=54559.0,
                          TAU_CC_2=0.12,
                          PHI_CC_2=181.5,
                          INST_CC_INIT=0.0,
                          INST_CC_FIN=0.5,),);
#

F2=DEFI_FONC_ELEC(SIGNAL='CONTINU',
                  COUR=_F(INTE_CC_1=54559.0,
                          TAU_CC_1=0.12,
                          PHI_CC_1=1.5,
                          INTE_CC_2=54559.0,
                          TAU_CC_2=0.12,
                          PHI_CC_2=1.5,
                          INST_CC_INIT=0.0,
                          INST_CC_FIN=0.5,),);
#

L_INST1=DEFI_LIST_REEL(DEBUT=-0.1,
                       INTERVALLE=(_F(JUSQU_A=-0.05,
                                      NOMBRE=1,),
                                   _F(JUSQU_A=0.0,
                                      NOMBRE=1,),),);

L_INST2=DEFI_LIST_REEL(DEBUT=0.0,
                       INTERVALLE=_F(JUSQU_A=0.5,
                                     NOMBRE=5,),);

L_INST21=DEFI_LIST_REEL(DEBUT=0.5,
                        INTERVALLE=_F(JUSQU_A=1.0,
                                      NOMBRE=5,),);

L_INST3=DEFI_LIST_REEL(DEBUT=1.0,
                       INTERVALLE=_F(JUSQU_A=1.5,
                                     NOMBRE=5,),);

L_INST31=DEFI_LIST_REEL(DEBUT=1.5,
                        INTERVALLE=_F(JUSQU_A=2.0,
                                      NOMBRE=5,),);

L_INST4=DEFI_LIST_REEL(DEBUT=2.0,
                       INTERVALLE=_F(JUSQU_A=2.5,
                                     NOMBRE=5,),);

L_INST41=DEFI_LIST_REEL(DEBUT=2.5,
                        INTERVALLE=_F(JUSQU_A=3.0,
                                      NOMBRE=5,),);

L_INST5=DEFI_LIST_REEL(DEBUT=3.0,
                       INTERVALLE=_F(JUSQU_A=3.5,
                                     NOMBRE=5,),);

L_INST51=DEFI_LIST_REEL(DEBUT=3.5,
                        INTERVALLE=_F(JUSQU_A=4.0,
                                      NOMBRE=5,),);

L_ARCHI=DEFI_LIST_ENTI(DEBUT=1,
                       INTERVALLE=_F(JUSQU_A=42,
                                     PAS=1,),);

RESU=STAT_NON_LINE(MODELE=MO,
                   CHAM_MATER=CHMAT,
                   CARA_ELEM=CARA,
                   EXCIT=(_F(CHARGE=CHA1,),
                          _F(CHARGE=CHA2,),),
                   COMPORTEMENT=(_F(RELATION='ELAS',
                                    GROUP_MA='GROUP_MA_CHARP',),
                                 _F(RELATION='CABLE',
                                    DEFORMATION='GROT_GDEP',
                                    GROUP_MA='GROUP_MA_CABLE',),
                                ),
                   INCREMENT=_F(LIST_INST=L_INST1,
                                NUME_INST_FIN=1,),
                   NEWTON=_F(REAC_ITER=1,),
                   CONVERGENCE=_F(RESI_GLOB_RELA=1e-06,
                                  ITER_GLOB_MAXI=50,),
                   SOLVEUR=_F(METHODE='GCPC',
                              PRE_COND='LDLT_INC',
                              RESI_RELA=1e-12,
                              NMAX_ITER=80,),);
#

TEST_RESU(RESU=(_F(NUME_ORDRE=1,
                   PARA='INST',
                   RESULTAT=RESU,
                   VALE_CALC=-0.05,),
                _F(NUME_ORDRE=1,
                   PARA='ITER_GLOB',
                   VALE_CALC_I=18,
                   RESULTAT=RESU,
                   CRITERE='ABSOLU',
                   ),
                ),
          )

RESU=STAT_NON_LINE(reuse =RESU,
                   MODELE=MO,
                   CHAM_MATER=CHMAT,
                   CARA_ELEM=CARA,
                   EXCIT=(_F(CHARGE=CHA1,),
                          _F(CHARGE=CHA2,),),
                   COMPORTEMENT=(_F(RELATION='ELAS',
                                GROUP_MA='GROUP_MA_CHARP',),
                                 _F(RELATION='CABLE',
                                DEFORMATION='GROT_GDEP',
                                GROUP_MA='GROUP_MA_CABLE',),),
                   INCREMENT=_F(LIST_INST=L_INST1,
                                INST_INIT=-0.05,),
                   ETAT_INIT=_F(EVOL_NOLI=RESU,),
                   NEWTON=_F(REAC_ITER=1,),
                   CONVERGENCE=_F(RESI_GLOB_RELA=1e-06,
                                  ITER_GLOB_MAXI=50,),
                   SOLVEUR=_F(METHODE='MULT_FRONT',),

                   );

RESU=CALC_CHAMP(reuse=RESU,RESULTAT=RESU,CONTRAINTE=('SIEF_ELNO'),VARI_INTERNE=('VARI_ELNO'))

#--------------------------------------------------------------------

TEST_RESU(RESU=(_F(NUME_ORDRE=2,
                   PARA='INST',
                   RESULTAT=RESU,
                   VALE_CALC=0.0,
                   CRITERE='ABSOLU',
                   ),
                _F(NUME_ORDRE=2,
                   PARA='ITER_GLOB',
                   VALE_CALC_I=1,
                   RESULTAT=RESU,
                   CRITERE='ABSOLU',
                   ),
                ),
          )

#--------------------------------------------------------------------

RESU=DYNA_NON_LINE(reuse =RESU,
                   MODELE=MO,
                   CHAM_MATER=CHMAT,
                   CARA_ELEM=CARA,
                   EXCIT=(_F(CHARGE=CHA1,),
                          _F(CHARGE=CHA2,),
                          _F(CHARGE=CHA3,
                             FONC_MULT=F1,),),
                   COMPORTEMENT=(_F(RELATION='ELAS',
                                GROUP_MA='GROUP_MA_CHARP',),
                                  _F(RELATION='CABLE',
                                DEFORMATION='GROT_GDEP',
                                GROUP_MA='GROUP_MA_CABLE',),),
                   ETAT_INIT=_F(EVOL_NOLI=RESU,),
                   INCREMENT=_F(LIST_INST=L_INST2,),
                   SCHEMA_TEMPS=_F(SCHEMA='NEWMARK',FORMULATION='DEPLACEMENT'),
                   NEWTON=_F(REAC_ITER=1,),
                   SOLVEUR=_F(METHODE='MULT_FRONT',),
                   CONVERGENCE=_F(RESI_GLOB_RELA=1e-06,
                                  ITER_GLOB_MAXI=100,),);
#

TEST_RESU(RESU=(_F(NUME_ORDRE=7,
                   PARA='INST',
                   RESULTAT=RESU,
                   VALE_CALC=0.5,),
                _F(NUME_ORDRE=7,
                   PARA='ITER_GLOB',
                   VALE_CALC_I=3,
                   RESULTAT=RESU,
                   CRITERE='ABSOLU',
                   ),
                ),
          )

CHACCE=CREA_CHAMP(OPERATION='EXTR',
                  RESULTAT=RESU,
                  TYPE_CHAM='NOEU_DEPL_R',
                  NOM_CHAM='ACCE',
                  INST=0.5,)


CHDEPL=CREA_CHAMP(OPERATION='EXTR',
                  RESULTAT=RESU,
                  TYPE_CHAM='NOEU_DEPL_R',
                  NOM_CHAM='DEPL',
                  INST=0.5,)

CHVITE=CREA_CHAMP(OPERATION='EXTR',
                  RESULTAT=RESU,
                  TYPE_CHAM='NOEU_DEPL_R',
                  NOM_CHAM='VITE',
                  INST=0.5,)

CHSIEF=CREA_CHAMP(OPERATION='EXTR',
                  RESULTAT=RESU,
                  TYPE_CHAM='ELGA_SIEF_R',
                  NOM_CHAM='SIEF_ELGA',
                  INST=0.5,)

CHVARI=CREA_CHAMP(OPERATION='EXTR',
                  RESULTAT=RESU,
                  TYPE_CHAM='ELGA_VARI_R',
                  NOM_CHAM='VARI_ELGA',
                  INST=0.5,)

RESU=DYNA_NON_LINE(reuse =RESU,
                   MODELE=MO,
                   CHAM_MATER=CHMAT,
                   CARA_ELEM=CARA,
                   EXCIT=(_F(CHARGE=CHA1,),
                          _F(CHARGE=CHA2,),
                          _F(CHARGE=CHA3,
                             FONC_MULT=F1,),),
                   COMPORTEMENT=(_F(RELATION='ELAS',
                                GROUP_MA='GROUP_MA_CHARP',),
                                 _F(RELATION='CABLE',
                                DEFORMATION='GROT_GDEP',
                                GROUP_MA='GROUP_MA_CABLE',),),
                   ETAT_INIT=_F(DEPL=CHDEPL,
                                VITE=CHVITE,
                                ACCE=CHACCE,
                                SIGM=CHSIEF,
                                VARI=CHVARI),
                   INCREMENT=_F(LIST_INST=L_INST21,),
                   SCHEMA_TEMPS=_F(SCHEMA='NEWMARK',FORMULATION='DEPLACEMENT'),
                   NEWTON=_F(REAC_ITER=1,),
                   SOLVEUR=_F(METHODE='LDLT',),
                   CONVERGENCE=_F(RESI_GLOB_RELA=1e-06,
                                  ITER_GLOB_MAXI=100,),);
#

TEST_RESU(RESU=(_F(NUME_ORDRE=12,
                   PARA='INST',
                   RESULTAT=RESU,
                   VALE_CALC=1.0,),
                _F(NUME_ORDRE=12,
                   PARA='ITER_GLOB',
                   VALE_CALC_I=3,
                   RESULTAT=RESU,
                   CRITERE='ABSOLU',
                   ),
                ),
          )

RESU=DYNA_NON_LINE(reuse =RESU,
                   MODELE=MO,
                   CHAM_MATER=CHMAT,
                   CARA_ELEM=CARA,
                   EXCIT=(_F(CHARGE=CHA1,),
                          _F(CHARGE=CHA2,),
                          _F(CHARGE=CHA3,
                             FONC_MULT=F1,),),
                   COMPORTEMENT=(_F(RELATION='ELAS',
                                GROUP_MA='GROUP_MA_CHARP',),
                                 _F(RELATION='CABLE',
                                DEFORMATION='GROT_GDEP',
                                GROUP_MA='GROUP_MA_CABLE',),),
                   ETAT_INIT=_F(EVOL_NOLI=RESU,),
                   INCREMENT=_F(LIST_INST=L_INST3,),
                   SCHEMA_TEMPS=_F(SCHEMA='NEWMARK',FORMULATION='DEPLACEMENT'),
                   NEWTON=_F(REAC_ITER=1,),
                   SOLVEUR=_F(METHODE='GCPC',
                              PRE_COND='LDLT_INC',
                              RESI_RELA=1e-08,
                              NMAX_ITER=250,),
                   CONVERGENCE=_F(RESI_GLOB_RELA=1e-06,
                                  ITER_GLOB_MAXI=100,),);
#

TEST_RESU(RESU=(_F(NUME_ORDRE=17,
                   PARA='INST',
                   RESULTAT=RESU,
                   VALE_CALC=1.5,),
                _F(NUME_ORDRE=17,
                   PARA='ITER_GLOB',
                   VALE_CALC_I=3,
                   RESULTAT=RESU,
                   CRITERE='ABSOLU',
                   ),
                ),
          )

RESU=DYNA_NON_LINE(reuse =RESU,
                   MODELE=MO,
                   CHAM_MATER=CHMAT,
                   CARA_ELEM=CARA,
                   EXCIT=(_F(CHARGE=CHA1,),
                          _F(CHARGE=CHA2,),
                          _F(CHARGE=CHA3,
                             FONC_MULT=F1,),),
                   COMPORTEMENT=(_F(RELATION='ELAS',
                                GROUP_MA='GROUP_MA_CHARP',),
                                _F(RELATION='CABLE',
                                DEFORMATION='GROT_GDEP',
                                GROUP_MA='GROUP_MA_CABLE',),),
                   ETAT_INIT=_F(EVOL_NOLI=RESU,),
                   INCREMENT=_F(LIST_INST=L_INST31,),
                   SCHEMA_TEMPS=_F(SCHEMA='NEWMARK',FORMULATION='DEPLACEMENT'),
                   NEWTON=_F(REAC_ITER=1,),
                   SOLVEUR=_F(METHODE='GCPC',
                              PRE_COND='LDLT_INC',
                              RESI_RELA=1e-08,
                              NMAX_ITER=250,),
                   CONVERGENCE=_F(RESI_GLOB_RELA=1e-06,
                                  ITER_GLOB_MAXI=100,),);
#

TEST_RESU(RESU=(_F(NUME_ORDRE=22,
                   PARA='INST',
                   RESULTAT=RESU,
                   VALE_CALC=2.0,),
                _F(NUME_ORDRE=22,
                   PARA='ITER_GLOB',
                   VALE_CALC_I=3,
                   RESULTAT=RESU,
                   CRITERE='ABSOLU',
                   ),
                ),
          )

RESU=DYNA_NON_LINE(reuse =RESU,
                   MODELE=MO,
                   CHAM_MATER=CHMAT,
                   CARA_ELEM=CARA,
                   EXCIT=(_F(CHARGE=CHA1,),
                          _F(CHARGE=CHA2,),
                          _F(CHARGE=CHA3,
                             FONC_MULT=F1,),),
                   COMPORTEMENT=(_F(RELATION='ELAS',
                                GROUP_MA='GROUP_MA_CHARP',),
                                _F(RELATION='CABLE',
                                DEFORMATION='GROT_GDEP',
                                GROUP_MA='GROUP_MA_CABLE',),),
                   ETAT_INIT=_F(EVOL_NOLI=RESU,),
                   INCREMENT=_F(LIST_INST=L_INST4,),
                   SCHEMA_TEMPS=_F(SCHEMA='NEWMARK',FORMULATION='DEPLACEMENT'),
                   NEWTON=_F(REAC_ITER=1,),
                   SOLVEUR=_F(METHODE='GCPC',
                              PRE_COND='LDLT_INC',
                              RESI_RELA=1e-08,
                              NMAX_ITER=230,),
                   CONVERGENCE=_F(RESI_GLOB_RELA=1e-06,
                                  ITER_GLOB_MAXI=100,),);
#

TEST_RESU(RESU=(_F(NUME_ORDRE=27,
                   PARA='INST',
                   RESULTAT=RESU,
                   VALE_CALC=2.5,),
                _F(NUME_ORDRE=27,
                   PARA='ITER_GLOB',
                   VALE_CALC_I=3,
                   RESULTAT=RESU,
                   CRITERE='ABSOLU',
                   ),
                ),
          )

RESU=DYNA_NON_LINE(reuse =RESU,
                   MODELE=MO,
                   CHAM_MATER=CHMAT,
                   CARA_ELEM=CARA,
                   EXCIT=(_F(CHARGE=CHA1,),
                          _F(CHARGE=CHA2,),
                          _F(CHARGE=CHA3,
                             FONC_MULT=F1,),),
                   COMPORTEMENT=(_F(RELATION='ELAS',
                                GROUP_MA='GROUP_MA_CHARP',),
                                 _F(RELATION='CABLE',
                                DEFORMATION='GROT_GDEP',
                                GROUP_MA='GROUP_MA_CABLE',),),
                   ETAT_INIT=_F(EVOL_NOLI=RESU,),
                   INCREMENT=_F(LIST_INST=L_INST41,),
                   SCHEMA_TEMPS=_F(SCHEMA='NEWMARK',FORMULATION='DEPLACEMENT'),
                   NEWTON=_F(REAC_ITER=1,),
                   SOLVEUR=_F(METHODE='LDLT',),
                   CONVERGENCE=_F(RESI_GLOB_RELA=1e-06,
                                  ITER_GLOB_MAXI=100,),);
#

TEST_RESU(RESU=(_F(NUME_ORDRE=32,
                   PARA='INST',
                   RESULTAT=RESU,
                   VALE_CALC=3.0,),
                _F(NUME_ORDRE=32,
                   PARA='ITER_GLOB',
                   VALE_CALC_I=3,
                   RESULTAT=RESU,
                   CRITERE='ABSOLU',
                   ),
                ),
          )

RESU=DYNA_NON_LINE(reuse =RESU,
                   MODELE=MO,
                   CHAM_MATER=CHMAT,
                   CARA_ELEM=CARA,
                   EXCIT=(_F(CHARGE=CHA1,),
                          _F(CHARGE=CHA2,),
                          _F(CHARGE=CHA3,
                             FONC_MULT=F1,),),
                   COMPORTEMENT=(_F(RELATION='ELAS',
                                GROUP_MA='GROUP_MA_CHARP',),
                                 _F(RELATION='CABLE',
                                DEFORMATION='GROT_GDEP',
                                GROUP_MA='GROUP_MA_CABLE',),),
                   ETAT_INIT=_F(EVOL_NOLI=RESU,),
                   INCREMENT=_F(LIST_INST=L_INST5,),
                   SCHEMA_TEMPS=_F(SCHEMA='NEWMARK',FORMULATION='DEPLACEMENT'),
                   NEWTON=_F(REAC_ITER=1,),
                   SOLVEUR=_F(METHODE='GCPC',
                              PRE_COND='LDLT_INC',
                              RESI_RELA=1e-08,
                              NMAX_ITER=250,),
                   CONVERGENCE=_F(RESI_GLOB_RELA=1e-06,
                                  ITER_GLOB_MAXI=100,),);
#

TEST_RESU(RESU=(_F(NUME_ORDRE=37,
                   PARA='INST',
                   RESULTAT=RESU,
                   VALE_CALC=3.5,),
                _F(NUME_ORDRE=37,
                   PARA='ITER_GLOB',
                   VALE_CALC_I=4,
                   RESULTAT=RESU,
                   CRITERE='ABSOLU',
                   ),
                ),
          )

#

RESU=DYNA_NON_LINE(reuse =RESU,
                   MODELE=MO,
                   CHAM_MATER=CHMAT,
                   CARA_ELEM=CARA,
                   EXCIT=(_F(CHARGE=CHA1,),
                          _F(CHARGE=CHA2,),
                          _F(CHARGE=CHA3,
                             FONC_MULT=F1,),),
                   COMPORTEMENT=(_F(RELATION='ELAS',
                                GROUP_MA='GROUP_MA_CHARP',),
                                 _F(RELATION='CABLE',
                                DEFORMATION='GROT_GDEP',
                                GROUP_MA='GROUP_MA_CABLE',),),
                   ETAT_INIT=_F(EVOL_NOLI=RESU,),
                   INCREMENT=_F(LIST_INST=L_INST51,),
                   SCHEMA_TEMPS=_F(SCHEMA='NEWMARK',FORMULATION='DEPLACEMENT'),
                   NEWTON=_F(REAC_ITER=1,),
                   SOLVEUR=_F(METHODE='GCPC',
                              PRE_COND='LDLT_INC',
                              RESI_RELA=1e-08,
                              NMAX_ITER=330,),
                   CONVERGENCE=_F(RESI_GLOB_RELA=1e-06,
                                  ITER_GLOB_MAXI=100,),);
#

TEST_RESU(RESU=(_F(NUME_ORDRE=42,
                   PARA='INST',
                   RESULTAT=RESU,
                   VALE_CALC=4.0,),
                _F(NUME_ORDRE=42,
                   PARA='ITER_GLOB',
                   VALE_CALC_I=4,
                   RESULTAT=RESU,
                   CRITERE='ABSOLU',
                   ),
                ),
          )

#

# VERIFICATION   DEPLACEMENTS

TEST_RESU(RESU=(_F(NUME_ORDRE=42,
                   RESULTAT=RESU,
                   NOM_CHAM='DEPL',
                   NOEUD='N5',
                   NOM_CMP='DY',
                   VALE_REFE=-1.981,
                   VALE_CALC=-1.9813000759276,
                   REFERENCE='SOURCE_EXTERNE',
                   ),
                _F(NUME_ORDRE=42,
                   RESULTAT=RESU,
                   NOM_CHAM='DEPL',
                   NOEUD='N5',
                   NOM_CMP='DZ',
                   VALE_REFE=-1.846,
                   VALE_CALC=-1.846384677215,
                   REFERENCE='SOURCE_EXTERNE',
                   ),
                _F(NUME_ORDRE=42,
                   RESULTAT=RESU,
                   NOM_CHAM='DEPL',
                   NOEUD='N14',
                   NOM_CMP='DY',
                   VALE_REFE=-4.108,
                   VALE_CALC=-4.107792227436,
                   REFERENCE='SOURCE_EXTERNE',
                   ),
                _F(NUME_ORDRE=42,
                   RESULTAT=RESU,
                   NOM_CHAM='DEPL',
                   NOEUD='N14',
                   NOM_CMP='DZ',
                   VALE_REFE=3.229,
                   VALE_CALC=3.2293035717844,
                   REFERENCE='SOURCE_EXTERNE',
                   ),
                ),
          )

# VERIFICATION   EFFORTS

TEST_RESU(RESU=(_F(NUME_ORDRE=22,
                   POINT=1,
                   RESULTAT=RESU,
                   NOM_CHAM='SIEF_ELGA',
                   MAILLE='M1',
                   NOM_CMP='N',
                   VALE_REFE=75500.0,
                   VALE_CALC=75499.616764404,

                   REFERENCE='SOURCE_EXTERNE',
                   ),
                _F(NUME_ORDRE=42,
                   POINT=1,
                   RESULTAT=RESU,
                   NOM_CHAM='SIEF_ELGA',
                   MAILLE='M9',
                   NOM_CMP='N',
                   VALE_REFE=22560.0,
                   VALE_CALC=22563.648052329,
                   REFERENCE='SOURCE_EXTERNE',
                   ),
                ),
          )

FIN();
#
