# MODIF  DATE 10/10/2012   AUTEUR COURTOIS M.COURTOIS 
# TITRE CHOC DE 3 POUTRES ENTRE ELLES : CALCUL DE REFERENCE
# sdnl105a.para = tps_job 60 mem_job 512Mo ncpus 1 liste_test R
#            CONFIGURATION MANAGEMENT OF EDF VERSION
# ======================================================================
# COPYRIGHT (C) 1991 - 2012  EDF R&D                  WWW.CODE-ASTER.ORG
# THIS PROGRAM IS FREE SOFTWARE; YOU CAN REDISTRIBUTE IT AND/OR MODIFY
# IT UNDER THE TERMS OF THE GNU GENERAL PUBLIC LICENSE AS PUBLISHED BY
# THE FREE SOFTWARE FOUNDATION; EITHER VERSION 2 OF THE LICENSE, OR
# (AT YOUR OPTION) ANY LATER VERSION.
#
# THIS PROGRAM IS DISTRIBUTED IN THE HOPE THAT IT WILL BE USEFUL, BUT
# WITHOUT ANY WARRANTY; WITHOUT EVEN THE IMPLIED WARRANTY OF
# MERCHANTABILITY OR FITNESS FOR A PARTICULAR PURPOSE. SEE THE GNU
# GENERAL PUBLIC LICENSE FOR MORE DETAILS.
#
# YOU SHOULD HAVE RECEIVED A COPY OF THE GNU GENERAL PUBLIC LICENSE
# ALONG WITH THIS PROGRAM; IF NOT, WRITE TO EDF R&D CODE_ASTER,
#    1 AVENUE DU GENERAL DE GAULLE, 92141 CLAMART CEDEX, FRANCE.
# ======================================================================
# CAS_TEST__: SDNL105A
#
# CALCUL DE LA REPONSE TRANSITOIRE NON-LINEAIRE DE TROIS POUTRES
# EN FLEXION CHOQUANT EN LEUR MILIEU.
# CE CALCUL SERT DE REFERENCE AUX CAS TESTS PAR SOUS-STRUCTURATION.

DEBUT(CODE=_F(NOM='SDNL105A',
              NIV_PUB_WEB='INTERNET',),
      DEBUG=_F(SDVERI='OUI',),);

#

MAYA=LIRE_MAILLAGE();

#

MATERIO1=DEFI_MATERIAU(ELAS=_F(E=1.E10,
                               NU=0.3,
                               RHO=1.E08,),);

MATERIO2=DEFI_MATERIAU(ELAS=_F(E=1.E15,
                               NU=0.,
                               RHO=0.,),);

#

CHMAT=AFFE_MATERIAU(MAILLAGE=MAYA,
                    AFFE=(_F(GROUP_MA='TOUT',
                             MATER=MATERIO1,),
                          _F(GROUP_MA='RIGIDE',
                             MATER=MATERIO2,),),);

#

BARRE=AFFE_MODELE(MAILLAGE=MAYA,
                  AFFE=_F(GROUP_MA='TOUT',
                          PHENOMENE='MECANIQUE',
                          MODELISATION='POU_D_E',),);

#

CARA=AFFE_CARA_ELEM(MODELE=BARRE,
                    POUTRE=_F(GROUP_MA='TOUT',
                              SECTION='CERCLE',
                              CARA=('R','EP',),
                              VALE=(0.1,0.01,),),);

#

GUIDAGE=AFFE_CHAR_MECA(MODELE=BARRE,
                       DDL_IMPO=(_F(GROUP_MA='TOUT',
                                    DX=0.,
                                    DZ=0.,
                                    DRX=0.,
                                    DRY=0.,),
                                 _F(GROUP_NO='L1',
                                    DY=0.,
                                    DRZ=0.,),),);

#

CHARTRAN=AFFE_CHAR_MECA(MODELE=BARRE,
                        FORCE_NODALE=_F(NOEUD='N8',
                                        FY=1000.,),);

#

K_ELEM=CALC_MATR_ELEM(OPTION='RIGI_MECA',
                      MODELE=BARRE,
                      CHAM_MATER=CHMAT,
                      CARA_ELEM=CARA,
                      CHARGE=GUIDAGE,);

#

M_ELEM=CALC_MATR_ELEM(OPTION='MASS_MECA',
                      MODELE=BARRE,
                      CHAM_MATER=CHMAT,
                      CARA_ELEM=CARA,
                      CHARGE=GUIDAGE,);

#

V_ELEM=CALC_VECT_ELEM(OPTION='CHAR_MECA',
                      CHARGE=CHARTRAN,);

#

NUM=NUME_DDL(MATR_RIGI=K_ELEM,);

#

K_ASSE=ASSE_MATRICE(MATR_ELEM=K_ELEM,
                    NUME_DDL=NUM,);

M_ASSE=ASSE_MATRICE(MATR_ELEM=M_ELEM,
                    NUME_DDL=NUM,);

V_ASSE=ASSE_VECTEUR(VECT_ELEM=V_ELEM,
                    NUME_DDL=NUM,);

#

MODES=MODE_ITER_SIMULT(MATR_RIGI=K_ASSE,
                       MATR_MASS=M_ASSE,
                       CALC_FREQ=_F(NMAX_FREQ=15,),);


#
###
###### PROJECTIONS SUR BASE MODALE :
###


#

NUMEMODE=NUME_DDL_GENE(BASE=MODES,
                       STOCKAGE='DIAG',);

#

K_PROJ=PROJ_MATR_BASE(BASE=MODES,
                      NUME_DDL_GENE=NUMEMODE,
                      MATR_ASSE=K_ASSE,);

#

M_PROJ=PROJ_MATR_BASE(BASE=MODES,
                      NUME_DDL_GENE=NUMEMODE,
                      MATR_ASSE=M_ASSE,);

#

F_PROJ=PROJ_VECT_BASE(BASE=MODES,
                      NUME_DDL_GENE=NUMEMODE,
                      VECT_ASSE=V_ASSE,);

#
# DEFINITION DE L'OBSTACLE

OBSTACLE=DEFI_OBSTACLE(TYPE='BI_PLAN_Y',);

#
###
###### CALCULS TRANSITOIRES SUR BASE MODALE
###


#
TRAN_GE1=DYNA_VIBRA( TYPE_CALCUL='TRAN',
                   BASE_CALCUL='GENE',
                   SCHEMA_TEMPS=_F(SCHEMA='EULER',),
                         MATR_MASS=M_PROJ,
                         MATR_RIGI=K_PROJ,
                         INCREMENT=_F(INST_INIT=0.,
                                      INST_FIN=1.,
                                      PAS=2.E-4,),
                         ARCHIVAGE=_F(PAS_ARCH=5,),
                         EXCIT=_F(VECT_ASSE_GENE=F_PROJ,
                                  COEF_MULT=1000.,),
                         CHOC=_F(INTITULE='CHOC1_2',
                                 GROUP_MA='GMC12',
                                 OBSTACLE=OBSTACLE,
                                 NORM_OBST=(1.,0.,0.,),
                                 DIST_1=0.0995,
                                 DIST_2=0.0995,
                                 RIGI_NOR=1.E+8,),
                         VERI_CHOC=_F(STOP_CRITERE='OUI',
                                      SEUIL=0.2,),
                         SOLVEUR=_F(METHODE='MULT_FRONT',),
                         INFO=2,);

#
TRAN_GE2=DYNA_VIBRA( TYPE_CALCUL='TRAN',
                   BASE_CALCUL='GENE',
                   SCHEMA_TEMPS=_F(SCHEMA='DEVOGE',),
                         MATR_MASS=M_PROJ,
                         MATR_RIGI=K_PROJ,
                         INCREMENT=_F(INST_INIT=0.,
                                      INST_FIN=1.,
                                      PAS=2.E-4,),
                         ARCHIVAGE=_F(PAS_ARCH=5,),
                         EXCIT=_F(VECT_ASSE_GENE=F_PROJ,
                                  COEF_MULT=1000.,),
                         CHOC=(_F(INTITULE='CHOC1',
                                  NOEUD_1='N8',
                                  GROUP_NO_2='GROUP2',
                                  OBSTACLE=OBSTACLE,
                                  NORM_OBST=(1.,0.,0.,),
                                  DIST_1=0.0995,
                                  DIST_2=0.0995,
                                  RIGI_NOR=1.E+8,),
                               _F(INTITULE='CHOC2',
                                  NOEUD_2='O8',
                                  GROUP_NO_1='GROUP2',
                                  OBSTACLE=OBSTACLE,
                                  NORM_OBST=(1.,0.,0.,),
                                  DIST_1=0.0995,
                                  DIST_2=0.0995,
                                  RIGI_NOR=1.E+8,),),);

#
TRAN_GE3=DYNA_VIBRA( TYPE_CALCUL='TRAN',
                   BASE_CALCUL='GENE',
                   SCHEMA_TEMPS=_F(SCHEMA='ADAPT_ORDRE2',),
                         MATR_MASS=M_PROJ,
                         MATR_RIGI=K_PROJ,
                         INCREMENT=_F(INST_INIT=0.,
                                      INST_FIN=1.,
# ON IMPOSE PAS_MAXI = PAS POUR RETROUVER LES ANCIENS RESULTATS
# POUR AMELIORER LE TEMPS CPU IL VAUT MIEUX TESTER AVEC UN PAS_MAXI PLUS GRAND
                                      PAS_MAXI=2.E-4,
                                      PAS=2.E-4),
                         ARCHIVAGE=_F(PAS_ARCH=5,),
                         EXCIT=_F(VECT_ASSE_GENE=F_PROJ,
                                  COEF_MULT=1000.,),
                         CHOC=_F(INTITULE='CHOC1_2',
                                 MAILLE=('MC1','MC2',),
                                 OBSTACLE=OBSTACLE,
                                 NORM_OBST=(1.,0.,0.,),
                                 DIST_1=0.0995,
                                 DIST_2=0.0995,
                                 RIGI_NOR=1.E+8,),
                         VERI_CHOC=_F(STOP_CRITERE='NON',),);

#

LIST_R=DEFI_LIST_REEL(DEBUT=0.,
                      INTERVALLE=_F(JUSQU_A=1.,
                                    NOMBRE=10,),);

#

TRAN1=REST_GENE_PHYS(RESU_GENE=TRAN_GE1,
                     LIST_INST=LIST_R,
                     INTERPOL='LIN',
                     TOUT_CHAM='OUI',);

#

TRAN2=REST_GENE_PHYS(RESU_GENE=TRAN_GE2,
                     LIST_INST=LIST_R,
                     INTERPOL='LIN',
                     TOUT_CHAM='OUI',);

#

TRAN3=REST_GENE_PHYS(RESU_GENE=TRAN_GE3,
                     LIST_INST=LIST_R,
                     INTERPOL='LIN',
                     TOUT_CHAM='OUI',);

#

TEST_RESU(RESU=_F(INST=1.0,
                  RESULTAT=TRAN1,
                  NOM_CHAM='DEPL',
                  NOEUD='N8',
                  NOM_CMP='DY',
                  VALE_CALC=0.0164295,
                  TOLE_MACHINE=1.E-4,
                  CRITERE='RELATIF',
                  ),
          )

#

TEST_RESU(RESU=_F(INST=1.0,
                  RESULTAT=TRAN1,
                  NOM_CHAM='VITE',
                  NOEUD='N8',
                  NOM_CMP='DY',
                  VALE_CALC=0.025415799999999999,
                  TOLE_MACHINE=1.E-4,
                  CRITERE='RELATIF',
                  ),
          )

#

TEST_RESU(RESU=_F(INST=1.0,
                  RESULTAT=TRAN1,
                  NOM_CHAM='DEPL',
                  NOEUD='M8',
                  NOM_CMP='DY',
                  VALE_CALC=0.011167699999999999,
                  TOLE_MACHINE=1.E-4,
                  CRITERE='RELATIF',
                  ),
          )

#

TEST_RESU(RESU=_F(INST=1.0,
                  RESULTAT=TRAN1,
                  NOM_CHAM='VITE',
                  NOEUD='M8',
                  NOM_CMP='DY',
                  VALE_CALC=0.044263999999999998,
                  TOLE_MACHINE=1.E-4,
                  CRITERE='RELATIF',
                  ),
          )

#

TEST_RESU(RESU=_F(INST=1.0,
                  RESULTAT=TRAN1,
                  NOM_CHAM='DEPL',
                  NOEUD='O8',
                  NOM_CMP='DY',
                  VALE_CALC=5.8975700000000004E-3,
                  TOLE_MACHINE=1.E-4,
                  CRITERE='RELATIF',
                  ),
          )

#

TEST_RESU(RESU=_F(INST=1.0,
                  RESULTAT=TRAN1,
                  NOM_CHAM='VITE',
                  NOEUD='O8',
                  NOM_CMP='DY',
                  VALE_CALC=0.104583,
                  TOLE_MACHINE=1.E-4,
                  CRITERE='RELATIF',
                  ),
          )

#

TEST_RESU(RESU=_F(INST=1.0,
                  RESULTAT=TRAN2,
                  NOM_CHAM='DEPL',
                  NOEUD='N8',
                  NOM_CMP='DY',
                  VALE_CALC=0.016426400000000001,
                  TOLE_MACHINE=1.E-4,
                  CRITERE='RELATIF',
                  ),
          )

#

TEST_RESU(RESU=_F(INST=1.0,
                  RESULTAT=TRAN2,
                  NOM_CHAM='VITE',
                  NOEUD='N8',
                  NOM_CMP='DY',
                  VALE_CALC=0.025415500000000001,
                  TOLE_MACHINE=1.E-4,
                  CRITERE='RELATIF',
                  ),
          )

#

TEST_RESU(RESU=_F(INST=1.0,
                  RESULTAT=TRAN2,
                  NOM_CHAM='DEPL',
                  NOEUD='M8',
                  NOM_CMP='DY',
                  VALE_CALC=0.011162699999999999,
                  TOLE_MACHINE=1.E-4,
                  CRITERE='RELATIF',
                  ),
          )

#

TEST_RESU(RESU=_F(INST=1.0,
                  RESULTAT=TRAN2,
                  NOM_CHAM='VITE',
                  NOEUD='M8',
                  NOM_CMP='DY',
                  VALE_CALC=0.044119699999999998,
                  TOLE_MACHINE=1.E-4,
                  CRITERE='RELATIF',
                  ),
          )

#

TEST_RESU(RESU=_F(INST=1.0,
                  RESULTAT=TRAN2,
                  NOM_CHAM='DEPL',
                  NOEUD='O8',
                  NOM_CMP='DY',
                  VALE_CALC=5.8873600000000003E-3,
                  TOLE_MACHINE=1.E-4,
                  CRITERE='RELATIF',
                  ),
          )

#

TEST_RESU(RESU=_F(INST=1.0,
                  RESULTAT=TRAN2,
                  NOM_CHAM='VITE',
                  NOEUD='O8',
                  NOM_CMP='DY',
                  VALE_CALC=0.10455,
                  TOLE_MACHINE=1.E-4,
                  CRITERE='RELATIF',
                  ),
          )

#

TEST_RESU(RESU=_F(INST=1.0,
                  RESULTAT=TRAN3,
                  NOM_CHAM='DEPL',
                  NOEUD='N8',
                  NOM_CMP='DY',
                  VALE_CALC=0.016426900000000001,
                  TOLE_MACHINE=1.E-4,
                  CRITERE='RELATIF',
                  ),
          )

#

TEST_RESU(RESU=_F(INST=1.0,
                  RESULTAT=TRAN3,
                  NOM_CHAM='VITE',
                  NOEUD='N8',
                  NOM_CMP='DY',
                  VALE_CALC=0.025411,
                  TOLE_MACHINE=1.E-4,
                  CRITERE='RELATIF',
                  ),
          )

#

TEST_RESU(RESU=_F(INST=1.0,
                  RESULTAT=TRAN3,
                  NOM_CHAM='DEPL',
                  NOEUD='M8',
                  NOM_CMP='DY',
                  VALE_CALC=0.011163299999999999,
                  TOLE_MACHINE=1.E-4,
                  CRITERE='RELATIF',
                  ),
          )

#

TEST_RESU(RESU=_F(INST=1.0,
                  RESULTAT=TRAN3,
                  NOM_CHAM='VITE',
                  NOEUD='M8',
                  NOM_CMP='DY',
                  VALE_CALC=0.044259100000000003,
                  TOLE_MACHINE=1.E-4,
                  CRITERE='RELATIF',
                  ),
          )

#

TEST_RESU(RESU=_F(INST=1.0,
                  RESULTAT=TRAN3,
                  NOM_CHAM='DEPL',
                  NOEUD='O8',
                  NOM_CMP='DY',
                  VALE_CALC=5.88712E-3,
                  TOLE_MACHINE=1.E-4,
                  CRITERE='RELATIF',
                  ),
          )

#

TEST_RESU(RESU=_F(INST=1.0,
                  RESULTAT=TRAN3,
                  NOM_CHAM='VITE',
                  NOEUD='O8',
                  NOM_CMP='DY',
                  VALE_CALC=0.104587,
                  TOLE_MACHINE=1.E-4,
                  CRITERE='RELATIF',
                  ),
          )

#
##RESTITUTION D'UN DEPLACEMENT


#

LISTINST=DEFI_LIST_REEL(DEBUT=0.,
                        INTERVALLE=_F(JUSQU_A=1.,
                                      NOMBRE=250,),);

#

FONC1=RECU_FONCTION(RESU_GENE=TRAN_GE1,
                    LIST_INST=LISTINST,
                    NOM_CHAM='DEPL',
                    NOM_CMP='DY',
                    NOEUD='M8',
                    INTERPOL='LIN',);

#
##RESTITUTION D'UN PARAMETRE DE CHOC


#

FONC2=RECU_FONCTION(RESU_GENE=TRAN_GE1,
                    NOEUD_CHOC='M8',
                    PARA_X='INST',
                    PARA_Y='FN',
                    LIST_PARA=LISTINST,
                    INTITULE='CHOC1_2',);

#
##IMPRESSION D'UN DEPLACEMENT


#

IMPR_FONCTION(FORMAT='XMGRACE',
              PILOTE='POSTSCRIPT',
              COURBE=_F(FONCTION=FONC1,),
              TITRE='EULER - DY NOEUD M8',
              LEGENDE_X='TEMPS(S)',
              LEGENDE_Y='DEPLACEMENT(M)',);

#
##IMPRESSION D'UN PARAMETRE DE CHOC


#

IMPR_FONCTION(FORMAT='XMGRACE',
              PILOTE='POSTSCRIPT',
              UNITE=30,
              COURBE=_F(FONCTION=FONC2,),
              TITRE='EULER - FN NOEUD M8',
              LEGENDE_X='TEMPS(S)',
              LEGENDE_Y='DEPLACEMENT(M)',);

#
##CALCULS STATISTIQUES


#

TABLE=POST_DYNA_MODA_T(RESU_GENE=TRAN_GE1,
                       CHOC=_F(INST_INIT=0.,
                               INST_FIN=1.,
                               NB_BLOC=10,
                               SEUIL_FORCE=0.,
                               DUREE_REPOS=0.,),);

#

FIN();

#






