
# MODIF  DATE 07/12/2010   AUTEUR PELLET J.PELLET 
# TITRE PORTEE DE CABLES SOUMISE A DES EFFORTS ELECTRODYNAMIQUES
# sdnl101a.para = tps_job 60 mem_job 64Mo ncpus 1 liste_test R
#            CONFIGURATION MANAGEMENT OF EDF VERSION
# ======================================================================
# COPYRIGHT (C) 1991 - 2001  EDF R&D                  WWW.CODE-ASTER.ORG
# THIS PROGRAM IS FREE SOFTWARE; YOU CAN REDISTRIBUTE IT AND/OR MODIFY
# IT UNDER THE TERMS OF THE GNU GENERAL PUBLIC LICENSE AS PUBLISHED BY
# THE FREE SOFTWARE FOUNDATION; EITHER VERSION 2 OF THE LICENSE, OR
# (AT YOUR OPTION) ANY LATER VERSION.
#
# THIS PROGRAM IS DISTRIBUTED IN THE HOPE THAT IT WILL BE USEFUL, BUT
# WITHOUT ANY WARRANTY; WITHOUT EVEN THE IMPLIED WARRANTY OF
# MERCHANTABILITY OR FITNESS FOR A PARTICULAR PURPOSE. SEE THE GNU
# GENERAL PUBLIC LICENSE FOR MORE DETAILS.
#
# YOU SHOULD HAVE RECEIVED A COPY OF THE GNU GENERAL PUBLIC LICENSE
# ALONG WITH THIS PROGRAM; IF NOT, WRITE TO EDF R&D CODE_ASTER,
#    1 AVENUE DU GENERAL DE GAULLE, 92141 CLAMART CEDEX, FRANCE.
# ======================================================================
#  PARTITIONNEMENT DU TEMPS DU TRANSITOIRE EN 10 INTERVALLES
#  SUR LESQUELS ON FAIT LA RESOLUTION DES SYSTEMES LINEAIRES
#  AVEC DES SOLVEURS DIFFERENTS; ON UTILISE 2 FOIS :
#     - LA METHODE DE CROUT POUR DES MATRICES EN LIGNE DE CIEL
#     - LA METHODE MULTIFRONTALE
#     - LA METHODE DU GRADIENT CONJUGUE AVEC OPTION OUI
#
#

DEBUT(CODE=_F(NOM='SDNL101A', NIV_PUB_WEB='INTERNET'), DEBUG=_F(SDVERI='OUI'))
#

MA=LIRE_MAILLAGE();

MO=AFFE_MODELE(MAILLAGE=MA,
               AFFE=(_F(GROUP_MA='CABLE',
                        PHENOMENE='MECANIQUE',
                        MODELISATION='CABLE',),
                     _F(GROUP_MA='CHARP',
                        PHENOMENE='MECANIQUE',
                        MODELISATION='POU_D_E',),),);

MAT1=DEFI_MATERIAU(ELAS=_F(E=54000000000.0,
                           RHO=2761.0,
                           NU=0.),
                   CABLE=_F()
                   );

MAT2=DEFI_MATERIAU(ELAS=_F(E=63700000000.0,
                           NU=0.,
                           RHO=110841.0,),
                   CABLE=_F()
                   );

MAT3=DEFI_MATERIAU(ELAS=_F(E=63700000000.0,
                           RHO=104173.0,
                           NU=0.
                           ),
                   CABLE=_F()
                  );

MAT4=DEFI_MATERIAU(ELAS=_F(E=210000000000.0,
                           NU=0.3,
                           RHO=7800.0,),);

CHMAT=AFFE_MATERIAU(MAILLAGE=MA,
                    AFFE=(_F(GROUP_MA=('CC1','CC2',),
                             MATER=MAT1,),
                          _F(GROUP_MA='CH1',
                             MATER=MAT2,),
                          _F(GROUP_MA='CH2',
                             MATER=MAT3,),
                          _F(GROUP_MA='CHARP',
                             MATER=MAT4,),),);

CHA1=AFFE_CHAR_MECA(MODELE=MO,
                    DDL_IMPO=_F(GROUP_NO=('P1','P2','P3','P4',),
                                DX=0.0,
                                DY=0.0,
                                DZ=0.0,
                                DRX=0.0,
                                DRY=0.0,
                                DRZ=0.0,),
                    LIAISON_DDL=(_F(GROUP_NO=('P5','P9',),
                                    DDL=('DX','DX',),
                                    COEF_MULT=(1.0,-1.0,),
                                    COEF_IMPO=0.0,),
                                 _F(GROUP_NO=('P5','P9',),
                                    DDL=('DY','DY',),
                                    COEF_MULT=(1.0,-1.0,),
                                    COEF_IMPO=0.0,),
                                 _F(GROUP_NO=('P5','P9',),
                                    DDL=('DZ','DZ',),
                                    COEF_MULT=(1.0,-1.0,),
                                    COEF_IMPO=0.0,),
                                 _F(GROUP_NO=('P6','P10',),
                                    DDL=('DX','DX',),
                                    COEF_MULT=(1.0,-1.0,),
                                    COEF_IMPO=0.0,),
                                 _F(GROUP_NO=('P6','P10',),
                                    DDL=('DY','DY',),
                                    COEF_MULT=(1.0,-1.0,),
                                    COEF_IMPO=0.0,),
                                 _F(GROUP_NO=('P6','P10',),
                                    DDL=('DZ','DZ',),
                                    COEF_MULT=(1.0,-1.0,),
                                    COEF_IMPO=0.0,),
                                 _F(GROUP_NO=('P7','P11',),
                                    DDL=('DX','DX',),
                                    COEF_MULT=(1.0,-1.0,),
                                    COEF_IMPO=0.0,),
                                 _F(GROUP_NO=('P7','P11',),
                                    DDL=('DY','DY',),
                                    COEF_MULT=(1.0,-1.0,),
                                    COEF_IMPO=0.0,),
                                 _F(GROUP_NO=('P7','P11',),
                                    DDL=('DZ','DZ',),
                                    COEF_MULT=(1.0,-1.0,),
                                    COEF_IMPO=0.0,),
                                 _F(GROUP_NO=('P8','P12',),
                                    DDL=('DX','DX',),
                                    COEF_MULT=(1.0,-1.0,),
                                    COEF_IMPO=0.0,),
                                 _F(GROUP_NO=('P8','P12',),
                                    DDL=('DY','DY',),
                                    COEF_MULT=(1.0,-1.0,),
                                    COEF_IMPO=0.0,),
                                 _F(GROUP_NO=('P8','P12',),
                                    DDL=('DZ','DZ',),
                                    COEF_MULT=(1.0,-1.0,),
                                    COEF_IMPO=0.0,),),);

CHA2=AFFE_CHAR_MECA(MODELE=MO,
                    PESANTEUR=_F(GRAVITE=9.81,
                                 DIRECTION=(0.0,0.0,-1.0,),),);

CHA3=AFFE_CHAR_MECA(MODELE=MO,
                    INTE_ELEC=(_F(GROUP_MA='CC1',
                                  GROUP_MA_2='CC2',),
                               _F(GROUP_MA='CC2',
                                  GROUP_MA_2='CC1',),),);

CHA4=AFFE_CHAR_MECA(MODELE=MO,
                    INTE_ELEC=(_F(GROUP_MA='CC1',
                                  GROUP_MA_2='CC1',),
                               _F(GROUP_MA='CC2',
                                  GROUP_MA_2='CC2',),),);

CARA=AFFE_CARA_ELEM(MODELE=MO,
                    POUTRE=_F(GROUP_MA='CHARP',
                              SECTION='CERCLE',
                              CARA=('R','EP',),
                              VALE=(0.3,0.3,),),
                    CABLE=(_F(GROUP_MA=('CC1','CC2',),
                              SECTION=0.00171,),
                           _F(GROUP_MA='CH1',
                              SECTION=0.000628,),
                           _F(GROUP_MA='CH2',
                              SECTION=0.000942,),),);

F1=DEFI_FONC_ELEC(SIGNAL='CONTINU',
                  COUR=_F(INTE_CC_1=54559.0,
                          TAU_CC_1=0.12,
                          PHI_CC_1=1.5,
                          INTE_CC_2=54559.0,
                          TAU_CC_2=0.12,
                          PHI_CC_2=181.5,
                          INST_CC_INIT=0.0,
                          INST_CC_FIN=0.5,),);
#

F2=DEFI_FONC_ELEC(SIGNAL='CONTINU',
                  COUR=_F(INTE_CC_1=54559.0,
                          TAU_CC_1=0.12,
                          PHI_CC_1=1.5,
                          INTE_CC_2=54559.0,
                          TAU_CC_2=0.12,
                          PHI_CC_2=1.5,
                          INST_CC_INIT=0.0,
                          INST_CC_FIN=0.5,),);
#
# L_INSTA= DEFI_LIST_REEL ( DEBUT: -0.1
#                           INTERVALLE : (JUSQU_A: 4.0 NOMBRE: 41)
#                         ) ;

L_INST1=DEFI_LIST_REEL(DEBUT=-0.1,
                       INTERVALLE=(_F(JUSQU_A=-0.05,
                                      NOMBRE=1,),
                                   _F(JUSQU_A=0.0,
                                      NOMBRE=1,),),);

L_INST2=DEFI_LIST_REEL(DEBUT=0.0,
                       INTERVALLE=_F(JUSQU_A=0.5,
                                     NOMBRE=5,),);

L_INST21=DEFI_LIST_REEL(DEBUT=0.5,
                        INTERVALLE=_F(JUSQU_A=1.0,
                                      NOMBRE=5,),);

L_INST3=DEFI_LIST_REEL(DEBUT=1.0,
                       INTERVALLE=_F(JUSQU_A=1.5,
                                     NOMBRE=5,),);

L_INST31=DEFI_LIST_REEL(DEBUT=1.5,
                        INTERVALLE=_F(JUSQU_A=2.0,
                                      NOMBRE=5,),);

L_INST4=DEFI_LIST_REEL(DEBUT=2.0,
                       INTERVALLE=_F(JUSQU_A=2.5,
                                     NOMBRE=5,),);

L_INST41=DEFI_LIST_REEL(DEBUT=2.5,
                        INTERVALLE=_F(JUSQU_A=3.0,
                                      NOMBRE=5,),);

L_INST5=DEFI_LIST_REEL(DEBUT=3.0,
                       INTERVALLE=_F(JUSQU_A=3.5,
                                     NOMBRE=5,),);

L_INST51=DEFI_LIST_REEL(DEBUT=3.5,
                        INTERVALLE=_F(JUSQU_A=4.0,
                                      NOMBRE=5,),);

L_ARCHI=DEFI_LIST_ENTI(DEBUT=1,
                       INTERVALLE=_F(JUSQU_A=42,
                                     PAS=1,),);

RESU=STAT_NON_LINE(MODELE=MO,
                   CHAM_MATER=CHMAT,
                   CARA_ELEM=CARA,
                   EXCIT=(_F(CHARGE=CHA1,),
                          _F(CHARGE=CHA2,),),
                   COMP_INCR=_F(RELATION='ELAS',
                                GROUP_MA='CHARP',),
                   COMP_ELAS=_F(RELATION='CABLE',
                                DEFORMATION='GROT_GDEP',
                                GROUP_MA='CABLE',),
                   INCREMENT=_F(LIST_INST=L_INST1,
                                NUME_INST_FIN=1,),
                   NEWTON=_F(REAC_ITER=1,),
                   CONVERGENCE=_F(RESI_GLOB_RELA=1e-06,
                                  ITER_GLOB_MAXI=50,),
                   SOLVEUR=_F(METHODE='GCPC',
                              PRE_COND='LDLT_INC',
                              RESI_RELA=1e-12,
                              NMAX_ITER=80,),);
#

TEST_RESU(RESU=(_F(RESULTAT=RESU,
                   NUME_ORDRE=1,
                   PARA='INST',
                   VALE=-0.05,),
                _F(RESULTAT=RESU,
                   NUME_ORDRE=1,
                   PARA='ITER_GLOB',
                   VALE_I=18,
                   CRITERE = 'ABSOLU',        PRECISION = 0.),
                ),);

RESU=STAT_NON_LINE(reuse =RESU,
                   MODELE=MO,
                   CHAM_MATER=CHMAT,
                   CARA_ELEM=CARA,
                   EXCIT=(_F(CHARGE=CHA1,),
                          _F(CHARGE=CHA2,),),
                   COMP_INCR=_F(RELATION='ELAS',
                                GROUP_MA='CHARP',),
                   COMP_ELAS=_F(RELATION='CABLE',
                                DEFORMATION='GROT_GDEP',
                                GROUP_MA='CABLE',),
                   INCREMENT=_F(LIST_INST=L_INST1,
                                INST_INIT=-0.05,),
                   ETAT_INIT=_F(EVOL_NOLI=RESU,),
                   NEWTON=_F(REAC_ITER=1,),
                   CONVERGENCE=_F(RESI_GLOB_RELA=1e-06,
                                  ITER_GLOB_MAXI=50,),
                   SOLVEUR=_F(METHODE='MULT_FRONT',),
                   ARCHIVAGE=_F(NUME_INIT=1,
                                DETR_NUME_SUIV='OUI',),);

RESU=CALC_ELEM(reuse =RESU,
               RESULTAT=RESU,
               OPTION=('SIEF_ELNO_ELGA','VARI_ELNO_ELGA',),);
#--------------------------------------------------------------------

TEST_RESU(RESU=(_F(RESULTAT=RESU,
                   NUME_ORDRE=1,
                   PARA='INST',
                   CRITERE = 'ABSOLU',
                   PRECISION = 0.,
                   VALE=0.0,),
                _F(RESULTAT=RESU,
                   NUME_ORDRE=1,
                   PARA='ITER_GLOB',
                   VALE_I=1,
                   CRITERE='ABSOLU',
                   PRECISION=0.0,),
                ),);
#--------------------------------------------------------------------

RESU=DYNA_NON_LINE(reuse =RESU,
                   MODELE=MO,
                   CHAM_MATER=CHMAT,
                   CARA_ELEM=CARA,
                   EXCIT=(_F(CHARGE=CHA1,),
                          _F(CHARGE=CHA2,),
                          _F(CHARGE=CHA3,
                             FONC_MULT=F1,),),
                   COMP_INCR=_F(RELATION='ELAS',
                                GROUP_MA='CHARP',),
                   COMP_ELAS=_F(RELATION='CABLE',
                                DEFORMATION='GROT_GDEP',
                                GROUP_MA='CABLE',),
                   ETAT_INIT=_F(EVOL_NOLI=RESU,),
                   INCREMENT=_F(LIST_INST=L_INST2,),
                   SCHEMA_TEMPS=_F(SCHEMA='NEWMARK',FORMULATION='DEPLACEMENT'),
                   NEWTON=_F(REAC_ITER=1,),
                   SOLVEUR=_F(METHODE='MULT_FRONT',),
                   CONVERGENCE=_F(RESI_GLOB_RELA=1e-06,
                                  ITER_GLOB_MAXI=100,),);
#

TEST_RESU(RESU=(_F(RESULTAT=RESU,
                   NUME_ORDRE=6,
                   PARA='INST',
                   VALE=0.5,),
                _F(RESULTAT=RESU,
                   NUME_ORDRE=6,
                   PARA='ITER_GLOB',
                   VALE_I=3,
                   CRITERE='ABSOLU',
                   PRECISION=0.0,),
                ),);


CHACCE=CREA_CHAMP(OPERATION='EXTR',
                  RESULTAT=RESU,
                  TYPE_CHAM='NOEU_DEPL_R',
                  NOM_CHAM='ACCE',
                  INST=0.5,)


CHDEPL=CREA_CHAMP(OPERATION='EXTR',
                  RESULTAT=RESU,
                  TYPE_CHAM='NOEU_DEPL_R',
                  NOM_CHAM='DEPL',
                  INST=0.5,)

CHVITE=CREA_CHAMP(OPERATION='EXTR',
                  RESULTAT=RESU,
                  TYPE_CHAM='NOEU_DEPL_R',
                  NOM_CHAM='VITE',
                  INST=0.5,)

CHSIEF=CREA_CHAMP(OPERATION='EXTR',
                  RESULTAT=RESU,
                  TYPE_CHAM='ELGA_SIEF_R',
                  NOM_CHAM='SIEF_ELGA',
                  INST=0.5,)

CHVARI=CREA_CHAMP(OPERATION='EXTR',
                  RESULTAT=RESU,
                  TYPE_CHAM='ELGA_VARI_R',
                  NOM_CHAM='VARI_ELGA',
                  INST=0.5,)

RESU=DYNA_NON_LINE(reuse =RESU,
                   MODELE=MO,
                   CHAM_MATER=CHMAT,
                   CARA_ELEM=CARA,
                   EXCIT=(_F(CHARGE=CHA1,),
                          _F(CHARGE=CHA2,),
                          _F(CHARGE=CHA3,
                             FONC_MULT=F1,),),
                   COMP_INCR=_F(RELATION='ELAS',
                                GROUP_MA='CHARP',),
                   COMP_ELAS=_F(RELATION='CABLE',
                                DEFORMATION='GROT_GDEP',
                                GROUP_MA='CABLE',),
                   ETAT_INIT=_F(DEPL=CHDEPL,
                                VITE=CHVITE,
                                ACCE=CHACCE,
                                SIGM=CHSIEF,
                                VARI=CHVARI),
                   INCREMENT=_F(LIST_INST=L_INST21,),
                   SCHEMA_TEMPS=_F(SCHEMA='NEWMARK',FORMULATION='DEPLACEMENT'),
                   NEWTON=_F(REAC_ITER=1,),
                   SOLVEUR=_F(METHODE='LDLT',),
                   CONVERGENCE=_F(RESI_GLOB_RELA=1e-06,
                                  ITER_GLOB_MAXI=100,),);
#

TEST_RESU(RESU=(_F(RESULTAT=RESU,
                   NUME_ORDRE=11,
                   PARA='INST',
                   VALE=1.0,),
                _F(RESULTAT=RESU,
                   NUME_ORDRE=11,
                   PARA='ITER_GLOB',
                   VALE_I=3,
                   CRITERE='ABSOLU',
                   PRECISION=0.0,),
                ),);

RESU=DYNA_NON_LINE(reuse =RESU,
                   MODELE=MO,
                   CHAM_MATER=CHMAT,
                   CARA_ELEM=CARA,
                   EXCIT=(_F(CHARGE=CHA1,),
                          _F(CHARGE=CHA2,),
                          _F(CHARGE=CHA3,
                             FONC_MULT=F1,),),
                   COMP_INCR=_F(RELATION='ELAS',
                                GROUP_MA='CHARP',),
                   COMP_ELAS=_F(RELATION='CABLE',
                                DEFORMATION='GROT_GDEP',
                                GROUP_MA='CABLE',),
                   ETAT_INIT=_F(EVOL_NOLI=RESU,),
                   INCREMENT=_F(LIST_INST=L_INST3,),
                   SCHEMA_TEMPS=_F(SCHEMA='NEWMARK',FORMULATION='DEPLACEMENT'),
                   NEWTON=_F(REAC_ITER=1,),
                   SOLVEUR=_F(METHODE='GCPC',
                              PRE_COND='LDLT_INC',
                              RESI_RELA=1e-08,
                              NMAX_ITER=250,),
                   CONVERGENCE=_F(RESI_GLOB_RELA=1e-06,
                                  ITER_GLOB_MAXI=100,),);
#

TEST_RESU(RESU=(_F(RESULTAT=RESU,
                   NUME_ORDRE=16,
                   PARA='INST',
                   VALE=1.5,),
                _F(RESULTAT=RESU,
                   NUME_ORDRE=16,
                   PARA='ITER_GLOB',
                   VALE_I=3,
                   CRITERE='ABSOLU',
                   PRECISION=0.0,),
                ),);

RESU=DYNA_NON_LINE(reuse =RESU,
                   MODELE=MO,
                   CHAM_MATER=CHMAT,
                   CARA_ELEM=CARA,
                   EXCIT=(_F(CHARGE=CHA1,),
                          _F(CHARGE=CHA2,),
                          _F(CHARGE=CHA3,
                             FONC_MULT=F1,),),
                   COMP_INCR=_F(RELATION='ELAS',
                                GROUP_MA='CHARP',),
                   COMP_ELAS=_F(RELATION='CABLE',
                                DEFORMATION='GROT_GDEP',
                                GROUP_MA='CABLE',),
                   ETAT_INIT=_F(EVOL_NOLI=RESU,),
                   INCREMENT=_F(LIST_INST=L_INST31,),
                   SCHEMA_TEMPS=_F(SCHEMA='NEWMARK',FORMULATION='DEPLACEMENT'),
                   NEWTON=_F(REAC_ITER=1,),
                   SOLVEUR=_F(METHODE='GCPC',
                              PRE_COND='LDLT_INC',
                              RESI_RELA=1e-08,
                              NMAX_ITER=250,),
                   CONVERGENCE=_F(RESI_GLOB_RELA=1e-06,
                                  ITER_GLOB_MAXI=100,),);
#

TEST_RESU(RESU=(_F(RESULTAT=RESU,
                   NUME_ORDRE=21,
                   PARA='INST',
                   VALE=2.0,),
                _F(RESULTAT=RESU,
                   NUME_ORDRE=21,
                   PARA='ITER_GLOB',
                   VALE_I=3,
                   CRITERE='ABSOLU',
                   PRECISION=0.0,),
                ),);

RESU=DYNA_NON_LINE(reuse =RESU,
                   MODELE=MO,
                   CHAM_MATER=CHMAT,
                   CARA_ELEM=CARA,
                   EXCIT=(_F(CHARGE=CHA1,),
                          _F(CHARGE=CHA2,),
                          _F(CHARGE=CHA3,
                             FONC_MULT=F1,),),
                   COMP_INCR=_F(RELATION='ELAS',
                                GROUP_MA='CHARP',),
                   COMP_ELAS=_F(RELATION='CABLE',
                                DEFORMATION='GROT_GDEP',
                                GROUP_MA='CABLE',),
                   ETAT_INIT=_F(EVOL_NOLI=RESU,),
                   INCREMENT=_F(LIST_INST=L_INST4,),
                   SCHEMA_TEMPS=_F(SCHEMA='NEWMARK',FORMULATION='DEPLACEMENT'),
                   NEWTON=_F(REAC_ITER=1,),
                   SOLVEUR=_F(METHODE='GCPC',
                              PRE_COND='LDLT_INC',
                              RESI_RELA=1e-08,
                              NMAX_ITER=230,),
                   CONVERGENCE=_F(RESI_GLOB_RELA=1e-06,
                                  ITER_GLOB_MAXI=100,),);
#

TEST_RESU(RESU=(_F(RESULTAT=RESU,
                   NUME_ORDRE=26,
                   PARA='INST',
                   VALE=2.5,),
                _F(RESULTAT=RESU,
                   NUME_ORDRE=26,
                   PARA='ITER_GLOB',
                   VALE_I=3,
                   CRITERE='ABSOLU',
                   PRECISION=0.0,),
                ),);

RESU=DYNA_NON_LINE(reuse =RESU,
                   MODELE=MO,
                   CHAM_MATER=CHMAT,
                   CARA_ELEM=CARA,
                   EXCIT=(_F(CHARGE=CHA1,),
                          _F(CHARGE=CHA2,),
                          _F(CHARGE=CHA3,
                             FONC_MULT=F1,),),
                   COMP_INCR=_F(RELATION='ELAS',
                                GROUP_MA='CHARP',),
                   COMP_ELAS=_F(RELATION='CABLE',
                                DEFORMATION='GROT_GDEP',
                                GROUP_MA='CABLE',),
                   ETAT_INIT=_F(EVOL_NOLI=RESU,),
                   INCREMENT=_F(LIST_INST=L_INST41,),
                   SCHEMA_TEMPS=_F(SCHEMA='NEWMARK',FORMULATION='DEPLACEMENT'),
                   NEWTON=_F(REAC_ITER=1,),
                   SOLVEUR=_F(METHODE='LDLT',),
                   CONVERGENCE=_F(RESI_GLOB_RELA=1e-06,
                                  ITER_GLOB_MAXI=100,),);
#

TEST_RESU(RESU=(_F(RESULTAT=RESU,
                   NUME_ORDRE=31,
                   PARA='INST',
                   VALE=3.0,),
                _F(RESULTAT=RESU,
                   NUME_ORDRE=31,
                   PARA='ITER_GLOB',
                   VALE_I=3,
                   CRITERE='ABSOLU',
                   PRECISION=0.0,),
                ),);

RESU=DYNA_NON_LINE(reuse =RESU,
                   MODELE=MO,
                   CHAM_MATER=CHMAT,
                   CARA_ELEM=CARA,
                   EXCIT=(_F(CHARGE=CHA1,),
                          _F(CHARGE=CHA2,),
                          _F(CHARGE=CHA3,
                             FONC_MULT=F1,),),
                   COMP_INCR=_F(RELATION='ELAS',
                                GROUP_MA='CHARP',),
                   COMP_ELAS=_F(RELATION='CABLE',
                                DEFORMATION='GROT_GDEP',
                                GROUP_MA='CABLE',),
                   ETAT_INIT=_F(EVOL_NOLI=RESU,),
                   INCREMENT=_F(LIST_INST=L_INST5,),
                   SCHEMA_TEMPS=_F(SCHEMA='NEWMARK',FORMULATION='DEPLACEMENT'),
                   NEWTON=_F(REAC_ITER=1,),
                   SOLVEUR=_F(METHODE='GCPC',
                              PRE_COND='LDLT_INC',
                              RESI_RELA=1e-08,
                              NMAX_ITER=250,),
                   CONVERGENCE=_F(RESI_GLOB_RELA=1e-06,
                                  ITER_GLOB_MAXI=100,),);
#

TEST_RESU(RESU=(_F(RESULTAT=RESU,
                   NUME_ORDRE=36,
                   PARA='INST',
                   VALE=3.5,),
                _F(RESULTAT=RESU,
                   NUME_ORDRE=36,
                   PARA='ITER_GLOB',
                   VALE_I=4,
                   CRITERE='ABSOLU',
                   PRECISION=0.0,),
                ),);
#

RESU=DYNA_NON_LINE(reuse =RESU,
                   MODELE=MO,
                   CHAM_MATER=CHMAT,
                   CARA_ELEM=CARA,
                   EXCIT=(_F(CHARGE=CHA1,),
                          _F(CHARGE=CHA2,),
                          _F(CHARGE=CHA3,
                             FONC_MULT=F1,),),
                   COMP_INCR=_F(RELATION='ELAS',
                                GROUP_MA='CHARP',),
                   COMP_ELAS=_F(RELATION='CABLE',
                                DEFORMATION='GROT_GDEP',
                                GROUP_MA='CABLE',),
                   ETAT_INIT=_F(EVOL_NOLI=RESU,),
                   INCREMENT=_F(LIST_INST=L_INST51,),
                   SCHEMA_TEMPS=_F(SCHEMA='NEWMARK',FORMULATION='DEPLACEMENT'),
                   NEWTON=_F(REAC_ITER=1,),
                   SOLVEUR=_F(METHODE='GCPC',
                              PRE_COND='LDLT_INC',
                              RESI_RELA=1e-08,
                              NMAX_ITER=330,),
                   CONVERGENCE=_F(RESI_GLOB_RELA=1e-06,
                                  ITER_GLOB_MAXI=100,),);
#

TEST_RESU(RESU=(_F(RESULTAT=RESU,
                   NUME_ORDRE=41,
                   PARA='INST',
                   VALE=4.0,),
                _F(RESULTAT=RESU,
                   NUME_ORDRE=41,
                   PARA='ITER_GLOB',
                   VALE_I=4,
                   CRITERE='ABSOLU',
                   PRECISION=0.0,),
                ),);
#

# VERIFICATION   DEPLACEMENTS

TEST_RESU(RESU=(_F(RESULTAT=RESU,
                   NUME_ORDRE=41,
                   NOM_CHAM='DEPL',
                   NOM_CMP='DY',
                   NOEUD='N5',
                   VALE=-1.981,
                   PRECISION=0.0002,),
                _F(RESULTAT=RESU,
                   NUME_ORDRE=41,
                   NOM_CHAM='DEPL',
                   NOM_CMP='DZ',
                   NOEUD='N5',
                   VALE=-1.846,
                   PRECISION=0.0003,),
                _F(RESULTAT=RESU,
                   NUME_ORDRE=41,
                   NOM_CHAM='DEPL',
                   NOM_CMP='DY',
                   NOEUD='N14',
                   VALE=-4.108,
                   PRECISION=0.0002,),
                _F(RESULTAT=RESU,
                   NUME_ORDRE=41,
                   NOM_CHAM='DEPL',
                   NOM_CMP='DZ',
                   NOEUD='N14',
                   VALE=3.229,
                   PRECISION=0.0002,),),);
# VERIFICATION   EFFORTS

TEST_RESU(RESU=(_F(RESULTAT=RESU,
                   NUME_ORDRE=21,
                   NOM_CHAM='SIEF_ELGA',
                   NOM_CMP='N',
                   MAILLE='M1',
                   POINT=1,
                   VALE=75500.0,
                   PRECISION=0.0002,
                   REFERENCE='NON_REGRESSION',
                   VERSION='6.02.02',),
                _F(RESULTAT=RESU,
                   NUME_ORDRE=41,
                   NOM_CHAM='SIEF_ELGA',
                   NOM_CMP='N',
                   MAILLE='M9',
                   POINT=1,
                   VALE=22560.0,
                   PRECISION=0.0002,
                   REFERENCE='NON_REGRESSION',
                   VERSION='6.02.02',),),);

FIN();
#
