# TITRE PENDULE SIMPLE EN GRANDE OSCILLATION
# ======================================================================
# COPYRIGHT (C) 1991 - 2012  EDF R&D                  WWW.CODE-ASTER.ORG
# THIS PROGRAM IS FREE SOFTWARE; YOU CAN REDISTRIBUTE IT AND/OR MODIFY
# IT UNDER THE TERMS OF THE GNU GENERAL PUBLIC LICENSE AS PUBLISHED BY
# THE FREE SOFTWARE FOUNDATION; EITHER VERSION 2 OF THE LICENSE, OR
# (AT YOUR OPTION) ANY LATER VERSION.
#
# THIS PROGRAM IS DISTRIBUTED IN THE HOPE THAT IT WILL BE USEFUL, BUT
# WITHOUT ANY WARRANTY; WITHOUT EVEN THE IMPLIED WARRANTY OF
# MERCHANTABILITY OR FITNESS FOR A PARTICULAR PURPOSE. SEE THE GNU
# GENERAL PUBLIC LICENSE FOR MORE DETAILS.
#
# YOU SHOULD HAVE RECEIVED A COPY OF THE GNU GENERAL PUBLIC LICENSE
# ALONG WITH THIS PROGRAM; IF NOT, WRITE TO EDF R&D CODE_ASTER,
#    1 AVENUE DU GENERAL DE GAULLE, 92141 CLAMART CEDEX, FRANCE.
# ======================================================================
#
#  PENDULE CONSTITUE D'UN ELEMENT DE CABLE.
#

DEBUT(CODE=_F(NIV_PUB_WEB='INTERNET'), DEBUG=_F(SDVERI='OUI'))

#

MA=LIRE_MAILLAGE( )

MA=DEFI_GROUP( reuse=MA,   MAILLAGE=MA,
  CREA_GROUP_MA=_F(  NOM = 'TOUT', TOUT = 'OUI'))

MO=AFFE_MODELE(   MAILLAGE=MA,
                        AFFE=_F( GROUP_MA = 'CABLE', PHENOMENE = 'MECANIQUE',
                              MODELISATION = 'CABLE') )

MAT=DEFI_MATERIAU(   ELAS=_F(  E = 1.E8, NU=0., RHO = 1.),
                     CABLE=_F(EC_SUR_E = 1.E0),
                 )

CHMAT=AFFE_MATERIAU(   MAILLAGE=MA,
                          AFFE=_F(  TOUT = 'OUI',  MATER = MAT) )

CHA1=AFFE_CHAR_MECA(   MODELE=MO,DDL_IMPO=(
                          _F( NOEUD = 'N1',  DX = 0., DY = 0., DZ = 0.),
                                   _F( NOEUD = 'N2',          DY = 0.)) )

CHA2=AFFE_CHAR_MECA(   MODELE=MO,
                          PESANTEUR=_F(GRAVITE=9.81,
                                       DIRECTION=(0.,0.,-1.,), ),)

CARA=AFFE_CARA_ELEM(   MODELE=MO,
                            CABLE=_F(
       GROUP_MA = 'TOUT',
  SECTION = 1.) )

L_ARCHI=DEFI_LIST_ENTI(   DEBUT=1,INTERVALLE=(
                             _F( JUSQU_A = 11, PAS = 1),
                                        _F( JUSQU_A = 21, PAS = 2),
                                        _F( JUSQU_A = 41, PAS = 5))
                         )

L_INST1=DEFI_LIST_REEL(   DEBUT=0.,
                             INTERVALLE=_F( JUSQU_A = 1.6744, NOMBRE = 40)
                         )
L_INST2=DEFI_LIST_REEL(   DEBUT=0.,INTERVALLE=(
                             _F( JUSQU_A = 0.4186, NOMBRE = 10),
                             _F( JUSQU_A = 0.8372, NOMBRE = 5),
                             _F( JUSQU_A = 1.6744, NOMBRE = 4))
                         )

RESU=DYNA_NON_LINE(  MODELE=MO, CHAM_MATER=CHMAT,  CARA_ELEM=CARA,
   TITRE=( ' CAS TEST &CODE','&RL COMMANDE &COMMANDE', ),EXCIT=(
                     _F(  CHARGE = CHA1),
                           _F(  CHARGE = CHA2)),
                    INCREMENT=_F( INST_INIT = 0., LIST_INST = L_INST1),
                    ARCHIVAGE=_F( LIST_INST = L_INST2),
                    SCHEMA_TEMPS=_F(SCHEMA='NEWMARK',FORMULATION='DEPLACEMENT'),
                    COMPORTEMENT=_F( RELATION = 'CABLE',DEFORMATION = 'GROT_GDEP'),
                   CONVERGENCE=_F( RESI_GLOB_RELA = 1.E-6, ITER_GLOB_MAXI = 100),
                   NEWTON=_F( REAC_ITER = 1)
                      )

#
TEST_RESU(RESU=(_F(NUME_ORDRE=10,
                   PARA='INST',
                   RESULTAT=RESU,
                   VALE_CALC=0.4186,),
                _F(NUME_ORDRE=10,
                   PARA='ITER_GLOB',
                   VALE_CALC_I=9,
                   RESULTAT=RESU,
                   CRITERE='ABSOLU',),
                _F(NUME_ORDRE=15,
                   PARA='INST',
                   RESULTAT=RESU,
                   VALE_CALC=0.8372,),
                _F(NUME_ORDRE=15,
                   PARA='ITER_GLOB',
                   VALE_CALC_I=5,
                   RESULTAT=RESU,
                   CRITERE='ABSOLU',),
                _F(NUME_ORDRE=19,
                   PARA='INST',
                   RESULTAT=RESU,
                   VALE_CALC=1.6744,),
                _F(NUME_ORDRE=19,
                   PARA='ITER_GLOB',
                   VALE_CALC_I=6,
                   RESULTAT=RESU,
                   CRITERE='ABSOLU',),
                   ) )

TEST_RESU(RESU=(_F(INST=0.4186,
                   RESULTAT=RESU,
                   NOM_CHAM='DEPL',
                   NOEUD='N2',
                   NOM_CMP='DX',
                   VALE_CALC=-0.97517890462161,
                   VALE_REFE=-1.0,
                   CRITERE='RELATIF',
                   REFERENCE = 'ANALYTIQUE',
                   PRECISION=0.025,),
                _F(INST=0.4186,
                   RESULTAT=RESU,
                   NOM_CHAM='DEPL',
                   NOEUD='N2',
                   NOM_CMP='DZ',
                   VALE_CALC=-0.99969205712448,
                   VALE_REFE=-1.0,
                   REFERENCE = 'ANALYTIQUE',
                   PRECISION=5.0E-4,
                   CRITERE='RELATIF',),
                _F(INST=0.8372,
                   RESULTAT=RESU,
                   NOM_CHAM='DEPL',
                   NOEUD='N2',
                   NOM_CMP='DX',
                   VALE_CALC=-1.9999998148635,
                   VALE_REFE=-2.0,
                   REFERENCE = 'ANALYTIQUE',
                   PRECISION=1.E-4,
                   CRITERE='RELATIF',),
                _F(INST=0.8372,
                   RESULTAT=RESU,
                   NOM_CHAM='DEPL',
                   NOEUD='N2',
                   NOM_CMP='DZ',
                   VALE_CALC=-6.2628570853468E-04,
                   VALE_REFE=0.0,
                   REFERENCE = 'ANALYTIQUE',
                   PRECISION=7.E-4,
                   CRITERE='ABSOLU',),
                _F(INST=1.2558,
                   RESULTAT=RESU,
                   NOM_CHAM='DEPL',
                   NOEUD='N2',
                   NOM_CMP='DX',
                   VALE_CALC=-1.0745340124129,
                   VALE_REFE=-1.0,
                   CRITERE='RELATIF',
                   REFERENCE = 'ANALYTIQUE',
                   PRECISION=0.075,),
                _F(INST=1.2558,
                   RESULTAT=RESU,
                   NOM_CHAM='DEPL',
                   NOEUD='N2',
                   NOM_CMP='DZ',
                   VALE_CALC=-0.99721866212924,
                   VALE_REFE=-1.0,
                   CRITERE='RELATIF',
                   REFERENCE = 'ANALYTIQUE',
                   PRECISION=3.0E-3,),
                _F(INST=1.6744,
                   RESULTAT=RESU,
                   NOM_CHAM='DEPL',
                   NOEUD='N2',
                   NOM_CMP='DX',
                   VALE_CALC=-6.2309511616674E-07,
                   VALE_REFE=0.0,
                   CRITERE='ABSOLU',
                   REFERENCE = 'ANALYTIQUE', ),
                _F(INST=1.6744,
                   RESULTAT=RESU,
                   NOM_CHAM='DEPL',
                   NOEUD='N2',
                   NOM_CMP='DZ',
                   VALE_CALC=-1.3768257642742E-03,
                   VALE_REFE=0.0,
                   CRITERE='ABSOLU',
                   REFERENCE = 'ANALYTIQUE',
                   PRECISION=1.5E-3,),
                ),
          )

FIN()
#
