# MODIF  DATE 12/05/2009   AUTEUR PELLET J.PELLET 
# TITRE PENDULE SIMPLE EN GRANDE OSCILLATION
# sdnl100a.para = tps_job 60 mem_job 64Mo ncpus 1 liste_test S
#            CONFIGURATION MANAGEMENT OF EDF VERSION
# ======================================================================
# COPYRIGHT (C) 1991 - 2001  EDF R&D                  WWW.CODE-ASTER.ORG
# THIS PROGRAM IS FREE SOFTWARE; YOU CAN REDISTRIBUTE IT AND/OR MODIFY
# IT UNDER THE TERMS OF THE GNU GENERAL PUBLIC LICENSE AS PUBLISHED BY
# THE FREE SOFTWARE FOUNDATION; EITHER VERSION 2 OF THE LICENSE, OR
# (AT YOUR OPTION) ANY LATER VERSION.
#
# THIS PROGRAM IS DISTRIBUTED IN THE HOPE THAT IT WILL BE USEFUL, BUT
# WITHOUT ANY WARRANTY; WITHOUT EVEN THE IMPLIED WARRANTY OF
# MERCHANTABILITY OR FITNESS FOR A PARTICULAR PURPOSE. SEE THE GNU
# GENERAL PUBLIC LICENSE FOR MORE DETAILS.
#
# YOU SHOULD HAVE RECEIVED A COPY OF THE GNU GENERAL PUBLIC LICENSE
# ALONG WITH THIS PROGRAM; IF NOT, WRITE TO EDF R&D CODE_ASTER,
#    1 AVENUE DU GENERAL DE GAULLE, 92141 CLAMART CEDEX, FRANCE.
# ======================================================================
#
#  PENDULE CONSTITUE D'UN ELEMENT DE CABLE.
#

DEBUT(CODE=_F(NOM='SDNL100A', NIV_PUB_WEB='INTERNET'), DEBUG=_F(SDVERI='OUI'))

#

MA=LIRE_MAILLAGE( )

MA=DEFI_GROUP( reuse=MA,   MAILLAGE=MA,
  CREA_GROUP_MA=_F(  NOM = 'TOUT', TOUT = 'OUI'))

MO=AFFE_MODELE(   MAILLAGE=MA,
                        AFFE=_F( GROUP_MA = 'CABLE', PHENOMENE = 'MECANIQUE',
                              MODELISATION = 'CABLE') )

MAT=DEFI_MATERIAU(   ELAS=_F(  E = 1.E8, NU=0., RHO = 1.),
                     CABLE=_F(EC_SUR_E = 1.E0),
                 )

CHMAT=AFFE_MATERIAU(   MAILLAGE=MA,
                          AFFE=_F(  TOUT = 'OUI',  MATER = MAT) )

CHA1=AFFE_CHAR_MECA(   MODELE=MO,DDL_IMPO=(
                          _F( NOEUD = 'N1',  DX = 0., DY = 0., DZ = 0.),
                                   _F( NOEUD = 'N2',          DY = 0.)) )

CHA2=AFFE_CHAR_MECA(   MODELE=MO,
                          PESANTEUR=(9.81,0.,0.,-1.,) )

CARA=AFFE_CARA_ELEM(   MODELE=MO,
                            CABLE=_F(
       GROUP_MA = 'TOUT',
  SECTION = 1.) )

L_ARCHI=DEFI_LIST_ENTI(   DEBUT=1,INTERVALLE=(
                             _F( JUSQU_A = 11, PAS = 1),
                                        _F( JUSQU_A = 21, PAS = 2),
                                        _F( JUSQU_A = 41, PAS = 5))
                         )

L_INST1=DEFI_LIST_REEL(   DEBUT=0.,
                             INTERVALLE=_F( JUSQU_A = 1.6744, NOMBRE = 40)
                         )
L_INST2=DEFI_LIST_REEL(   DEBUT=0.,INTERVALLE=(
                             _F( JUSQU_A = 0.4186, NOMBRE = 10),
                             _F( JUSQU_A = 0.8372, NOMBRE = 5),
                             _F( JUSQU_A = 1.6744, NOMBRE = 4))
                         )

RESU=DYNA_NON_LINE(  MODELE=MO, CHAM_MATER=CHMAT,  CARA_ELEM=CARA,
   TITRE=( ' CAS TEST &CODE','&RL COMMANDE &COMMANDE', ),EXCIT=(
                     _F(  CHARGE = CHA1),
                           _F(  CHARGE = CHA2)),
                    INCREMENT=_F( INST_INIT = 0., LIST_INST = L_INST1),
                    ARCHIVAGE=_F( LIST_INST = L_INST2),
                    SCHEMA_TEMPS=_F(SCHEMA='NEWMARK',FORMULATION='DEPLACEMENT'),
                    COMP_ELAS=_F( RELATION = 'CABLE',DEFORMATION = 'GREEN'),
#                  CONVERGENCE:(RESI_GLOB_MAXI:1.E-3 ITER_GLOB_MAXI:100)
                   CONVERGENCE=_F( RESI_GLOB_RELA = 1.E-6, ITER_GLOB_MAXI = 100),
                   NEWTON=_F( REAC_ITER = 1)
                      )

#

TEST_RESU(RESU=(
          # DEPLACEMENTS

            _F(  RESULTAT = RESU,       INST = 0.4186,        NOM_CHAM = 'DEPL',
              CRITERE = 'RELATIF',  PRECISION = 2.5E-2,
              NOEUD = 'N2',         NOM_CMP = 'DX',        VALE = -1.),
            _F(  RESULTAT = RESU,       INST = 0.4186,        NOM_CHAM = 'DEPL',
              CRITERE = 'RELATIF',  PRECISION = 0.05E-2,
              NOEUD = 'N2',         NOM_CMP = 'DZ',        VALE = -1.),
#
            _F(  RESULTAT = RESU,           NUME_ORDRE = 10,
              PARA = 'INST',             VALE = 0.4186),
            _F(  RESULTAT = RESU,           NUME_ORDRE = 10,
              PARA = 'ITER_GLOB',        VALE_I = 0,
              CRITERE = 'ABSOLU',         PRECISION = 9.E+00),
            _F(  RESULTAT = RESU,           NUME_ORDRE = 10,
              PARA = 'ITER_LINE',        VALE_I = 0,
              CRITERE = 'ABSOLU',         PRECISION = 2.E+00),
            _F(  RESULTAT = RESU,           NUME_ORDRE = 10,
              CRITERE = 'ABSOLU',        PRECISION = 1.E-02,
              PARA = 'RESI_GLOB_RELA',   VALE = 0.),
            _F(  RESULTAT = RESU,           NUME_ORDRE = 10,
              CRITERE = 'ABSOLU',        PRECISION = 1.,
              PARA = 'RESI_GLOB',        VALE = 0.),
#
            _F(  RESULTAT = RESU,       INST = 0.8372,        NOM_CHAM = 'DEPL',
              CRITERE = 'RELATIF',  PRECISION = 0.01E-2,
              NOEUD = 'N2',         NOM_CMP = 'DX',        VALE = -2.),
            _F(  RESULTAT = RESU,       INST = 0.8372,        NOM_CHAM = 'DEPL',
              CRITERE = 'ABSOLU',   PRECISION = 7.E-4,
              NOEUD = 'N2',         NOM_CMP = 'DZ',        VALE = 0.),
#
            _F(  RESULTAT = RESU,           NUME_ORDRE = 15,
              PARA = 'INST',             VALE = 0.8372),
            _F(  RESULTAT = RESU,           NUME_ORDRE = 15,
              PARA = 'ITER_GLOB',        VALE_I = 0,
              CRITERE = 'ABSOLU',         PRECISION = 6.E0),
            _F(  RESULTAT = RESU,           NUME_ORDRE = 15,
              PARA = 'ITER_LINE',        VALE_I = 0,
              CRITERE = 'ABSOLU',         PRECISION = 2.E0),
            _F(  RESULTAT = RESU,           NUME_ORDRE = 15,
              CRITERE = 'ABSOLU',
              PARA = 'RESI_GLOB_RELA',   VALE = 0.),
            _F(  RESULTAT = RESU,           NUME_ORDRE = 15,
              CRITERE = 'ABSOLU',        PRECISION = 1.E-02,
              PARA = 'RESI_GLOB',        VALE = 0.),
#
            _F(  RESULTAT = RESU,
             INST = 1.2558,
             NOM_CHAM = 'DEPL',
              CRITERE = 'RELATIF',  PRECISION = 7.5E-2,
              NOEUD = 'N2',         NOM_CMP = 'DX',        VALE = -1.),
            _F(  RESULTAT = RESU,       INST = 1.2558,        NOM_CHAM = 'DEPL',
              CRITERE = 'RELATIF',  PRECISION = 0.3E-2,
              NOEUD = 'N2',         NOM_CMP = 'DZ',        VALE = -1.),
#
            _F(  RESULTAT = RESU,       INST = 1.6744,        NOM_CHAM = 'DEPL',
              CRITERE = 'ABSOLU',   PRECISION = 1.E-6,
              NOEUD = 'N2',         NOM_CMP = 'DX',        VALE = 0.),
            _F(  RESULTAT = RESU,       INST = 1.6744,        NOM_CHAM = 'DEPL',
              CRITERE = 'ABSOLU',   PRECISION = 1.5E-3,
              NOEUD = 'N2',         NOM_CMP = 'DZ',        VALE = 0.),
#
            _F(  RESULTAT = RESU,           NUME_ORDRE = 19,
              PARA = 'INST',             VALE = 1.6744),
            _F(  RESULTAT = RESU,           NUME_ORDRE = 19,
              PARA = 'ITER_GLOB',        VALE_I = 0,
              CRITERE = 'ABSOLU',         PRECISION = 8.E+00),
            _F(  RESULTAT = RESU,           NUME_ORDRE = 19,
              PARA = 'ITER_LINE',        VALE_I = 0,
              CRITERE = 'ABSOLU',         PRECISION = 2.E+00),
            _F(  RESULTAT = RESU,           NUME_ORDRE = 19,
              CRITERE = 'ABSOLU',        PRECISION = 1.E-05,
              PARA = 'RESI_GLOB_RELA',   VALE = 0.),
            _F(  RESULTAT = RESU,           NUME_ORDRE = 19,
              CRITERE = 'ABSOLU',        PRECISION = 1.E-04,
              PARA = 'RESI_GLOB',        VALE = 0.))
#
               )

FIN()
#
