# CYLINDRE 3D PLEIN EN ROTATION AUTOUR DE SON AXE AVEC GYROSCOPIE 3D
# ======================================================================
# COPYRIGHT (C) 1991 - 2015  EDF R&D                  WWW.CODE-ASTER.ORG
# THIS PROGRAM IS FREE SOFTWARE; YOU CAN REDISTRIBUTE IT AND/OR MODIFY  
# IT UNDER THE TERMS OF THE GNU GENERAL PUBLIC LICENSE AS PUBLISHED BY  
# THE FREE SOFTWARE FOUNDATION; EITHER VERSION 2 OF THE LICENSE, OR     
# (AT YOUR OPTION) ANY LATER VERSION.                                                    
#                                                                       
# THIS PROGRAM IS DISTRIBUTED IN THE HOPE THAT IT WILL BE USEFUL, BUT   
# WITHOUT ANY WARRANTY; WITHOUT EVEN THE IMPLIED WARRANTY OF            
# MERCHANTABILITY OR FITNESS FOR A PARTICULAR PURPOSE. SEE THE GNU      
# GENERAL PUBLIC LICENSE FOR MORE DETAILS.                              
#                                                                       
# YOU SHOULD HAVE RECEIVED A COPY OF THE GNU GENERAL PUBLIC LICENSE     
# ALONG WITH THIS PROGRAM; IF NOT, WRITE TO EDF R&D CODE_ASTER,         
#    1 AVENUE DU GENERAL DE GAULLE, 92141 CLAMART CEDEX, FRANCE.        
# ======================================================================
#
import numpy as NP

DEBUT(CODE=_F(NIV_PUB_WEB='INTERNET',VISU_EFICAS='NON'),
      DEBUG=_F(SDVERI='OUI'),);

MBI=LIRE_MAILLAGE(FORMAT='MED',);

MOD=AFFE_MODELE(MAILLAGE=MBI,
                AFFE=_F(TOUT='OUI',
                        PHENOMENE='MECANIQUE',
                        MODELISATION='3D',),);

ELAS=DEFI_MATERIAU(ELAS=_F(E=2E11,
                           NU=0.0,
                           RHO=7800.0,),);

CHMAT=AFFE_MATERIAU(MAILLAGE=MBI,
                    AFFE=_F(TOUT='OUI',
                            MATER=ELAS,),);

CLDG=AFFE_CHAR_MECA(MODELE=MOD,
                  DDL_IMPO=(
                            _F(GROUP_NO='n_l_1',DX=0,DY=0,DZ=0,),
                            _F(GROUP_NO='n_r_1',DY=0,DZ=0,),
                            ),);

# LISTE DES VITESSES EN TR/MIN
VIT=NP.array([10000,20000,40000,60000,80000,100000]);
nbV=len(VIT)
# LISTE DES VITESSES EN RAD/S
omega=[VIT[ii]*pi/30. for ii in range(nbV)];
# VECTEUR DIRECTEUR AXE DE ROTATION : nx,ny,nz
nx=1;ny=0;nz=0;
CL1=AFFE_CHAR_MECA(MODELE=MOD,
                   ROTATION=_F(VITESSE= 1,
                   AXE = (nx,ny,nz,),),);

ASSEMBLAGE(MODELE=MOD,
           CHAM_MATER=CHMAT,
           NUME_DDL=CO('NUMEDDL'),
           CHARGE=(CL1,CLDG),
           MATR_ASSE=(_F(MATRICE=CO('RIGID'),
                              OPTION='RIGI_MECA',),
                           _F(MATRICE=CO('MASSE'),
                              OPTION='MASS_MECA',),
                           _F(MATRICE=CO('AMOR'),
                              OPTION='AMOR_MECA',),
                           _F(MATRICE=CO('RIGIDR'),
                              OPTION='RIGI_ROTA',),),);


GYELEM=CALC_MATR_ELEM(OPTION='MECA_GYRO',
                      MODELE=MOD,
                      CHARGE=(CL1,CLDG,),
                      CHAM_MATER=CHMAT,
                      );

GYASS=ASSE_MATRICE(MATR_ELEM=GYELEM,
                   NUME_DDL=NUMEDDL,);
                                 
# CALCUL DES MODES A L'ARRET
MODES0=CALC_MODES(MATR_RIGI=RIGID,
                  VERI_MODE=_F(STOP_ERREUR='NON',
                               ),
                  OPTION='CENTRE',
                  CALC_FREQ=_F(NMAX_FREQ=30,
                               FREQ=(500.,),
                               ),
                  SOLVEUR=_F(RENUM='METIS',
                             METHODE='MULT_FRONT',
                             NPREC=12,
                             ),
                  MATR_MASS=MASSE,
                  SOLVEUR_MODAL=_F(METHODE='SORENSEN',
                                   ),
                  TYPE_RESU='DYNAMIQUE',
                  )

#VITESSE DE ROTATION OMEGA=0
TEST_RESU(RESU=(_F(NUME_ORDRE=2,
                   PARA='FREQ',
                   REFERENCE='SOURCE_EXTERNE',
                   RESULTAT=MODES0,
                   VALE_CALC=244.77572049,
                   VALE_REFE=247.8400000000001,
                   CRITERE='RELATIF',
                   PRECISION=2.E-2,),
                _F(NUME_ORDRE=3,
                   PARA='FREQ',
                   REFERENCE='SOURCE_EXTERNE',
                   RESULTAT=MODES0,
                   VALE_CALC=244.77572050,
                   VALE_REFE=247.8400000000001,
                   CRITERE='RELATIF',
                   PRECISION=2.E-2,),
                _F(NUME_ORDRE=4,
                   PARA='FREQ',
                   REFERENCE='SOURCE_EXTERNE',
                   RESULTAT=MODES0,
                   VALE_CALC=971.91651522,
                   VALE_REFE=983.03000000000001,
                   CRITERE='RELATIF',
                   PRECISION=2.E-2,),
                _F(NUME_ORDRE=5,
                   PARA='FREQ',
                   REFERENCE='SOURCE_EXTERNE',
                   RESULTAT=MODES0,
                   VALE_CALC=971.91651522,
                   VALE_REFE=983.03000000000001,
                   CRITERE='RELATIF',
                   PRECISION=2.E-2,),
                _F(NUME_ORDRE=6,
                   PARA='FREQ',
                   REFERENCE='SOURCE_EXTERNE',
                   RESULTAT=MODES0,
                   VALE_CALC=2161.14902378,
                   VALE_REFE=2182.2100000000001,
                   CRITERE='RELATIF',
                   PRECISION=1.E-2,
                   ),
                _F(NUME_ORDRE=7,
                   PARA='FREQ',
                   REFERENCE='SOURCE_EXTERNE',
                   RESULTAT=MODES0,
                   VALE_CALC=2161.14902378,
                   VALE_REFE=2182.2100000000001,
                   CRITERE='RELATIF',
                   PRECISION=1.E-2,
                   ),
                _F(NUME_ORDRE=8,
                   PARA='FREQ',
                   REFERENCE='SOURCE_EXTERNE',
                   RESULTAT=MODES0,
                   VALE_CALC=2761.06722315,
                   VALE_REFE=2740.8500000000001,
                   CRITERE='RELATIF',
                   PRECISION=1.E-2,
                   ),
                _F(NUME_ORDRE=9,
                   PARA='FREQ',
                   REFERENCE='SOURCE_EXTERNE',
                   RESULTAT=MODES0,
                   VALE_CALC=3782.47576920,
                   VALE_REFE=3811.0700000000001,
                   CRITERE='RELATIF',
                   PRECISION=1.E-2,
                   ),
                _F(NUME_ORDRE=10,
                   PARA='FREQ',
                   REFERENCE='SOURCE_EXTERNE',
                   RESULTAT=MODES0,
                   VALE_CALC=3782.47576920,
                   VALE_REFE=3811.0700000000001,
                   CRITERE='RELATIF',
                   PRECISION=1.E-2,
                   ),
                _F(NUME_ORDRE=11,
                   PARA='FREQ',
                   REFERENCE='SOURCE_EXTERNE',
                   RESULTAT=MODES0,
                   VALE_CALC=4475.72392950,
                   VALE_REFE=4475.6700000000001,
                   CRITERE='RELATIF',
                   PRECISION=1.E-2,
                   ),
                _F(NUME_ORDRE=12,
                   PARA='FREQ',
                   REFERENCE='SOURCE_EXTERNE',
                   RESULTAT=MODES0,
                   VALE_CALC=5800.46457028,
                   VALE_REFE=5829.5300000000001,
                   CRITERE='RELATIF',
                   PRECISION=1.E-2,
                   ),
                _F(NUME_ORDRE=13,
                   PARA='FREQ',
                   REFERENCE='SOURCE_EXTERNE',
                   RESULTAT=MODES0,
                   VALE_CALC=5800.46457028,
                   VALE_REFE=5829.5300000000001,
                   CRITERE='RELATIF',
                   PRECISION=1.E-2,
                   ),
                ),
          )

lmod1=[None]*nbV;
lmod2=[None]*nbV;
for i in range(nbV):
    OM=omega[i]
    RIGIDi=COMB_MATR_ASSE(COMB_R=(_F(MATR_ASSE=RIGID,COEF_R=1.0,),
                              _F(MATR_ASSE=RIGIDR,COEF_R=OM**2,),),)
    GYASSi=COMB_MATR_ASSE(COMB_R=(_F(MATR_ASSE=AMOR,COEF_R=1.0,),
                                  _F(MATR_ASSE=GYASS,COEF_R=OM,),),),                            
    # CALCUL DES MODES AVEC GYROSCOPIE ET SANS RAIDEUR CENTRIFUGE
    lmod1[i]=CALC_MODES(MATR_RIGI=RIGID,
                            VERI_MODE=_F(STOP_ERREUR='NON',
                                         ),
                            OPTION='CENTRE',
                            CALC_FREQ=_F(NMAX_FREQ=30,
                                         FREQ=(500.,),
                                         ),
                            SOLVEUR=_F(RENUM='METIS',
                                       METHODE='MULT_FRONT',
                                       NPREC=12,
                                       ),
                            MATR_AMOR=GYASSi,
                            MATR_MASS=MASSE,
                            SOLVEUR_MODAL=_F(METHODE='SORENSEN',
                                             ),
                            TYPE_RESU='DYNAMIQUE',
                            )
    # CALCUL DES MODES AVEC GYROSCOPIE ET AVEC RAIDEUR CENTRIFUGE
    lmod2[i]=CALC_MODES(MATR_RIGI=RIGIDi,
                            VERI_MODE=_F(STOP_ERREUR='NON',
                                         ),
                            OPTION='CENTRE',
                            CALC_FREQ=_F(NMAX_FREQ=30,
                                         FREQ=(500.,),
                                         ),
                            SOLVEUR=_F(RENUM='METIS',
                                       METHODE='MULT_FRONT',
                                       NPREC=12,
                                       ),
                            MATR_AMOR=GYASSi,
                            MATR_MASS=MASSE,
                            SOLVEUR_MODAL=_F(METHODE='SORENSEN',
                                             ),
                            TYPE_RESU='DYNAMIQUE',
                            )
    DETRUIRE(CONCEPT=_F(NOM=RIGIDi),INFO=1)
    DETRUIRE(CONCEPT=_F(NOM=GYASSi),INFO=1)

# VITESSE DE ROTATION OMEGA=10000 TR/MIN
TEST_RESU(RESU=(_F(NUME_ORDRE=1,
                   PARA='FREQ',
                   REFERENCE='SOURCE_EXTERNE',
                   RESULTAT=lmod1_0,
                   VALE_CALC=129.57176509,
                   VALE_REFE=132.1100000000001,
                   CRITERE='RELATIF',
                   PRECISION=2.E-2,),
                _F(NUME_ORDRE=2,
                   PARA='FREQ',
                   REFERENCE='SOURCE_EXTERNE',
                   RESULTAT=lmod1_0,
                   VALE_CALC=462.40901553,
                   VALE_REFE=464.9400000000001,
                   CRITERE='RELATIF',
                   PRECISION=1.E-2,),
                _F(NUME_ORDRE=3,
                   PARA='FREQ',
                   REFERENCE='SOURCE_EXTERNE',
                   RESULTAT=lmod1_0,
                   VALE_CALC=820.23775289,
                   VALE_REFE=831.22000000000001,
                   CRITERE='RELATIF',
                   PRECISION=2.E-2,),
                _F(NUME_ORDRE=4,
                   PARA='FREQ',
                   REFERENCE='SOURCE_EXTERNE',
                   RESULTAT=lmod1_0,
                   VALE_CALC=1151.64371223,
                   VALE_REFE=1162.58000000000001,
                   CRITERE='RELATIF',
                   PRECISION=1.E-2,),
                _F(NUME_ORDRE=5,
                   PARA='FREQ',
                   REFERENCE='SOURCE_EXTERNE',
                   RESULTAT=lmod1_0,
                   VALE_CALC=2002.80993107,
                   VALE_REFE=2023.8600000000001,
                   CRITERE='RELATIF',
                   PRECISION=2.E-2,
                   ),
                _F(NUME_ORDRE=6,
                   PARA='FREQ',
                   REFERENCE='SOURCE_EXTERNE',
                   RESULTAT=lmod1_0,
                   VALE_CALC=2332.00584570,
                   VALE_REFE=2352.9600000000001,
                   CRITERE='RELATIF',
                   PRECISION=1.E-2,
                   ),
                _F(NUME_ORDRE=7,
                   PARA='FREQ',
                   REFERENCE='SOURCE_EXTERNE',
                   RESULTAT=lmod1_0,
                   VALE_CALC=2761.06722311,
                   VALE_REFE=2740.8500000000001,
                   CRITERE='RELATIF',
                   PRECISION=1.E-2,
                   ),
                _F(NUME_ORDRE=8,
                   PARA='FREQ',
                   REFERENCE='SOURCE_EXTERNE',
                   RESULTAT=lmod1_0,
                   VALE_CALC=3622.78161388,
                   VALE_REFE=3651.4200000000001,
                   CRITERE='RELATIF',
                   PRECISION=1.E-2,
                   ),
                _F(NUME_ORDRE=9,
                   PARA='FREQ',
                   REFERENCE='SOURCE_EXTERNE',
                   RESULTAT=lmod1_0,
                   VALE_CALC=3949.20846927,
                   VALE_REFE=3977.7000000000001,
                   CRITERE='RELATIF',
                   PRECISION=1.E-2,
                   ),
                _F(NUME_ORDRE=10,
                   PARA='FREQ',
                   REFERENCE='SOURCE_EXTERNE',
                   RESULTAT=lmod1_0,
                   VALE_CALC=4475.71304375,
                   VALE_REFE=4475.6600000000001,
                   CRITERE='RELATIF',
                   PRECISION=1.E-2,
                   ),
                _F(NUME_ORDRE=11,
                   PARA='FREQ',
                   REFERENCE='SOURCE_EXTERNE',
                   RESULTAT=lmod1_0,
                   VALE_CALC=5641.04660190,
                   VALE_REFE=5670.2000000000001,
                   CRITERE='RELATIF',
                   PRECISION=1.E-2,
                   ),
                _F(NUME_ORDRE=12,
                   PARA='FREQ',
                   REFERENCE='SOURCE_EXTERNE',
                   RESULTAT=lmod1_0,
                   VALE_CALC=5964.38596472,
                   VALE_REFE=5993.3400000000001,
                   CRITERE='RELATIF',
                   PRECISION=1.E-2,
                   ),
                ),
          )

TEST_RESU(RESU=(_F(NUME_ORDRE=1,
                   PARA='FREQ',
                   REFERENCE='SOURCE_EXTERNE',
                   RESULTAT=lmod2_0,
                   VALE_CALC=78.27275852,
                   VALE_REFE=81.3400000000001,
                   CRITERE='RELATIF',
                   PRECISION=4.E-2,),
                _F(NUME_ORDRE=2,
                   PARA='FREQ',
                   REFERENCE='SOURCE_EXTERNE',
                   RESULTAT=lmod2_0,
                   VALE_CALC=411.11001183,
                   VALE_REFE=414.1600000000001,
                   CRITERE='RELATIF',
                   PRECISION=1.E-2,),
                _F(NUME_ORDRE=3,
                   PARA='FREQ',
                   REFERENCE='SOURCE_EXTERNE',
                   RESULTAT=lmod2_0,
                   VALE_CALC=806.13134533,
                   VALE_REFE=817.27000000000001,
                   CRITERE='RELATIF',
                   PRECISION=2.E-2,),
                _F(NUME_ORDRE=4,
                   PARA='FREQ',
                   REFERENCE='SOURCE_EXTERNE',
                   RESULTAT=lmod2_0,
                   VALE_CALC=1137.53731559,
                   VALE_REFE=1148.60000000000001,
                   CRITERE='RELATIF',
                   PRECISION=1.E-2,),
                _F(NUME_ORDRE=5,
                   PARA='FREQ',
                   REFERENCE='SOURCE_EXTERNE',
                   RESULTAT=lmod2_0,
                   VALE_CALC=1996.47212754,
                   VALE_REFE=2017.6000000000001,
                   CRITERE='RELATIF',
                   PRECISION=2.E-2,
                   ),
                _F(NUME_ORDRE=6,
                   PARA='FREQ',
                   REFERENCE='SOURCE_EXTERNE',
                   RESULTAT=lmod2_0,
                   VALE_CALC=2325.66806486,
                   VALE_REFE=2346.7000000000001,
                   CRITERE='RELATIF',
                   PRECISION=1.E-2,
                   ),
                _F(NUME_ORDRE=7,
                   PARA='FREQ',
                   REFERENCE='SOURCE_EXTERNE',
                   RESULTAT=lmod2_0,
                   VALE_CALC=2761.06721237,
                   VALE_REFE=2740.9000000000001,
                   CRITERE='RELATIF',
                   PRECISION=1.E-2,
                   ),
                _F(NUME_ORDRE=8,
                   PARA='FREQ',
                   REFERENCE='SOURCE_EXTERNE',
                   RESULTAT=lmod2_0,
                   VALE_CALC=3619.18740555,
                   VALE_REFE=3647.9000000000001,
                   CRITERE='RELATIF',
                   PRECISION=1.E-2,
                   ),
                _F(NUME_ORDRE=9,
                   PARA='FREQ',
                   REFERENCE='SOURCE_EXTERNE',
                   RESULTAT=lmod2_0,
                   VALE_CALC=3945.61429721,
                   VALE_REFE=3974.1000000000001,
                   CRITERE='RELATIF',
                   PRECISION=1.E-2,
                   ),
                _F(NUME_ORDRE=10,
                   PARA='FREQ',
                   REFERENCE='SOURCE_EXTERNE',
                   RESULTAT=lmod2_0,
                   VALE_CALC=4472.6088140,
                   VALE_REFE=4472.6000000000001,
                   CRITERE='RELATIF',
                   PRECISION=1.E-2,
                   ),
                _F(NUME_ORDRE=11,
                   PARA='FREQ',
                   REFERENCE='SOURCE_EXTERNE',
                   RESULTAT=lmod2_0,
                   VALE_CALC=5638.72435334,
                   VALE_REFE=5667.9000000000001,
                   CRITERE='RELATIF',
                   PRECISION=1.E-2,
                   ),
                _F(NUME_ORDRE=12,
                   PARA='FREQ',
                   REFERENCE='SOURCE_EXTERNE',
                   RESULTAT=lmod2_0,
                   VALE_CALC=5962.06376599,
                   VALE_REFE=5991.0000000000001,
                   CRITERE='RELATIF',
                   PRECISION=1.E-2,
                   ),
                ),
          )

# VITESSE DE ROTATION OMEGA=20000 TR/MIN
TEST_RESU(RESU=(_F(NUME_ORDRE=1,
                   PARA='FREQ',
                   REFERENCE='SOURCE_EXTERNE',
                   RESULTAT=lmod1_1,
                   VALE_CALC=80.31621654,
                   VALE_REFE=82.1400000000001,
                   CRITERE='RELATIF',
                   PRECISION=3.E-2,),
                _F(NUME_ORDRE=2,
                   PARA='FREQ',
                   REFERENCE='SOURCE_EXTERNE',
                   RESULTAT=lmod1_1,
                   VALE_CALC=695.45891268,
                   VALE_REFE=706.0200000000001,
                   CRITERE='RELATIF',
                   PRECISION=2.E-2,),
                _F(NUME_ORDRE=3,
                   PARA='FREQ',
                   REFERENCE='SOURCE_EXTERNE',
                   RESULTAT=lmod1_1,
                   VALE_CALC=745.9906830,
                   VALE_REFE=747.79000000000001,
                   CRITERE='RELATIF',
                   PRECISION=1.E-2,),
                _F(NUME_ORDRE=4,
                   PARA='FREQ',
                   REFERENCE='SOURCE_EXTERNE',
                   RESULTAT=lmod1_1,
                   VALE_CALC=1358.27070094,
                   VALE_REFE=1368.74000000000001,
                   CRITERE='RELATIF',
                   PRECISION=1.E-2,),
                _F(NUME_ORDRE=5,
                   PARA='FREQ',
                   REFERENCE='SOURCE_EXTERNE',
                   RESULTAT=lmod1_1,
                   VALE_CALC=1856.88116751,
                   VALE_REFE=1877.7900000000001,
                   CRITERE='RELATIF',
                   PRECISION=2.E-2,
                   ),
                _F(NUME_ORDRE=6,
                   PARA='FREQ',
                   REFERENCE='SOURCE_EXTERNE',
                   RESULTAT=lmod1_1,
                   VALE_CALC=2515.27272769,
                   VALE_REFE=2535.9900000000001,
                   CRITERE='RELATIF',
                   PRECISION=1.E-2,
                   ),
                _F(NUME_ORDRE=7,
                   PARA='FREQ',
                   REFERENCE='SOURCE_EXTERNE',
                   RESULTAT=lmod1_1,
                   VALE_CALC=2761.06722214,
                   VALE_REFE=2740.8500000000001,
                   CRITERE='RELATIF',
                   PRECISION=1.E-2,
                   ),
                _F(NUME_ORDRE=8,
                   PARA='FREQ',
                   REFERENCE='SOURCE_EXTERNE',
                   RESULTAT=lmod1_1,
                   VALE_CALC=3470.10662475,
                   VALE_REFE=3498.7300000000001,
                   CRITERE='RELATIF',
                   PRECISION=1.E-2,
                   ),
                _F(NUME_ORDRE=9,
                   PARA='FREQ',
                   REFERENCE='SOURCE_EXTERNE',
                   RESULTAT=lmod1_1,
                   VALE_CALC=4122.95990880,
                   VALE_REFE=4151.2900000000001,
                   CRITERE='RELATIF',
                   PRECISION=1.E-2,
                   ),
                _F(NUME_ORDRE=10,
                   PARA='FREQ',
                   REFERENCE='SOURCE_EXTERNE',
                   RESULTAT=lmod1_1,
                   VALE_CALC=4475.68038673,
                   VALE_REFE=4475.6200000000001,
                   CRITERE='RELATIF',
                   PRECISION=1.E-2,
                   ),
                _F(NUME_ORDRE=11,
                   PARA='FREQ',
                   REFERENCE='SOURCE_EXTERNE',
                   RESULTAT=lmod1_1,
                   VALE_CALC=5486.12709732,
                   VALE_REFE=5515.3300000000001,
                   CRITERE='RELATIF',
                   PRECISION=1.E-2,
                   ),
                _F(NUME_ORDRE=12,
                   PARA='FREQ',
                   REFERENCE='SOURCE_EXTERNE',
                   RESULTAT=lmod1_1,
                   VALE_CALC=6132.80524145,
                   VALE_REFE=6161.6100000000001,
                   CRITERE='RELATIF',
                   PRECISION=1.E-2,
                   ),
                ),
          )

TEST_RESU(RESU=(_F(NUME_ORDRE=1,
                   PARA='FREQ',
                   REFERENCE='SOURCE_EXTERNE',
                   RESULTAT=lmod2_1,
                   VALE_CALC=88.39904321,
                   VALE_REFE=85.3300000000001,
                   CRITERE='RELATIF',
                   PRECISION=4.E-2,),
                _F(NUME_ORDRE=2,
                   PARA='FREQ',
                   REFERENCE='SOURCE_EXTERNE',
                   RESULTAT=lmod2_1,
                   VALE_CALC=577.27544623,
                   VALE_REFE=580.3200000000001,
                   CRITERE='RELATIF',
                   PRECISION=1.E-2,),
                _F(NUME_ORDRE=3,
                   PARA='FREQ',
                   REFERENCE='SOURCE_EXTERNE',
                   RESULTAT=lmod2_1,
                   VALE_CALC=640.18179385,
                   VALE_REFE=651.34000000000001,
                   CRITERE='RELATIF',
                   PRECISION=2.E-2,),
                _F(NUME_ORDRE=4,
                   PARA='FREQ',
                   REFERENCE='SOURCE_EXTERNE',
                   RESULTAT=lmod2_1,
                   VALE_CALC=1302.99366955,
                   VALE_REFE=1314.10000000000001,
                   CRITERE='RELATIF',
                   PRECISION=1.E-2,),
                _F(NUME_ORDRE=5,
                   PARA='FREQ',
                   REFERENCE='SOURCE_EXTERNE',
                   RESULTAT=lmod2_1,
                   VALE_CALC=1831.63742287,
                   VALE_REFE=1852.8000000000001,
                   CRITERE='RELATIF',
                   PRECISION=2.E-2,
                   ),
                _F(NUME_ORDRE=6,
                   PARA='FREQ',
                   REFERENCE='SOURCE_EXTERNE',
                   RESULTAT=lmod2_1,
                   VALE_CALC=2490.02916466,
                   VALE_REFE=2511.0000000000001,
                   CRITERE='RELATIF',
                   PRECISION=1.E-2,
                   ),
                _F(NUME_ORDRE=7,
                   PARA='FREQ',
                   REFERENCE='SOURCE_EXTERNE',
                   RESULTAT=lmod2_1,
                   VALE_CALC=2761.06716651,
                   VALE_REFE=2740.9000000000001,
                   CRITERE='RELATIF',
                   PRECISION=1.E-2,
                   ),
                _F(NUME_ORDRE=8,
                   PARA='FREQ',
                   REFERENCE='SOURCE_EXTERNE',
                   RESULTAT=lmod2_1,
                   VALE_CALC=3455.74929983,
                   VALE_REFE=3484.5000000000001,
                   CRITERE='RELATIF',
                   PRECISION=1.E-2,
                   ),
                _F(NUME_ORDRE=9,
                   PARA='FREQ',
                   REFERENCE='SOURCE_EXTERNE',
                   RESULTAT=lmod2_1,
                   VALE_CALC=4108.60287413,
                   VALE_REFE=4137.0000000000001,
                   CRITERE='RELATIF',
                   PRECISION=1.E-2,
                   ),
                _F(NUME_ORDRE=10,
                   PARA='FREQ',
                   REFERENCE='SOURCE_EXTERNE',
                   RESULTAT=lmod2_1,
                   VALE_CALC=4463.25060602,
                   VALE_REFE=4463.2000000000001,
                   CRITERE='RELATIF',
                   PRECISION=1.E-2,
                   ),
                _F(NUME_ORDRE=11,
                   PARA='FREQ',
                   REFERENCE='SOURCE_EXTERNE',
                   RESULTAT=lmod2_1,
                   VALE_CALC=5476.84324950,
                   VALE_REFE=5506.1000000000001,
                   CRITERE='RELATIF',
                   PRECISION=1.E-2,
                   ),
                _F(NUME_ORDRE=12,
                   PARA='FREQ',
                   REFERENCE='SOURCE_EXTERNE',
                   RESULTAT=lmod2_1,
                   VALE_CALC=6123.52179236,
                   VALE_REFE=6152.4000000000001,
                   CRITERE='RELATIF',
                   PRECISION=1.E-2,
                   ),
                ),
          )

# VITESSE DE ROTATION OMEGA=40000 TR/MIN
TEST_RESU(RESU=(_F(NUME_ORDRE=1,
                   PARA='FREQ',
                   REFERENCE='SOURCE_EXTERNE',
                   RESULTAT=lmod1_2,
                   VALE_CALC=43.57700103,
                   VALE_REFE=44.6400000000001,
                   CRITERE='RELATIF',
                   PRECISION=3.E-2,),
                _F(NUME_ORDRE=2,
                   PARA='FREQ',
                   REFERENCE='SOURCE_EXTERNE',
                   RESULTAT=lmod1_2,
                   VALE_CALC=513.59831196,
                   VALE_REFE=522.8400000000001,
                   CRITERE='RELATIF',
                   PRECISION=2.E-2,),
                _F(NUME_ORDRE=3,
                   PARA='FREQ',
                   REFERENCE='SOURCE_EXTERNE',
                   RESULTAT=lmod1_2,
                   VALE_CALC=1374.92565853,
                   VALE_REFE=1375.94000000000001,
                   CRITERE='RELATIF',
                   PRECISION=1.E-2,),
                _F(NUME_ORDRE=4,
                   PARA='FREQ',
                   REFERENCE='SOURCE_EXTERNE',
                   RESULTAT=lmod1_2,
                   VALE_CALC=1600.82020932,
                   VALE_REFE=1621.11000000000001,
                   CRITERE='RELATIF',
                   PRECISION=2.E-2,),
                _F(NUME_ORDRE=5,
                   PARA='FREQ',
                   REFERENCE='SOURCE_EXTERNE',
                   RESULTAT=lmod1_2,
                   VALE_CALC=1839.22084506,
                   VALE_REFE=1848.2800000000001,
                   CRITERE='RELATIF',
                   PRECISION=1.E-2,
                   ),
                _F(NUME_ORDRE=6,
                   PARA='FREQ',
                   REFERENCE='SOURCE_EXTERNE',
                   RESULTAT=lmod1_2,
                   VALE_CALC=2761.06722275,
                   VALE_REFE=2740.8500000000001,
                   CRITERE='RELATIF',
                   PRECISION=1.E-2,
                   ),
                _F(NUME_ORDRE=7,
                   PARA='FREQ',
                   REFERENCE='SOURCE_EXTERNE',
                   RESULTAT=lmod1_2,
                   VALE_CALC=2917.60117680,
                   VALE_REFE=2937.5000000000001,
                   CRITERE='RELATIF',
                   PRECISION=1.E-2,
                   ),
                _F(NUME_ORDRE=8,
                   PARA='FREQ',
                   REFERENCE='SOURCE_EXTERNE',
                   RESULTAT=lmod1_2,
                   VALE_CALC=3185.54500425,
                   VALE_REFE=3214.0000000000001,
                   CRITERE='RELATIF',
                   PRECISION=1.E-2,
                   ),
                _F(NUME_ORDRE=9,
                   PARA='FREQ',
                   REFERENCE='SOURCE_EXTERNE',
                   RESULTAT=lmod1_2,
                   VALE_CALC=4475.54976593,
                   VALE_REFE=4475.5000000000001,
                   CRITERE='RELATIF',
                   PRECISION=1.E-2,
                   ),
                _F(NUME_ORDRE=10,
                   PARA='FREQ',
                   REFERENCE='SOURCE_EXTERNE',
                   RESULTAT=lmod1_2,
                   VALE_CALC=4491.24815801,
                   VALE_REFE=4519.1000000000001,
                   CRITERE='RELATIF',
                   PRECISION=1.E-2,
                   ),
                _F(NUME_ORDRE=11,
                   PARA='FREQ',
                   REFERENCE='SOURCE_EXTERNE',
                   RESULTAT=lmod1_2,
                   VALE_CALC=5189.71159002,
                   VALE_REFE=5219.0000000000001,
                   CRITERE='RELATIF',
                   PRECISION=1.E-2,
                   ),
                _F(NUME_ORDRE=12,
                   PARA='FREQ',
                   REFERENCE='SOURCE_EXTERNE',
                   RESULTAT=lmod1_2,
                   VALE_CALC=6483.06322578,
                   VALE_REFE=6511.5000000000001,
                   CRITERE='RELATIF',
                   PRECISION=1.E-2,
                   ),
                ),
          )

TEST_RESU(RESU=(_F(NUME_ORDRE=1,
                   PARA='FREQ',
                   REFERENCE='SOURCE_EXTERNE',
                   RESULTAT=lmod2_2,
                   VALE_CALC=307.78905345,
                   VALE_REFE=318.9800000000001,
                   CRITERE='RELATIF',
                   PRECISION=4.E-2,),
                _F(NUME_ORDRE=2,
                   PARA='FREQ',
                   REFERENCE='SOURCE_EXTERNE',
                   RESULTAT=lmod2_2,
                   VALE_CALC=422.25163080,
                   VALE_REFE=419.1800000000001,
                   CRITERE='RELATIF',
                   PRECISION=1.E-2,),
                _F(NUME_ORDRE=3,
                   PARA='FREQ',
                   REFERENCE='SOURCE_EXTERNE',
                   RESULTAT=lmod2_2,
                   VALE_CALC=909.09721060,
                   VALE_REFE=912.12000000000001,
                   CRITERE='RELATIF',
                   PRECISION=1.E-2,),
                _F(NUME_ORDRE=4,
                   PARA='FREQ',
                   REFERENCE='SOURCE_EXTERNE',
                   RESULTAT=lmod2_2,
                   VALE_CALC=1501.49457840,
                   VALE_REFE=1522.70000000000001,
                   CRITERE='RELATIF',
                   PRECISION=2.E-2,),
                _F(NUME_ORDRE=5,
                   PARA='FREQ',
                   REFERENCE='SOURCE_EXTERNE',
                   RESULTAT=lmod2_2,
                   VALE_CALC=1633.41228628,
                   VALE_REFE=1644.4000000000001,
                   CRITERE='RELATIF',
                   PRECISION=1.E-2,
                   ),
                _F(NUME_ORDRE=6,
                   PARA='FREQ',
                   REFERENCE='SOURCE_EXTERNE',
                   RESULTAT=lmod2_2,
                   VALE_CALC=2761.06699650,
                   VALE_REFE=2740.9000000000001,
                   CRITERE='RELATIF',
                   PRECISION=1.E-2,
                   ),
                _F(NUME_ORDRE=7,
                   PARA='FREQ',
                   REFERENCE='SOURCE_EXTERNE',
                   RESULTAT=lmod2_2,
                   VALE_CALC=2818.27699902,
                   VALE_REFE=2839.1000000000001,
                   CRITERE='RELATIF',
                   PRECISION=1.E-2,
                   ),
                _F(NUME_ORDRE=8,
                   PARA='FREQ',
                   REFERENCE='SOURCE_EXTERNE',
                   RESULTAT=lmod2_2,
                   VALE_CALC=3128.42412704,
                   VALE_REFE=3157.3000000000001,
                   CRITERE='RELATIF',
                   PRECISION=1.E-2,
                   ),
                _F(NUME_ORDRE=9,
                   PARA='FREQ',
                   REFERENCE='SOURCE_EXTERNE',
                   RESULTAT=lmod2_2,
                   VALE_CALC=4425.62265190,
                   VALE_REFE=4425.6000000000001,
                   CRITERE='RELATIF',
                   PRECISION=1.E-2,
                   ),
                _F(NUME_ORDRE=10,
                   PARA='FREQ',
                   REFERENCE='SOURCE_EXTERNE',
                   RESULTAT=lmod2_2,
                   VALE_CALC=4434.12960334,
                   VALE_REFE=4462.4000000000001,
                   CRITERE='RELATIF',
                   PRECISION=1.E-2,
                   ),
                _F(NUME_ORDRE=11,
                   PARA='FREQ',
                   REFERENCE='SOURCE_EXTERNE',
                   RESULTAT=lmod2_2,
                   VALE_CALC=5152.65885023,
                   VALE_REFE=5182.1000000000001,
                   CRITERE='RELATIF',
                   PRECISION=1.E-2,
                   ),
                _F(NUME_ORDRE=12,
                   PARA='FREQ',
                   REFERENCE='SOURCE_EXTERNE',
                   RESULTAT=lmod2_2,
                   VALE_CALC=6446.01367638,
                   VALE_REFE=6474.7000000000001,
                   CRITERE='RELATIF',
                   PRECISION=1.E-2,
                   ),
                ),
          )


# VITESSE DE ROTATION OMEGA=60000 TR/MIN
TEST_RESU(RESU=(_F(NUME_ORDRE=1,
                   PARA='FREQ',
                   REFERENCE='SOURCE_EXTERNE',
                   RESULTAT=lmod1_3,
                   VALE_CALC=29.56454415,
                   VALE_REFE=30.3000000000001,
                   CRITERE='RELATIF',
                   PRECISION=3.E-2,),
                _F(NUME_ORDRE=2,
                   PARA='FREQ',
                   REFERENCE='SOURCE_EXTERNE',
                   RESULTAT=lmod1_3,
                   VALE_CALC=396.13836392,
                   VALE_REFE=403.9700000000001,
                   CRITERE='RELATIF',
                   PRECISION=2.E-2,),
                _F(NUME_ORDRE=3,
                   PARA='FREQ',
                   REFERENCE='SOURCE_EXTERNE',
                   RESULTAT=lmod1_3,
                   VALE_CALC=1388.51933151,
                   VALE_REFE=1407.86000000000001,
                   CRITERE='RELATIF',
                   PRECISION=2.E-2,),
                _F(NUME_ORDRE=4,
                   PARA='FREQ',
                   REFERENCE='SOURCE_EXTERNE',
                   RESULTAT=lmod1_3,
                   VALE_CALC=2026.58684159,
                   VALE_REFE=2027.25000000000001,
                   CRITERE='RELATIF',
                   PRECISION=1.E-2,),
                _F(NUME_ORDRE=5,
                   PARA='FREQ',
                   REFERENCE='SOURCE_EXTERNE',
                   RESULTAT=lmod1_3,
                   VALE_CALC=2384.56955406,
                   VALE_REFE=2392.1200000000001,
                   CRITERE='RELATIF',
                   PRECISION=1.E-2,
                   ),
                _F(NUME_ORDRE=6,
                   PARA='FREQ',
                   REFERENCE='SOURCE_EXTERNE',
                   RESULTAT=lmod1_3,
                   VALE_CALC=2761.06722212,
                   VALE_REFE=2740.8500000000001,
                   CRITERE='RELATIF',
                   PRECISION=1.E-2,
                   ),
                _F(NUME_ORDRE=7,
                   PARA='FREQ',
                   REFERENCE='SOURCE_EXTERNE',
                   RESULTAT=lmod1_3,
                   VALE_CALC=2927.89808551,
                   VALE_REFE=2955.9200000000001,
                   CRITERE='RELATIF',
                   PRECISION=1.E-2,
                   ),
                _F(NUME_ORDRE=8,
                   PARA='FREQ',
                   REFERENCE='SOURCE_EXTERNE',
                   RESULTAT=lmod1_3,
                   VALE_CALC=3363.68539862,
                   VALE_REFE=3382.4600000000001,
                   CRITERE='RELATIF',
                   PRECISION=1.E-2,
                   ),
                _F(NUME_ORDRE=9,
                   PARA='FREQ',
                   REFERENCE='SOURCE_EXTERNE',
                   RESULTAT=lmod1_3,
                   VALE_CALC=4475.33209146,
                   VALE_REFE=4475.2700000000001,
                   CRITERE='RELATIF',
                   PRECISION=1.E-2,
                   ),
                _F(NUME_ORDRE=10,
                   PARA='FREQ',
                   REFERENCE='SOURCE_EXTERNE',
                   RESULTAT=lmod1_3,
                   VALE_CALC=4886.44427760,
                   VALE_REFE=4913.5800000000001,
                   CRITERE='RELATIF',
                   PRECISION=1.E-2,
                   ),
                _F(NUME_ORDRE=11,
                   PARA='FREQ',
                   REFERENCE='SOURCE_EXTERNE',
                   RESULTAT=lmod1_3,
                   VALE_CALC=4910.97351790,
                   VALE_REFE=4940.1400000000001,
                   CRITERE='RELATIF',
                   PRECISION=1.E-2,
                   ),
                _F(NUME_ORDRE=12,
                   PARA='FREQ',
                   REFERENCE='SOURCE_EXTERNE',
                   RESULTAT=lmod1_3,
                   VALE_CALC=6850.98933634,
                   VALE_REFE=6878.9600000000001,
                   CRITERE='RELATIF',
                   PRECISION=1.E-2,
                   ),
                ),
          )

TEST_RESU(RESU=(_F(NUME_ORDRE=1,
                   PARA='FREQ',
                   RESULTAT=lmod2_3,
                   VALE_CALC=25.26360000000001,
                   CRITERE='RELATIF',),
                _F(NUME_ORDRE=2,
                   PARA='FREQ',
                   REFERENCE='SOURCE_EXTERNE',
                   RESULTAT=lmod2_3,
                   VALE_CALC=756.79065730,
                   VALE_REFE=753.7300000000001,
                   CRITERE='RELATIF',
                   PRECISION=1.E-2,),
                _F(NUME_ORDRE=3,
                   PARA='FREQ',
                   REFERENCE='SOURCE_EXTERNE',
                   RESULTAT=lmod2_3,
                   VALE_CALC=1170.72007554,
                   VALE_REFE=1192.00000000000001,
                   CRITERE='RELATIF',
                   PRECISION=2.E-2,),
                _F(NUME_ORDRE=4,
                   PARA='FREQ',
                   REFERENCE='SOURCE_EXTERNE',
                   RESULTAT=lmod2_3,
                   VALE_CALC=1240.23226105,
                   VALE_REFE=1243.20000000000001,
                   CRITERE='RELATIF',
                   PRECISION=1.E-2,),
                _F(NUME_ORDRE=5,
                   PARA='FREQ',
                   REFERENCE='SOURCE_EXTERNE',
                   RESULTAT=lmod2_3,
                   VALE_CALC=1963.16996501,
                   VALE_REFE=1974.1000000000001,
                   CRITERE='RELATIF',
                   PRECISION=1.E-2,
                   ),
                _F(NUME_ORDRE=6,
                   PARA='FREQ',
                   REFERENCE='SOURCE_EXTERNE',
                   RESULTAT=lmod2_3,
                   VALE_CALC=2761.06671321,
                   VALE_REFE=2740.9000000000001,
                   CRITERE='RELATIF',
                   PRECISION=1.E-2,
                   ),
                _F(NUME_ORDRE=7,
                   PARA='FREQ',
                   REFERENCE='SOURCE_EXTERNE',
                   RESULTAT=lmod2_3,
                   VALE_CALC=2800.50056124,
                   VALE_REFE=2829.5000000000001,
                   CRITERE='RELATIF',
                   PRECISION=2.E-2,
                   ),
                _F(NUME_ORDRE=8,
                   PARA='FREQ',
                   REFERENCE='SOURCE_EXTERNE',
                   RESULTAT=lmod2_3,
                   VALE_CALC=3145.89104872,
                   VALE_REFE=3166.6000000000001,
                   CRITERE='RELATIF',
                   PRECISION=1.E-2,
                   ),
                _F(NUME_ORDRE=9,
                   PARA='FREQ',
                   REFERENCE='SOURCE_EXTERNE',
                   RESULTAT=lmod2_3,
                   VALE_CALC=4362.19811747,
                   VALE_REFE=4362.1000000000001,
                   CRITERE='RELATIF',
                   PRECISION=1.E-2,
                   ),
                _F(NUME_ORDRE=10,
                   PARA='FREQ',
                   REFERENCE='SOURCE_EXTERNE',
                   RESULTAT=lmod2_3,
                   VALE_CALC=4759.05459444,
                   VALE_REFE=4787.2000000000001,
                   CRITERE='RELATIF',
                   PRECISION=1.E-2,
                   ),
                _F(NUME_ORDRE=11,
                   PARA='FREQ',
                   REFERENCE='SOURCE_EXTERNE',
                   RESULTAT=lmod2_3,
                   VALE_CALC=4827.91217306,
                   VALE_REFE=4857.5000000000001,
                   CRITERE='RELATIF',
                   PRECISION=1.E-2,
                   ),
                _F(NUME_ORDRE=12,
                   PARA='FREQ',
                   REFERENCE='SOURCE_EXTERNE',
                   RESULTAT=lmod2_3,
                   VALE_CALC=6767.93876271,
                   VALE_REFE=6796.4000000000001,
                   CRITERE='RELATIF',
                   PRECISION=1.E-2,
                   ),
                ),
          )

# VITESSE DE ROTATION OMEGA=80000 TR/MIN
TEST_RESU(RESU=(_F(NUME_ORDRE=1,
                   PARA='FREQ',
                   REFERENCE='SOURCE_EXTERNE',
                   RESULTAT=lmod1_4,
                   VALE_CALC=22.31466262,
                   VALE_REFE=22.8700000000001,
                   CRITERE='RELATIF',
                   PRECISION=3.E-2,),
                _F(NUME_ORDRE=2,
                   PARA='FREQ',
                   REFERENCE='SOURCE_EXTERNE',
                   RESULTAT=lmod1_4,
                   VALE_CALC=318.12182143,
                   VALE_REFE=324.7600000000001,
                   CRITERE='RELATIF',
                   PRECISION=3.E-2,),
                _F(NUME_ORDRE=3,
                   PARA='FREQ',
                   REFERENCE='SOURCE_EXTERNE',
                   RESULTAT=lmod1_4,
                   VALE_CALC=1213.92198105,
                   VALE_REFE=1232.12000000000001,
                   CRITERE='RELATIF',
                   PRECISION=2.E-2,),
                _F(NUME_ORDRE=4,
                   PARA='FREQ',
                   REFERENCE='SOURCE_EXTERNE',
                   RESULTAT=lmod1_4,
                   VALE_CALC=2685.00977270,
                   VALE_REFE=2685.47000000000001,
                   CRITERE='RELATIF',
                   PRECISION=1.E-2,),
                _F(NUME_ORDRE=5,
                   PARA='FREQ',
                   REFERENCE='SOURCE_EXTERNE',
                   RESULTAT=lmod1_4,
                   VALE_CALC=2695.77882232,
                   VALE_REFE=2723.2200000000001,
                   CRITERE='RELATIF',
                   PRECISION=2.E-2,
                   ),
                _F(NUME_ORDRE=6,
                   PARA='FREQ',
                   REFERENCE='SOURCE_EXTERNE',
                   RESULTAT=lmod1_4,
                   VALE_CALC=2761.06722144,
                   VALE_REFE=2740.8500000000001,
                   CRITERE='RELATIF',
                   PRECISION=1.E-2,
                   ),
                _F(NUME_ORDRE=7,
                   PARA='FREQ',
                   REFERENCE='SOURCE_EXTERNE',
                   RESULTAT=lmod1_4,
                   VALE_CALC=2969.35853460,
                   VALE_REFE=2975.6200000000001,
                   CRITERE='RELATIF',
                   PRECISION=1.E-2,
                   ),
                _F(NUME_ORDRE=8,
                   PARA='FREQ',
                   REFERENCE='SOURCE_EXTERNE',
                   RESULTAT=lmod1_4,
                   VALE_CALC=3847.46668172,
                   VALE_REFE=3864.9000000000001,
                   CRITERE='RELATIF',
                   PRECISION=1.E-2,
                   ),
                _F(NUME_ORDRE=9,
                   PARA='FREQ',
                   REFERENCE='SOURCE_EXTERNE',
                   RESULTAT=lmod1_4,
                   VALE_CALC=4475.02739978,
                   VALE_REFE=4474.9500000000001,
                   CRITERE='RELATIF',
                   PRECISION=1.E-2,
                   ),
                _F(NUME_ORDRE=10,
                   PARA='FREQ',
                   REFERENCE='SOURCE_EXTERNE',
                   RESULTAT=lmod1_4,
                   VALE_CALC=4649.51611192,
                   VALE_REFE=4678.5100000000001,
                   CRITERE='RELATIF',
                   PRECISION=1.E-2,
                   ),
                _F(NUME_ORDRE=11,
                   PARA='FREQ',
                   REFERENCE='SOURCE_EXTERNE',
                   RESULTAT=lmod1_4,
                   VALE_CALC=5307.15779880,
                   VALE_REFE=5333.4200000000001,
                   CRITERE='RELATIF',
                   PRECISION=1.E-2,
                   ),
                _F(NUME_ORDRE=12,
                   PARA='FREQ',
                   REFERENCE='SOURCE_EXTERNE',
                   RESULTAT=lmod1_4,
                   VALE_CALC=6997.21264158,
                   VALE_REFE=7016.0100000000001,
                   CRITERE='RELATIF',
                   PRECISION=1.E-2,
                   ),
                ),
          )

TEST_RESU(RESU=(_F(NUME_ORDRE=1,
                   PARA='FREQ',
                   REFERENCE='SOURCE_EXTERNE',
                   RESULTAT=lmod2_4,
                   VALE_CALC=358.97946242,
                   VALE_REFE=347.7400000000001,
                   CRITERE='RELATIF',
                   PRECISION=4.E-2,),
                _F(NUME_ORDRE=2,
                   PARA='FREQ',
                   REFERENCE='SOURCE_EXTERNE',
                   RESULTAT=lmod2_4,
                   VALE_CALC=839.31286417,
                   VALE_REFE=860.6900000000001,
                   CRITERE='RELATIF',
                   PRECISION=3.E-2,),
                _F(NUME_ORDRE=3,
                   PARA='FREQ',
                   REFERENCE='SOURCE_EXTERNE',
                   RESULTAT=lmod2_4,
                   VALE_CALC=1092.03093914,
                   VALE_REFE=1089.00000000000001,
                   CRITERE='RELATIF',
                   PRECISION=1.E-2,),
                _F(NUME_ORDRE=4,
                   PARA='FREQ',
                   REFERENCE='SOURCE_EXTERNE',
                   RESULTAT=lmod2_4,
                   VALE_CALC=1570.66564352,
                   VALE_REFE=1573.60000000000001,
                   CRITERE='RELATIF',
                   PRECISION=1.E-2,),
                _F(NUME_ORDRE=5,
                   PARA='FREQ',
                   REFERENCE='SOURCE_EXTERNE',
                   RESULTAT=lmod2_4,
                   VALE_CALC=2292.26285350,
                   VALE_REFE=2303.1000000000001,
                   CRITERE='RELATIF',
                   PRECISION=1.E-2,
                   ),
                _F(NUME_ORDRE=6,
                   PARA='FREQ',
                   REFERENCE='SOURCE_EXTERNE',
                   RESULTAT=lmod2_4,
                   VALE_CALC=2471.97856120,
                   VALE_REFE=2501.1000000000001,
                   CRITERE='RELATIF',
                   PRECISION=2.E-2,
                   ),
                _F(NUME_ORDRE=7,
                   PARA='FREQ',
                   REFERENCE='SOURCE_EXTERNE',
                   RESULTAT=lmod2_4,
                   VALE_CALC=2761.06631666,
                   VALE_REFE=2740.9000000000001,
                   CRITERE='RELATIF',
                   PRECISION=1.E-2,
                   ),
                _F(NUME_ORDRE=8,
                   PARA='FREQ',
                   REFERENCE='SOURCE_EXTERNE',
                   RESULTAT=lmod2_4,
                   VALE_CALC=3472.86919971,
                   VALE_REFE=3493.5000000000001,
                   CRITERE='RELATIF',
                   PRECISION=1.E-2,
                   ),
                _F(NUME_ORDRE=9,
                   PARA='FREQ',
                   REFERENCE='SOURCE_EXTERNE',
                   RESULTAT=lmod2_4,
                   VALE_CALC=4271.84336608,
                   VALE_REFE=4271.8000000000001,
                   CRITERE='RELATIF',
                   PRECISION=1.E-2,
                   ),
                _F(NUME_ORDRE=10,
                   PARA='FREQ',
                   REFERENCE='SOURCE_EXTERNE',
                   RESULTAT=lmod2_4,
                   VALE_CALC=4502.60379930,
                   VALE_REFE=4532.4000000000001,
                   CRITERE='RELATIF',
                   PRECISION=1.E-2,
                   ),
                _F(NUME_ORDRE=11,
                   PARA='FREQ',
                   REFERENCE='SOURCE_EXTERNE',
                   RESULTAT=lmod2_4,
                   VALE_CALC=5083.37613248,
                   VALE_REFE=5111.3000000000001,
                   CRITERE='RELATIF',
                   PRECISION=1.E-2,
                   ),
                _F(NUME_ORDRE=12,
                   PARA='FREQ',
                   REFERENCE='SOURCE_EXTERNE',
                   RESULTAT=lmod2_4,
                   VALE_CALC=6893.41136618,
                   VALE_REFE=6912.5000000000001,
                   CRITERE='RELATIF',
                   PRECISION=1.E-2,
                   ),
                ),
          )

# VITESSE DE ROTATION OMEGA=100000 TR/MIN
TEST_RESU(RESU=(_F(NUME_ORDRE=1,
                   PARA='FREQ',
                   REFERENCE='SOURCE_EXTERNE',
                   RESULTAT=lmod1_5,
                   VALE_CALC=17.90501577,
                   VALE_REFE=18.3500000000001,
                   CRITERE='RELATIF',
                   PRECISION=3.E-2,),
                _F(NUME_ORDRE=2,
                   PARA='FREQ',
                   REFERENCE='SOURCE_EXTERNE',
                   RESULTAT=lmod1_5,
                   VALE_CALC=264.00350477,
                   VALE_REFE=269.6800000000001,
                   CRITERE='RELATIF',
                   PRECISION=3.E-2,),
                _F(NUME_ORDRE=3,
                   PARA='FREQ',
                   REFERENCE='SOURCE_EXTERNE',
                   RESULTAT=lmod1_5,
                   VALE_CALC=1070.59874854,
                   VALE_REFE=1087.57000000000001,
                   CRITERE='RELATIF',
                   PRECISION=2.E-2,),
                _F(NUME_ORDRE=4,
                   PARA='FREQ',
                   REFERENCE='SOURCE_EXTERNE',
                   RESULTAT=lmod1_5,
                   VALE_CALC=2487.43474952,
                   VALE_REFE=2514.15000000000001,
                   CRITERE='RELATIF',
                   PRECISION=2.E-2,),
                _F(NUME_ORDRE=5,
                   PARA='FREQ',
                   REFERENCE='SOURCE_EXTERNE',
                   RESULTAT=lmod1_5,
                   VALE_CALC=2761.06722050,
                   VALE_REFE=2740.8500000000001,
                   CRITERE='RELATIF',
                   PRECISION=1.E-2,
                   ),
                _F(NUME_ORDRE=6,
                   PARA='FREQ',
                   REFERENCE='SOURCE_EXTERNE',
                   RESULTAT=lmod1_5,
                   VALE_CALC=3346.27183423,
                   VALE_REFE=3346.6000000000001,
                   CRITERE='RELATIF',
                   PRECISION=1.E-2,
                   ),
                _F(NUME_ORDRE=7,
                   PARA='FREQ',
                   REFERENCE='SOURCE_EXTERNE',
                   RESULTAT=lmod1_5,
                   VALE_CALC=3578.04155785,
                   VALE_REFE=3583.2600000000001,
                   CRITERE='RELATIF',
                   PRECISION=1.E-2,
                   ),
                _F(NUME_ORDRE=8,
                   PARA='FREQ',
                   REFERENCE='SOURCE_EXTERNE',
                   RESULTAT=lmod1_5,
                   VALE_CALC=4362.51345270,
                   VALE_REFE=4378.5400000000001,
                   CRITERE='RELATIF',
                   PRECISION=1.E-2,
                   ),
                _F(NUME_ORDRE=9,
                   PARA='FREQ',
                   REFERENCE='SOURCE_EXTERNE',
                   RESULTAT=lmod1_5,
                   VALE_CALC=4404.80753178,
                   VALE_REFE=4433.5400000000001,
                   CRITERE='RELATIF',
                   PRECISION=1.E-2,
                   ),
                _F(NUME_ORDRE=10,
                   PARA='FREQ',
                   REFERENCE='SOURCE_EXTERNE',
                   RESULTAT=lmod1_5,
                   VALE_CALC=4474.63574484,
                   VALE_REFE=4474.5500000000001,
                   CRITERE='RELATIF',
                   PRECISION=1.E-2,
                   ),
                _F(NUME_ORDRE=11,
                   PARA='FREQ',
                   REFERENCE='SOURCE_EXTERNE',
                   RESULTAT=lmod1_5,
                   VALE_CALC=5751.63282558,
                   VALE_REFE=5776.8700000000001,
                   CRITERE='RELATIF',
                   PRECISION=1.E-2,
                   ),
                _F(NUME_ORDRE=12,
                   PARA='FREQ',
                   REFERENCE='SOURCE_EXTERNE',
                   RESULTAT=lmod1_5,
                   VALE_CALC=6732.55751075,
                   VALE_REFE=6751.4000000000001,
                   CRITERE='RELATIF',
                   PRECISION=1.E-2,
                   ),
                ),
          )

TEST_RESU(RESU=(_F(NUME_ORDRE=1,
                   PARA='FREQ',
                   REFERENCE='SOURCE_EXTERNE',
                   RESULTAT=lmod2_5,
                   VALE_CALC=507.27125196,
                   VALE_REFE=528.7100000000001,
                   CRITERE='RELATIF',
                   PRECISION=5.E-2,),
                _F(NUME_ORDRE=2,
                   PARA='FREQ',
                   REFERENCE='SOURCE_EXTERNE',
                   RESULTAT=lmod2_5,
                   VALE_CALC=693.36339290,
                   VALE_REFE=682.1200000000001,
                   CRITERE='RELATIF',
                   PRECISION=2.E-2,),
                _F(NUME_ORDRE=3,
                   PARA='FREQ',
                   REFERENCE='SOURCE_EXTERNE',
                   RESULTAT=lmod2_5,
                   VALE_CALC=1427.99415728,
                   VALE_REFE=1425.00000000000001,
                   CRITERE='RELATIF',
                   PRECISION=1.E-2,),
                _F(NUME_ORDRE=4,
                   PARA='FREQ',
                   REFERENCE='SOURCE_EXTERNE',
                   RESULTAT=lmod2_5,
                   VALE_CALC=1900.37553931,
                   VALE_REFE=1903.30000000000001,
                   CRITERE='RELATIF',
                   PRECISION=1.E-2,),
                _F(NUME_ORDRE=5,
                   PARA='FREQ',
                   REFERENCE='SOURCE_EXTERNE',
                   RESULTAT=lmod2_5,
                   VALE_CALC=2142.85773228,
                   VALE_REFE=2172.1000000000001,
                   CRITERE='RELATIF',
                   PRECISION=2.E-2,
                   ),
                _F(NUME_ORDRE=6,
                   PARA='FREQ',
                   REFERENCE='SOURCE_EXTERNE',
                   RESULTAT=lmod2_5,
                   VALE_CALC=2620.68561028,
                   VALE_REFE=2631.5000000000001,
                   CRITERE='RELATIF',
                   PRECISION=1.E-2,
                   ),
                _F(NUME_ORDRE=7,
                   PARA='FREQ',
                   REFERENCE='SOURCE_EXTERNE',
                   RESULTAT=lmod2_5,
                   VALE_CALC=2761.06580653,
                   VALE_REFE=2740.8000000000001,
                   CRITERE='RELATIF',
                   PRECISION=1.E-2,
                   ),
                _F(NUME_ORDRE=8,
                   PARA='FREQ',
                   REFERENCE='SOURCE_EXTERNE',
                   RESULTAT=lmod2_5,
                   VALE_CALC=3799.20869474,
                   VALE_REFE=3819.7000000000001,
                   CRITERE='RELATIF',
                   PRECISION=1.E-2,
                   ),
                _F(NUME_ORDRE=9,
                   PARA='FREQ',
                   REFERENCE='SOURCE_EXTERNE',
                   RESULTAT=lmod2_5,
                   VALE_CALC=4152.82287520,
                   VALE_REFE=4152.7000000000001,
                   CRITERE='RELATIF',
                   PRECISION=1.E-2,
                   ),
                _F(NUME_ORDRE=10,
                   PARA='FREQ',
                   REFERENCE='SOURCE_EXTERNE',
                   RESULTAT=lmod2_5,
                   VALE_CALC=4176.73408968,
                   VALE_REFE=4206.7000000000001,
                   CRITERE='RELATIF',
                   PRECISION=1.E-2,
                   ),
                _F(NUME_ORDRE=11,
                   PARA='FREQ',
                   REFERENCE='SOURCE_EXTERNE',
                   RESULTAT=lmod2_5,
                   VALE_CALC=5407.09214778,
                   VALE_REFE=5434.8000000000001,
                   CRITERE='RELATIF',
                   PRECISION=1.E-2,
                   ),
                _F(NUME_ORDRE=12,
                   PARA='FREQ',
                   REFERENCE='SOURCE_EXTERNE',
                   RESULTAT=lmod2_5,
                   VALE_CALC=6570.88730358,
                   VALE_REFE=6590.2000000000001,
                   CRITERE='RELATIF',
                   PRECISION=1.E-2,
                   ),
                ),
          )

FIN()
