# TITRE REPONSE DYNAMIQUE D'UN PATIN FROTTANT RIGIDE SOUMIS A UNE PRESSION ET UNE fORCE DE RAPPEL
# ======================================================================
# COPYRIGHT (C) 1991 - 2012  EDF R&D                  WWW.CODE-ASTER.ORG
# THIS PROGRAM IS FREE SOFTWARE; YOU CAN REDISTRIBUTE IT AND/OR MODIFY
# IT UNDER THE TERMS OF THE GNU GENERAL PUBLIC LICENSE AS PUBLISHED BY
# THE FREE SOFTWARE FOUNDATION; EITHER VERSION 2 OF THE LICENSE, OR
# (AT YOUR OPTION) ANY LATER VERSION.
#
# THIS PROGRAM IS DISTRIBUTED IN THE HOPE THAT IT WILL BE USEFUL, BUT
# WITHOUT ANY WARRANTY; WITHOUT EVEN THE IMPLIED WARRANTY OF
# MERCHANTABILITY OR FITNESS FOR A PARTICULAR PURPOSE. SEE THE GNU
# GENERAL PUBLIC LICENSE FOR MORE DETAILS.
#
# YOU SHOULD HAVE RECEIVED A COPY OF THE GNU GENERAL PUBLIC LICENSE
# ALONG WITH THIS PROGRAM; IF NOT, WRITE TO EDF R&D CODE_ASTER,
#    1 AVENUE DU GENERAL DE GAULLE, 92141 CLAMART CEDEX, FRANCE.
# ======================================================================

# - MODELISATION EN D_PLAN ,MAILLES QUA4
# METHODES DE CONTACT :
#  LAGRANGE

DEBUT(CODE=_F(NIV_PUB_WEB='INTERNET'),DEBUG=_F(SDVERI='NON'))
# SDVERI='NON' car la verification est trop couteuse en CPU

MAILL=LIRE_MAILLAGE(FORMAT='MED',)


MAILL=DEFI_GROUP(reuse =MAILL,
                 MAILLAGE=MAILL,
                 CREA_GROUP_NO=_F(TOUT_GROUP_MA='OUI',),)

MODE=AFFE_MODELE(MAILLAGE=MAILL,
                 VERIF='MAILLE',
                 AFFE=(_F(GROUP_MA=('PATIN','LESC','FSUP','FLAT','BATI','LMAI'),
                          PHENOMENE='MECANIQUE',
                          MODELISATION='D_PLAN',),
                       _F(GROUP_MA='RESLAT',
                          PHENOMENE='MECANIQUE',
                          MODELISATION='2D_DIS_T',),
                        ))

MAILL=MODI_MAILLAGE(reuse =MAILL,
                    MAILLAGE=MAILL,
                    ORIE_PEAU_2D=_F(GROUP_MA=('LMAI','LESC','FSUP','FLAT'),),
                   )


#---------------------------------------------------------------------
#                         CARACTERISTIQUES ELEMENTAIRES
#---------------------------------------------------------------------

CARA=AFFE_CARA_ELEM(MODELE=MODE,
                    DISCRET_2D=(_F(GROUP_MA='RESLAT',
                                  CARA='K_T_D_L',
                                  VALE=(12.E3,0.0),),
                                _F(GROUP_MA='RESLAT',
                                  CARA='M_T_L',
                                  VALE=(0.,0.,0.,0.,0.,0.,0.,0.,0.,0.,),),)
                   )

#---------------------------------------------------------------------
#                         CARACTERISTIQUES MATERIAUX
#---------------------------------------------------------------------

MPATIN=DEFI_MATERIAU(ELAS=_F(E=2.1E11,
                             NU=0.0,
                             RHO=7.E3))

MBATI=DEFI_MATERIAU(ELAS=_F(E=1.0E11,
                            NU=0.0,
                            RHO=0.0),)

CM=AFFE_MATERIAU(MAILLAGE=MAILL,
                 MODELE=MODE,
                 AFFE=(_F(GROUP_MA='PATIN',
                          MATER=MPATIN,),
                       _F(GROUP_MA='BATI',
                          MATER=MBATI,),
                       ),)

#---------------------------------------------------------------------
#                         CHARGEMENTS
#---------------------------------------------------------------------

# CONDITIONS AUX LIMITES
COND_LIM=AFFE_CHAR_MECA(MODELE=MODE,
                        DDL_IMPO=(
                                  _F(GROUP_MA='BATI',
                                     DX=0.0,DY=0.0,),
                                  _F(GROUP_NO=('R1','R2',),
                                     DX=0.0,DY=0.0,),),)

# CHARGEMENT 1 : APPLICATION DE LA GRAVITE
POIDS=AFFE_CHAR_MECA(MODELE=MODE,
                     PRES_REP=_F(GROUP_MA='FSUP',
                                 PRES=70000.))

# CHARGEMENT 2 : APPLICATION TANGENTIELLE
PTAN=AFFE_CHAR_MECA(MODELE=MODE,
                    PRES_REP=_F(GROUP_MA='FLAT',
                                    PRES=200000.0))

# DEFINITION DU CONTACT
CTAC  = DEFI_CONTACT(MODELE         = MODE,
                     FORMULATION    = 'DISCRETE',
                     REAC_GEOM      = 'CONTROLE',
                     NB_ITER_GEOM   = 2,
                     FROTTEMENT     = 'COULOMB',
                     ZONE=_F(
                             APPARIEMENT    = 'MAIT_ESCL',
                             ALGO_CONT      = 'LAGRANGIEN',
                             ALGO_FROT      = 'LAGRANGIEN',
                             COULOMB        = 0.3,
                             COEF_MATR_FROT = 0.9,
                             GROUP_MA_MAIT  = 'LMAI',
                             GROUP_MA_ESCL  = 'LESC',
                            ),
                     )

#---------------------------------------------------------------------
#                         RESOLUTION
#--------------INST-------------------------------------------------------

RAMPE=DEFI_FONCTION(NOM_PARA='INST',
                    VALE=(0.0,0.0,
                          0.07,1.0,
                         10.0,1.0),
                    PROL_DROITE='CONSTANT',
                    PROL_GAUCHE='LINEAIRE',)


L_INST=DEFI_LIST_REEL(DEBUT=0.0,
                      INTERVALLE=_F(JUSQU_A=3.5,
                                    NOMBRE=350,),)

DEFLIST =DEFI_LIST_INST(DEFI_LIST=_F(LIST_INST =L_INST ),
                         ECHEC=_F(ACTION='DECOUPE',
                                 SUBD_METHODE='MANUEL',
                                  SUBD_PAS     = 5,
                                  SUBD_PAS_MINI=0.0000001,
                                 ),)

ULM =  DYNA_NON_LINE(SOLVEUR=_F(SYME='OUI',),
                     MODELE=MODE,
                    CHAM_MATER=CM,
                    CARA_ELEM=CARA,
                    EXCIT=(_F(CHARGE=POIDS,
                              FONC_MULT=RAMPE,),
                           _F(
                              CHARGE=PTAN,
                              FONC_MULT=RAMPE,),
                           _F(CHARGE=COND_LIM,),),
                    CONTACT  =CTAC,
                    COMPORTEMENT=_F(RELATION='ELAS',
                                 TOUT='OUI',),
                    INCREMENT=_F(LIST_INST=DEFLIST,
                                 ),
                    SCHEMA_TEMPS=_F(SCHEMA='HHT',FORMULATION='DEPLACEMENT'),
                    NEWTON=_F(MATRICE='TANGENTE',
                              REAC_ITER=1,),
                    CONVERGENCE=_F(ITER_GLOB_MAXI=150,),

                    )


TEST_RESU(RESU=(_F(GROUP_NO='A',
                   INST=1.7,
                   REFERENCE='ANALYTIQUE',
                   RESULTAT=ULM,
                   NOM_CHAM='DEPL',
                   NOM_CMP='DX',
                   VALE_CALC=14.836107487618,
                   VALE_REFE=14.91,
                   PRECISION=0.05,),
                _F(GROUP_NO='A',
                   INST=3.4,
                   REFERENCE='ANALYTIQUE',
                   RESULTAT=ULM,
                   NOM_CHAM='DEPL',
                   NOM_CMP='DX',
                   VALE_CALC=3.6247095190196,
                   VALE_REFE=3.5,
                   PRECISION=0.05, ),
                ),
          )

##############################

ULL =  DYNA_NON_LINE(MODELE=MODE,
                    CHAM_MATER=CM,
                    CARA_ELEM=CARA,
                    EXCIT=(_F(CHARGE=POIDS,
                              FONC_MULT=RAMPE,),
                           _F(CHARGE=PTAN,
                              FONC_MULT=RAMPE,),
                           _F(CHARGE=COND_LIM,),),
                    CONTACT  = CTAC,
                    COMPORTEMENT=_F(RELATION='ELAS',
                                 TOUT='OUI',),
                    INCREMENT=_F(LIST_INST=DEFLIST,),
                    SCHEMA_TEMPS=_F(SCHEMA='HHT',FORMULATION='DEPLACEMENT'),
                    NEWTON=_F(MATRICE='TANGENTE',
                              REAC_ITER=1,),
                    SOLVEUR =_F(SYME='OUI',
                                METHODE='LDLT',),
                    CONVERGENCE=_F(ITER_GLOB_MAXI=150,),

                     )

TEST_RESU(RESU=(_F(GROUP_NO='A',
                   INST=1.7,
                   REFERENCE='ANALYTIQUE',
                   RESULTAT=ULL,
                   NOM_CHAM='DEPL',
                   NOM_CMP='DX',
                   VALE_CALC=14.836107487618,
                   VALE_REFE=14.91,
                   PRECISION=0.05, ),
                _F(GROUP_NO='A',
                   INST=3.4,
                   REFERENCE='ANALYTIQUE',
                   RESULTAT=ULL,
                   NOM_CHAM='DEPL',
                   NOM_CMP='DX',
                   VALE_CALC=3.6247095190196,
                   VALE_REFE=3.5,
                   PRECISION=0.05, ),
                ),
          )

FIN()
#
