# ======================================================================
# COPYRIGHT (C) 1991 - 2016  EDF R&D                  WWW.CODE-ASTER.ORG
# THIS PROGRAM IS FREE SOFTWARE; YOU CAN REDISTRIBUTE IT AND/OR MODIFY
# IT UNDER THE TERMS OF THE GNU GENERAL PUBLIC LICENSE AS PUBLISHED BY
# THE FREE SOFTWARE FOUNDATION; EITHER VERSION 2 OF THE LICENSE, OR
# (AT YOUR OPTION) ANY LATER VERSION.
#
# THIS PROGRAM IS DISTRIBUTED IN THE HOPE THAT IT WILL BE USEFUL, BUT
# WITHOUT ANY WARRANTY; WITHOUT EVEN THE IMPLIED WARRANTY OF
# MERCHANTABILITY OR FITNESS FOR A PARTICULAR PURPOSE. SEE THE GNU
# GENERAL PUBLIC LICENSE FOR MORE DETAILS.
#
# YOU SHOULD HAVE RECEIVED A COPY OF THE GNU GENERAL PUBLIC LICENSE
# ALONG WITH THIS PROGRAM; IF NOT, WRITE TO EDF R&D CODE_ASTER,
#    1 AVENUE DU GENERAL DE GAULLE, 92141 CLAMART CEDEX, FRANCE.
# ======================================================================
#       CAS-TEST SDNV103D (3D), METHODE CONTINUE

DEBUT(CODE=_F(NIV_PUB_WEB='INTERNET'),
           IGNORE_ALARM=('CONTACT2_14'),
           DEBUG=_F(SDVERI='OUI'))

# IGNORE ALARM: CONTACT2_14: MODELE AXI EN METHODE CONTINUE

MA=LIRE_MAILLAGE(FORMAT='MED', )

MA=DEFI_GROUP(reuse=MA,MAILLAGE=MA,
              CREA_GROUP_NO=_F( TOUT_GROUP_MA = 'OUI'),
              )

MODE=AFFE_MODELE(
            MAILLAGE=MA,
            
            AFFE=(
           _F( TOUT='OUI',
               PHENOMENE = 'MECANIQUE',
               MODELISATION = ('AXIS','AXIS_SI')),),);

MA=MODI_MAILLAGE( reuse=MA,
             MAILLAGE=MA,
             ORIE_PEAU_2D=_F(  GROUP_MA = ('SZZ', 'RIGID')),
             INFO=2);

ACIER=DEFI_MATERIAU(
                ELAS=_F( E = 117.E3, NU = 0.35,  RHO = 8.930E-9),
                ECRO_LINE=_F(D_SIGM_EPSI = 100., SY = 400.));

CHMAT = AFFE_MATERIAU(
            MAILLAGE=MA,
            AFFE=(
              _F( GROUP_MA = ('VOL','VOL_RIG'), MATER = ACIER),),
                        );

CH=AFFE_CHAR_MECA(
            MODELE=MODE,
            DDL_IMPO=(
             _F( GROUP_MA = 'RIGID',      DX = 0., DY = 0.,),
             _F( GROUP_MA = 'VOL_RIG',    DX = 0., DY = 0.),
             _F( GROUP_MA = 'AXE',        DX = 0.),
             ),
               );

CH2 = DEFI_CONTACT(MODELE         = MODE,
                   FORMULATION    = 'CONTINUE',
                   FROTTEMENT     = 'COULOMB',
                    ALGO_RESO_CONT = 'NEWTON',
                    ALGO_RESO_GEOM = 'NEWTON',
                    ALGO_RESO_FROT = 'NEWTON',
                    ADAPT_COEF     = 'OUI',
                   ZONE        =_F(
                              GROUP_MA_MAIT='RIGID',
                              GROUP_MA_ESCL='SZZ',
                              COULOMB = 0.25,
                                 ),
                   )

VIT_0=CREA_CHAMP( OPERATION='AFFE',
                  TYPE_CHAM='NOEU_DEPL_R',

                  MODELE=MODE,
                  AFFE=(
                     _F(TOUT='OUI',
                        NOM_CMP = ('DX', 'DY', 'LAGS_C', 'LAGS_F1'),
                        VALE = (  0.0,  0.0,  0.0,  0.0,)),
                     _F(TOUT='OUI',
                        NOM_CMP = ('DX', 'DY'),
                        VALE = (  0.0,  -227000.,)),
                     _F(GROUP_NO = 'VOL_RIG',
                        NOM_CMP = ('DX', 'DY'),
                        VALE = (  0.0,  0.0,   )),
                     _F(GROUP_NO = 'RIGID',
                        NOM_CMP = ('DX', 'DY'),
                        VALE = (  0.0,  0.0, )),
                    ));


# AVEC DETECTION DE COLLISION

NPAS_IMPA   = 31
IFIN        = +2.0E-5


temps2=DEFI_LIST_REEL(DEBUT=-1.E-5,
                      INTERVALLE=(_F(JUSQU_A=IFIN,
                                     NOMBRE=NPAS_IMPA,),
                                   ),);



liste2=DEFI_LIST_INST(  DEFI_LIST=_F(LIST_INST = temps2,),
                          ECHEC    =(
                            _F(
                               EVENEMENT        = 'ERREUR',
                               ACTION           = 'DECOUPE',
                               SUBD_METHODE     = 'MANUEL',
                               SUBD_PAS         = 3,
                              ),
                             _F(
                               EVENEMENT        = 'COLLISION',
                               ACTION           = 'DECOUPE',
                               SUBD_METHODE     = 'AUTO',
                               SUBD_INST = 1.7E-8,
                               SUBD_DUREE    = 1.5E-6,
                              ),
                          ),
                        )

RESU2=DYNA_NON_LINE(MODELE=MODE,
                   CHAM_MATER=CHMAT,
                   EXCIT=_F(CHARGE=CH,
                            ),
                   CONTACT = CH2,
                   ETAT_INIT=_F(VITE = VIT_0,
                                ),
                   COMPORTEMENT=_F(RELATION='VMIS_ISOT_LINE',
                                DEFORMATION='SIMO_MIEHE',
                                TOUT='OUI',),
                   INCREMENT=_F(LIST_INST=liste2,
                                ),
                  SCHEMA_TEMPS=_F(SCHEMA='HHT',
                                     FORMULATION='DEPLACEMENT',
                                     ALPHA = -0.6,
                                ),
                  NEWTON=_F(   REAC_INCR=1,
                                MATRICE='TANGENTE',
                                REAC_ITER=1,),
                   CONVERGENCE=_F(RESI_GLOB_MAXI=1.E-6,
                                  ITER_GLOB_MAXI=30,
                                  ARRET='OUI',),
                   );

#
### POST-TRAITEMENTS
#

CONTB1_2=POST_RELEVE_T(ACTION = _F(GROUP_NO='B1',
                                 INTITULE = 'MESSAGE',
                                 RESULTAT = RESU2,
                                 TOUT_CMP='OUI',
                                 NOM_CHAM   = 'CONT_NOEU',
                                 OPERATION = 'EXTRACTION'))

VITEA2_2=POST_RELEVE_T(ACTION=_F(INTITULE='VITE EN A2',
                                GROUP_NO= 'A2',
                                RESULTAT=RESU2,
                                NOM_CHAM='VITE',
                                NOM_CMP='DY',
                                OPERATION='EXTRACTION',),);

DEPLA1_2=POST_RELEVE_T(ACTION=_F(INTITULE='DEPL EN A1',
                                GROUP_NO= 'A1',
                                RESULTAT=RESU2,
                                NOM_CHAM='DEPL',
                                NOM_CMP='DY',
                                OPERATION='EXTRACTION',),);

DEPLB1_2=POST_RELEVE_T(ACTION=_F(INTITULE='DEPL EN B1',
                                GROUP_NO= 'B1',
                                RESULTAT=RESU2,
                                NOM_CHAM='DEPL',
                                NOM_CMP='DY',
                                OPERATION='EXTRACTION',),);


#####################################################
# TESTS DE DEPLACEMENTS, VITESSES ET ACCELERATIONS
#####################################################

TEST_RESU(RESU=(_F(GROUP_NO='B1',
                   INST=2.0E-05,
                   RESULTAT=RESU2,
                   NOM_CHAM='DEPL',
                   NOM_CMP='DX',
                   VALE_CALC=1.7678506130177,
                   CRITERE='RELATIF',
                   ),
                _F(GROUP_NO='A2',
                   INST=2.0E-05,
                   RESULTAT=RESU2,
                   NOM_CHAM='DEPL',
                   NOM_CMP='DY',
                   VALE_CALC=-6.7345310694536,
                   CRITERE='RELATIF',
                   ),
                _F(GROUP_NO='B1',
                   INST=2.0E-05,
                   RESULTAT=RESU2,
                   NOM_CHAM='VITE',
                   NOM_CMP='DX',
                   VALE_CALC=79432.107208843,
                   CRITERE='RELATIF',
                   ),
                _F(GROUP_NO='A2',
                   INST=2.0E-05,
                   RESULTAT=RESU2,
                   NOM_CHAM='VITE',
                   NOM_CMP='DY',
                   VALE_CALC=-2.0794696143215E+05,
                   CRITERE='RELATIF',
                   ),
                ),
          )

#####################################################
# TESTS SUR LA VALEUR DU JEU ET DU FROTTEMENT
#####################################################



TEST_TABLE(CRITERE='RELATIF',
           VALE_CALC=0.084020393828399,
           NOM_PARA='JEU',
           TABLE=CONTB1_2,
           FILTRE=_F(PRECISION=1.E-10,
                     NOM_PARA='INST',
                     VALE=2.0E-05,),
           )

TEST_TABLE(CRITERE='ABSOLU',
           VALE_CALC=0.0E+00,
           NOM_PARA='R',
           TABLE=CONTB1_2,
           FILTRE=_F(PRECISION=1.E-10,
                     NOM_PARA='INST',
                     VALE=2.0E-05,),
           )

#
### COURBES
#

F_DY_2=RECU_FONCTION( RESULTAT=RESU2,
                      NOM_CHAM='DEPL',
                      GROUP_NO='A1',
                      NOM_CMP='DY',);
IMPR_FONCTION(FORMAT='XMGRACE',
          UNITE=41,
          COURBE=(
       _F(FONCTION=F_DY_2),),);



F_VY_2=RECU_FONCTION( RESULTAT=RESU2,
                      NOM_CHAM='VITE',
                      GROUP_NO='A1',
                      NOM_CMP='DY',);
IMPR_FONCTION(FORMAT='XMGRACE',
          UNITE=42,
          COURBE=(
       _F(FONCTION=F_VY_2),),);


FIN()
