# CYLINDRE 3D CREUX EN ROTATION AUTOUR DE SON AXE AVEC GYROSCOPIE 3D
# ======================================================================
# COPYRIGHT (C) 1991 - 2012  EDF R&D                  WWW.CODE-ASTER.ORG
# THIS PROGRAM IS FREE SOFTWARE; YOU CAN REDISTRIBUTE IT AND/OR MODIFY  
# IT UNDER THE TERMS OF THE GNU GENERAL PUBLIC LICENSE AS PUBLISHED BY  
# THE FREE SOFTWARE FOUNDATION; EITHER VERSION 2 OF THE LICENSE, OR     
# (AT YOUR OPTION) ANY LATER VERSION.                                                    
#                                                                       
# THIS PROGRAM IS DISTRIBUTED IN THE HOPE THAT IT WILL BE USEFUL, BUT   
# WITHOUT ANY WARRANTY; WITHOUT EVEN THE IMPLIED WARRANTY OF            
# MERCHANTABILITY OR FITNESS FOR A PARTICULAR PURPOSE. SEE THE GNU      
# GENERAL PUBLIC LICENSE FOR MORE DETAILS.                              
#                                                                       
# YOU SHOULD HAVE RECEIVED A COPY OF THE GNU GENERAL PUBLIC LICENSE     
# ALONG WITH THIS PROGRAM; IF NOT, WRITE TO EDF R&D CODE_ASTER,         
#    1 AVENUE DU GENERAL DE GAULLE, 92141 CLAMART CEDEX, FRANCE.        
# ======================================================================
#
import numpy as NP

DEBUT(CODE=_F(NIV_PUB_WEB='INTERNET',VISU_EFICAS='NON'),
      DEBUG=_F(SDVERI='OUI'),);

MBI=LIRE_MAILLAGE(FORMAT='MED',);

MOD=AFFE_MODELE(MAILLAGE=MBI,
                AFFE=_F(TOUT='OUI',
                        PHENOMENE='MECANIQUE',
                        MODELISATION='3D',),);

ELAS=DEFI_MATERIAU(ELAS=_F(E=2.07E11,
                           NU=0.28,
                           RHO=7860.0,),);

CHMAT=AFFE_MATERIAU(MAILLAGE=MBI,
                    AFFE=_F(TOUT='OUI',
                            MATER=ELAS,),);


DEBV=1000; # VITESSE DEBUT
FINV=3000. # VITESSE FIN
PASV = 1000. # PAS DE VITESSE DE ROTATION
VIT=NP.arange(DEBV,FINV+1,PASV); #LISTE DES VITESSES EN TR/MIN
nbV=len(VIT)
# LISTE DES VITESSES EN RAD/S
omega=[VIT[ii]*pi/30. for ii in range(nbV)];
# VECTEUR DIRECTEUR AXE DE ROTATION : nx,ny,nz
nx=0;ny=0;nz=1;
CL1=AFFE_CHAR_MECA(MODELE=MOD,
                   ROTATION=_F(VITESSE= 1,
                   AXE = (nx,ny,nz,),),);

ASSEMBLAGE(MODELE=MOD,
           CHAM_MATER=CHMAT,
           NUME_DDL=CO('NUMEDDL'),
           CHARGE=(CL1),
           MATR_ASSE=(_F(MATRICE=CO('RIGID'),
                              OPTION='RIGI_MECA',),
                           _F(MATRICE=CO('MASSE'),
                              OPTION='MASS_MECA',),
                           _F(MATRICE=CO('AMOR'),
                              OPTION='AMOR_MECA',),
                           _F(MATRICE=CO('RIGIDR'),
                              OPTION='RIGI_ROTA',),),);

GYELEM=CALC_MATR_ELEM(OPTION='MECA_GYRO',
                      MODELE=MOD,
                      CHARGE=(CL1),
                      CHAM_MATER=CHMAT,
                      );

GYASS=ASSE_MATRICE(MATR_ELEM=GYELEM,
                   NUME_DDL=NUMEDDL,);

# CALCUL DES MODES A L'ARRET
MODES0=CALC_MODES(MATR_RIGI=RIGID,
                  VERI_MODE=_F(STOP_ERREUR='NON',
                               ),
                  OPTION='CENTRE',
                  CALC_FREQ=_F(NMAX_FREQ=20,
                               FREQ=(500.,),
                               ),
                  SOLVEUR=_F(RENUM='METIS',
                             METHODE='MULT_FRONT',
                             NPREC=12,
                             ),
                  MATR_MASS=MASSE,
                  SOLVEUR_MODAL=_F(METHODE='SORENSEN',
                                   ),
                  TYPE_RESU='DYNAMIQUE',
                  )

#VITESSE DE ROTATION OMEGA=0
TEST_RESU(RESU=(_F(NUME_ORDRE=7,
                   PARA='FREQ',
                   REFERENCE='SOURCE_EXTERNE',
                   RESULTAT=MODES0,
                   VALE_CALC=2770.02600725,
                   VALE_REFE=2627.2000000000001,
                   CRITERE='RELATIF',
                   PRECISION=6.E-2,),
                _F(NUME_ORDRE=8,
                   PARA='FREQ',
                   REFERENCE='SOURCE_EXTERNE',
                   RESULTAT=MODES0,
                   VALE_CALC=2770.0261221,
                   VALE_REFE=2627.6000000000001,
                   CRITERE='RELATIF',
                   PRECISION=6.E-2,),
                _F(NUME_ORDRE=9,
                   PARA='FREQ',
                   REFERENCE='SOURCE_EXTERNE',
                   RESULTAT=MODES0,
                   VALE_CALC=3118.60022312,
                   VALE_REFE=3017.10000000000001,
                   CRITERE='RELATIF',
                   PRECISION=4.E-2,),
                _F(NUME_ORDRE=10,
                   PARA='FREQ',
                   REFERENCE='SOURCE_EXTERNE',
                   RESULTAT=MODES0,
                   VALE_CALC=3118.6002854,
                   VALE_REFE=3017.30000000000001,
                   CRITERE='RELATIF',
                   PRECISION=4.E-2,),
                _F(NUME_ORDRE=11,
                   PARA='FREQ',
                   REFERENCE='SOURCE_EXTERNE',
                   RESULTAT=MODES0,
                   VALE_CALC=6281.84769781,
                   VALE_REFE=6276.1000000000001,
                   CRITERE='RELATIF',
                   PRECISION=1.E-2,
                   ),
                _F(NUME_ORDRE=12,
                   PARA='FREQ',
                   REFERENCE='SOURCE_EXTERNE',
                   RESULTAT=MODES0,
                   VALE_CALC=6281.84777876,
                   VALE_REFE=6276.1000000000001,
                   CRITERE='RELATIF',
                   PRECISION=1.E-2,
                   ),
                _F(NUME_ORDRE=13,
                   PARA='FREQ',
                   REFERENCE='SOURCE_EXTERNE',
                   RESULTAT=MODES0,
                   VALE_CALC=6327.0464066,
                   VALE_REFE=6276.1000000000001,
                   CRITERE='RELATIF',
                   PRECISION=1.E-2,
                   ),
                _F(NUME_ORDRE=14,
                   PARA='FREQ',
                   REFERENCE='SOURCE_EXTERNE',
                   RESULTAT=MODES0,
                   VALE_CALC=6597.93668057,
                   VALE_REFE=6485.5000000000001,
                   CRITERE='RELATIF',
                   PRECISION=2.E-2,
                   ),
                _F(NUME_ORDRE=15,
                   PARA='FREQ',
                   REFERENCE='SOURCE_EXTERNE',
                   RESULTAT=MODES0,
                   VALE_CALC=6597.93716084,
                   VALE_REFE=6485.6000000000001,
                   CRITERE='RELATIF',
                   PRECISION=2.E-2,
                   ),
                _F(NUME_ORDRE=16,
                   PARA='FREQ',
                   REFERENCE='SOURCE_EXTERNE',
                   RESULTAT=MODES0,
                   VALE_CALC=7151.9463438,
                   VALE_REFE=6937.8000000000001,
                   CRITERE='RELATIF',
                   PRECISION=4.E-2,
                   ),
                _F(NUME_ORDRE=17,
                   PARA='FREQ',
                   REFERENCE='SOURCE_EXTERNE',
                   RESULTAT=MODES0,
                   VALE_CALC=7151.94656341,
                   VALE_REFE=6938.8000000000001,
                   CRITERE='RELATIF',
                   PRECISION=4.E-2,
                   ),
                _F(NUME_ORDRE=18,
                   PARA='FREQ',
                   REFERENCE='SOURCE_EXTERNE',
                   RESULTAT=MODES0,
                   VALE_CALC=7265.09947207,
                   VALE_REFE=7090.9000000000001,
                   CRITERE='RELATIF',
                   PRECISION=3.E-2,
                   ),
                _F(NUME_ORDRE=19,
                   PARA='FREQ',
                   REFERENCE='SOURCE_EXTERNE',
                   RESULTAT=MODES0,
                   VALE_CALC=7265.09986618,
                   VALE_REFE=7091.0000000000001,
                   CRITERE='RELATIF',
                   PRECISION=3.E-2,
                   ),
                _F(NUME_ORDRE=20,
                   PARA='FREQ',
                   REFERENCE='SOURCE_EXTERNE',
                   RESULTAT=MODES0,
                   VALE_CALC=7681.13750582,
                   VALE_REFE=7410.5000000000001,
                   CRITERE='RELATIF',
                   PRECISION=4.E-2,
                   ),
                ),
          )

lmod1=[None]*nbV;
lmod2=[None]*nbV;
for i in range(nbV):
    OM=omega[i]
    RIGIDi=COMB_MATR_ASSE(COMB_R=(_F(MATR_ASSE=RIGID,COEF_R=1.0,),
                                  _F(MATR_ASSE=RIGIDR,COEF_R=OM**2,),),)
    GYASSi=COMB_MATR_ASSE(COMB_R=(_F(MATR_ASSE=AMOR,COEF_R=1.0,),
                                  _F(MATR_ASSE=GYASS,COEF_R=OM,),),),                                    
    # CALCUL DES MODES AVEC GYROSCOPIE ET SANS RAIDEUR CENTRIFUGE
    lmod1[i]=CALC_MODES(MATR_RIGI=RIGID,
                            VERI_MODE=_F(STOP_ERREUR='NON',
                                         ),
                            OPTION='CENTRE',
                            CALC_FREQ=_F(NMAX_FREQ=15,
                                         FREQ=(500.,),
                                         ),
                            SOLVEUR=_F(RENUM='METIS',
                                       METHODE='MULT_FRONT',
                                       NPREC=12,
                                       ),
                            MATR_AMOR=GYASSi,
                            MATR_MASS=MASSE,
                            SOLVEUR_MODAL=_F(METHODE='SORENSEN',
                                             ),
                            TYPE_RESU='DYNAMIQUE',
                            )
    # CALCUL DES MODES AVEC GYROSCOPIE ET AVEC RAIDEUR CENTRIFUGE
    lmod2[i]=CALC_MODES(MATR_RIGI=RIGIDi,
                            VERI_MODE=_F(STOP_ERREUR='NON',
                                         ),
                            OPTION='CENTRE',
                            CALC_FREQ=_F(NMAX_FREQ=15,
                                         FREQ=(500.,),
                                         ),
                            SOLVEUR=_F(RENUM='METIS',
                                       METHODE='MULT_FRONT',
                                       NPREC=12,
                                       ),
                            MATR_AMOR=GYASSi,
                            MATR_MASS=MASSE,
                            SOLVEUR_MODAL=_F(METHODE='SORENSEN',
                                             ),
                            TYPE_RESU='DYNAMIQUE',
                            )
    DETRUIRE(CONCEPT=_F(NOM=RIGIDi),INFO=1)
    DETRUIRE(CONCEPT=_F(NOM=GYASSi),INFO=1)

#VITESSE DE ROTATION OMEGA=3000 TR/MIN
TEST_RESU(RESU=(_F(NUME_ORDRE=1,
                   PARA='FREQ',
                   REFERENCE='SOURCE_EXTERNE',
                   RESULTAT=lmod1_2,
                   VALE_CALC=53.4191018308,
                   VALE_REFE=53.4200000000001,
                   CRITERE='RELATIF',
                   PRECISION=1.E-2,),
                _F(NUME_ORDRE=2,
                   PARA='FREQ',
                   REFERENCE='SOURCE_EXTERNE',
                   RESULTAT=lmod1_2,
                   VALE_CALC=100.0,
                   VALE_REFE=100.0000000000001,
                   CRITERE='RELATIF',
                   PRECISION=1.E-2,),
                _F(NUME_ORDRE=3,
                   PARA='FREQ',
                   REFERENCE='SOURCE_EXTERNE',
                   RESULTAT=lmod1_2,
                   VALE_CALC=2731.33087919,
                   VALE_REFE=2588.80000000000001,
                   CRITERE='RELATIF',
                   PRECISION=6.E-2,),
                _F(NUME_ORDRE=4,
                   PARA='FREQ',
                   REFERENCE='SOURCE_EXTERNE',
                   RESULTAT=lmod1_2,
                   VALE_CALC=2809.23955932,
                   VALE_REFE=2666.60000000000001,
                   CRITERE='RELATIF',
                   PRECISION=6.E-2,),
                _F(NUME_ORDRE=5,
                   PARA='FREQ',
                   REFERENCE='SOURCE_EXTERNE',
                   RESULTAT=lmod1_2,
                   VALE_CALC=3083.79973857,
                   VALE_REFE=2982.4000000000001,
                   CRITERE='RELATIF',
                   PRECISION=4.E-2,
                   ),
                _F(NUME_ORDRE=6,
                   PARA='FREQ',
                   REFERENCE='SOURCE_EXTERNE',
                   RESULTAT=lmod1_2,
                   VALE_CALC=3153.75672475,
                   VALE_REFE=3052.4000000000001,
                   CRITERE='RELATIF',
                   PRECISION=4.E-2,
                   ),
                _F(NUME_ORDRE=7,
                   PARA='FREQ',
                   REFERENCE='SOURCE_EXTERNE',
                   RESULTAT=lmod1_2,
                   VALE_CALC=6261.8618164,
                   VALE_REFE=6256.1000000000001,
                   CRITERE='RELATIF',
                   PRECISION=1.E-2,
                   ),
                _F(NUME_ORDRE=8,
                   PARA='FREQ',
                   REFERENCE='SOURCE_EXTERNE',
                   RESULTAT=lmod1_2,
                   VALE_CALC=6302.21332939,
                   VALE_REFE=6296.5000000000001,
                   CRITERE='RELATIF',
                   PRECISION=1.E-2,
                   ),
                _F(NUME_ORDRE=9,
                   PARA='FREQ',
                   REFERENCE='SOURCE_EXTERNE',
                   RESULTAT=lmod1_2,
                   VALE_CALC=6326.17085053,
                   VALE_REFE=6326.2000000000001,
                   CRITERE='RELATIF',
                   PRECISION=1.E-2,
                   ),
                _F(NUME_ORDRE=10,
                   PARA='FREQ',
                   REFERENCE='SOURCE_EXTERNE',
                   RESULTAT=lmod1_2,
                   VALE_CALC=6565.45627412,
                   VALE_REFE=6455.1000000000001,
                   CRITERE='RELATIF',
                   PRECISION=2.E-2,
                   ),
                _F(NUME_ORDRE=11,
                   PARA='FREQ',
                   REFERENCE='SOURCE_EXTERNE',
                   RESULTAT=lmod1_2,
                   VALE_CALC=6630.52941007,
                   VALE_REFE=6520.1000000000001,
                   CRITERE='RELATIF',
                   PRECISION=2.E-2,
                   ),
                ),
          )

TEST_RESU(RESU=(_F(NUME_ORDRE=1,
                   PARA='FREQ',
                   REFERENCE='SOURCE_EXTERNE',
                   RESULTAT=lmod2_2,
                   VALE_CALC=26.7110179172,
                   VALE_REFE=26.6300000000001,
                   CRITERE='RELATIF',
                   PRECISION=1.E-2,),
                _F(NUME_ORDRE=2,
                   PARA='FREQ',
                   REFERENCE='SOURCE_EXTERNE',
                   RESULTAT=lmod2_2,
                   VALE_CALC=26.7110179174,
                   VALE_REFE=26.6300000000001,
                   CRITERE='RELATIF',
                   PRECISION=1.E-2,),
                _F(NUME_ORDRE=3,
                   PARA='FREQ',
                   REFERENCE='SOURCE_EXTERNE',
                   RESULTAT=lmod2_2,
                   VALE_CALC=49.999963273,
                   VALE_REFE=50.00000000000001,
                   CRITERE='RELATIF',
                   PRECISION=1.E-2,
                   TOLE_MACHINE=5.E-6,),# ajustement pour clap0f0q
                _F(NUME_ORDRE=4,
                   PARA='FREQ',
                   REFERENCE='SOURCE_EXTERNE',
                   RESULTAT=lmod2_2,
                   VALE_CALC=50.000036727,
                   VALE_REFE=50.00000000000001,
                   CRITERE='RELATIF',
                   PRECISION=1.E-2,
                   TOLE_MACHINE=5.E-6,),# ajustement pour clap0f0q
                _F(NUME_ORDRE=5,
                   PARA='FREQ',
                   REFERENCE='SOURCE_EXTERNE',
                   RESULTAT=lmod2_2,
                   VALE_CALC=2730.87972975,
                   VALE_REFE=2588.4000000000001,
                   CRITERE='RELATIF',
                   PRECISION=6.E-2,
                   ),
                _F(NUME_ORDRE=6,
                   PARA='FREQ',
                   REFERENCE='SOURCE_EXTERNE',
                   RESULTAT=lmod2_2,
                   VALE_CALC=2808.78841212,
                   VALE_REFE=2666.1000000000001,
                   CRITERE='RELATIF',
                   PRECISION=6.E-2,
                   ),
                _F(NUME_ORDRE=7,
                   PARA='FREQ',
                   REFERENCE='SOURCE_EXTERNE',
                   RESULTAT=lmod2_2,
                   VALE_CALC=3083.45079477,
                   VALE_REFE=2982.1000000000001,
                   CRITERE='RELATIF',
                   PRECISION=4.E-2,
                   ),
                _F(NUME_ORDRE=8,
                   PARA='FREQ',
                   REFERENCE='SOURCE_EXTERNE',
                   RESULTAT=lmod2_2,
                   VALE_CALC=3153.4081023,
                   VALE_REFE=3052.0000000000001,
                   CRITERE='RELATIF',
                   PRECISION=4.E-2,
                   ),
                _F(NUME_ORDRE=9,
                   PARA='FREQ',
                   REFERENCE='SOURCE_EXTERNE',
                   RESULTAT=lmod2_2,
                   VALE_CALC=6261.76669983,
                   VALE_REFE=6255.8000000000001,
                   CRITERE='RELATIF',
                   PRECISION=1.E-2,
                   ),
                _F(NUME_ORDRE=10,
                   PARA='FREQ',
                   REFERENCE='SOURCE_EXTERNE',
                   RESULTAT=lmod2_2,
                   VALE_CALC=6302.11523652,
                   VALE_REFE=6296.2000000000001,
                   CRITERE='RELATIF',
                   PRECISION=1.E-2,
                   ),
                _F(NUME_ORDRE=11,
                   PARA='FREQ',
                   REFERENCE='SOURCE_EXTERNE',
                   RESULTAT=lmod2_2,
                   VALE_CALC=6325.97331228,
                   VALE_REFE=6326.0000000000001,
                   CRITERE='RELATIF',
                   PRECISION=1.E-2,
                   ),
                _F(NUME_ORDRE=12,
                   PARA='FREQ',
                   REFERENCE='SOURCE_EXTERNE',
                   RESULTAT=lmod2_2,
                   VALE_CALC=6565.30232949,
                   VALE_REFE=6455.0000000000001,
                   CRITERE='RELATIF',
                   PRECISION=2.E-2,
                   ),
                _F(NUME_ORDRE=13,
                   PARA='FREQ',
                   REFERENCE='SOURCE_EXTERNE',
                   RESULTAT=lmod2_2,
                   VALE_CALC=6630.37563011,
                   VALE_REFE=6519.9000000000001,
                   CRITERE='RELATIF',
                   PRECISION=2.E-2,
                   ),
                ),
          )

FIN()
