# MODIF  DATE 17/01/2012   AUTEUR SELLENET N.SELLENET 
# TITRE IMPACT D UNE BARRE DE TAYLOR ELASTOPLASTIQUE
# sdnv103f.para = tps_job 120 mem_job 500Mo ncpus 1 liste_test S
#            CONFIGURATION MANAGEMENT OF EDF VERSION
# ======================================================================
# COPYRIGHT (C) 1991 - 2012  EDF R&D                  WWW.CODE-ASTER.ORG
# THIS PROGRAM IS FREE SOFTWARE; YOU CAN REDISTRIBUTE IT AND/OR MODIFY  
# IT UNDER THE TERMS OF THE GNU GENERAL PUBLIC LICENSE AS PUBLISHED BY  
# THE FREE SOFTWARE FOUNDATION; EITHER VERSION 2 OF THE LICENSE, OR     
# (AT YOUR OPTION) ANY LATER VERSION.                                                    
#                                                                       
# THIS PROGRAM IS DISTRIBUTED IN THE HOPE THAT IT WILL BE USEFUL, BUT   
# WITHOUT ANY WARRANTY; WITHOUT EVEN THE IMPLIED WARRANTY OF            
# MERCHANTABILITY OR FITNESS FOR A PARTICULAR PURPOSE. SEE THE GNU      
# GENERAL PUBLIC LICENSE FOR MORE DETAILS.                              
#                                                                       
# YOU SHOULD HAVE RECEIVED A COPY OF THE GNU GENERAL PUBLIC LICENSE     
# ALONG WITH THIS PROGRAM; IF NOT, WRITE TO EDF R&D CODE_ASTER,         
#    1 AVENUE DU GENERAL DE GAULLE, 92141 CLAMART CEDEX, FRANCE.        
# ======================================================================
#       CAS-TEST SDNV103D (3D), METHODE CONTINUE

DEBUT(CODE=_F( NOM = 'SDNV103F',NIV_PUB_WEB='INTERNET'))

#PRE_GIBI()

MA=LIRE_MAILLAGE(FORMAT='MED', )

MA=DEFI_GROUP(reuse=MA,MAILLAGE=MA,
              CREA_GROUP_NO=_F( TOUT_GROUP_MA = 'OUI'),
              )

MODE=AFFE_MODELE(
            MAILLAGE=MA,
            VERIF='MAILLE',
            AFFE=(
           _F( TOUT='OUI',
               PHENOMENE = 'MECANIQUE',
               MODELISATION = ('AXIS','AXIS_SI')),),);

MA=MODI_MAILLAGE( reuse=MA,
             MAILLAGE=MA,
             ORIE_PEAU_2D=_F(  GROUP_MA = ('SZZ', 'RIGID')),
             INFO=2);

ACIER=DEFI_MATERIAU(
                ELAS=_F( E = 117.E3, NU = 0.35,  RHO = 8.930E-9),
                ECRO_LINE=_F(D_SIGM_EPSI = 100., SY = 400.));

CHMAT = AFFE_MATERIAU(
            MAILLAGE=MA,
            AFFE=(
              _F( GROUP_MA = ('VOL','VOL_RIG'), MATER = ACIER),),
                        );

CH=AFFE_CHAR_MECA(
            MODELE=MODE,
            DDL_IMPO=(
             _F( GROUP_MA = 'RIGID',      DX = 0., DY = 0.,),
             _F( GROUP_MA = 'VOL_RIG',    DX = 0., DY = 0.),
             _F( GROUP_MA = 'AXE',        DX = 0.),
             ),
               );

CH2 = DEFI_CONTACT(MODELE         = MODE,
                   FORMULATION    = 'CONTINUE',
                   FROTTEMENT     = 'COULOMB',
                   REAC_GEOM      = 'CONTROLE',
                   ALGO_RESO_CONT = 'NEWTON',
                   NB_ITER_GEOM   = 2,  
                                   
                   ZONE        =_F(
                              GROUP_MA_MAIT='RIGID',
                              GROUP_MA_ESCL='SZZ',
                              COULOMB = 0.25,
                                 ),
                   )  

VIT_0=CREA_CHAMP( OPERATION='AFFE',
                  TYPE_CHAM='NOEU_DEPL_R',
                  PROL_ZERO='NON',
                  MODELE=MODE,
                  AFFE=(
                     _F(TOUT='OUI',
                        NOM_CMP = ('DX', 'DY'),
                        VALE = (  0.0,  -227000.,)),
                     _F(GROUP_NO = 'VOL_RIG',
                        NOM_CMP = ('DX', 'DY'),
                        VALE = (  0.0,  0.0,   )),
                     _F(GROUP_NO = 'RIGID',
                        NOM_CMP = ('DX', 'DY'),
                        VALE = (  0.0,  0.0, )),
                    ));

LINST=DEFI_LIST_REEL(DEBUT=-1.E-5,INTERVALLE=(
                         _F( JUSQU_A = -1.E-7, NOMBRE = 1),
                         _F( JUSQU_A =  1.E-6, NOMBRE = 4),
                         _F( JUSQU_A = 80.E-6, NOMBRE = 158))
                         )

L_INST=DEFI_LIST_INST(DEFI_LIST=_F(METHODE='MANUEL',
                                  LIST_INST=LINST,),
                     ECHEC=_F(EVENEMENT='ERREUR',
                              ACTION='DECOUPE',
                              SUBD_METHODE = 'MANUEL',
                              SUBD_PAS=5,
                              SUBD_NIVEAU=5,),);

L_SAUV=DEFI_LIST_REEL(DEBUT=-1.E-5,INTERVALLE=(
                         _F( JUSQU_A = 1.E-6, NOMBRE = 2),
                         _F( JUSQU_A = 80.E-6, NOMBRE = 79))
                         )


RESU=DYNA_NON_LINE(MODELE=MODE,
                   CHAM_MATER=CHMAT,
                   EXCIT=_F(CHARGE=CH,
                            ),
                   CONTACT = CH2,         
                   ETAT_INIT=_F(VITE = VIT_0,
                                ),
                   COMP_INCR=_F(RELATION='VMIS_ISOT_LINE',
                                DEFORMATION='SIMO_MIEHE',
                                TOUT='OUI',),
                   INCREMENT=_F(LIST_INST=L_INST,
                                INST_FIN=2.E-05,
                                ),
                  SCHEMA_TEMPS=_F(SCHEMA='NEWMARK',
                                FORMULATION='DEPLACEMENT',
                                BETA = 0.49,   # Beta
                                GAMMA = 0.9  ), # Gamma
                  NEWTON=_F(   REAC_INCR=1,
                                MATRICE='TANGENTE',
                                REAC_ITER=1,),
                   CONVERGENCE=_F(RESI_GLOB_MAXI=1.E-6,
                                  ITER_GLOB_MAXI=30,
                                  ARRET='OUI',),
                   SOLVEUR=_F(METHODE='LDLT',RENUM='SANS',
                              ),
                   ARCHIVAGE=_F(
                                LIST_INST=L_SAUV),
                   );


VITE_A2=POST_RELEVE_T(ACTION=_F(INTITULE='VITE EN A2',
                                GROUP_NO= 'A2',
                                RESULTAT=RESU,
                                NOM_CHAM='VITE',
                                NOM_CMP='DY',
                                OPERATION='EXTRACTION',),);

DEPL_A1=POST_RELEVE_T(ACTION=_F(INTITULE='DEPL EN A1',
                                GROUP_NO= 'A1',
                                RESULTAT=RESU,
                                NOM_CHAM='DEPL',
                                NOM_CMP='DY',
                                OPERATION='EXTRACTION',),);

DEPL_B1=POST_RELEVE_T(ACTION=_F(INTITULE='DEPL EN B1',
                                GROUP_NO= 'B1',
                                RESULTAT=RESU,
                                NOM_CHAM='DEPL',
                                NOM_CMP='DY',
                                OPERATION='EXTRACTION',),);


#####################################################
# TESTS DE DEPLACEMENTS, VITESSES ET ACCELERATIONS
#####################################################

TEST_RESU(RESU=(
     _F(  RESULTAT = RESU,   INST = 2.E-5,
          NOM_CHAM = 'DEPL',   GROUP_NO = 'B1',
          CRITERE = 'RELATIF', PRECISION = (3.E-2, 1.E-10),
          NOM_CMP = 'DX',    VALE =1.6932981528699, REFERENCE = 'NON_REGRESSION',
          VERSION='11.0.28' ),
     _F(  RESULTAT = RESU,   INST = 2.E-5,
          NOM_CHAM = 'DEPL',   GROUP_NO = 'A2',
          CRITERE = 'RELATIF', PRECISION = (7.E-3, 1.E-10),
          NOM_CMP = 'DY',    VALE = -6.708400431849, REFERENCE = 'NON_REGRESSION',
          VERSION='11.0.22' ),
     _F(  RESULTAT = RESU,   INST = 2.E-5,
          NOM_CHAM = 'VITE',   GROUP_NO = 'B1',
          CRITERE = 'RELATIF', PRECISION = (3.E-2, 1.E-10),
          NOM_CMP = 'DX',    VALE = 76332.85147468, REFERENCE = 'NON_REGRESSION',
          VERSION='11.0.22' ),
     _F(  RESULTAT = RESU,   INST = 2.E-5,
          NOM_CHAM = 'VITE',   GROUP_NO = 'A2',
          CRITERE = 'RELATIF', PRECISION = (4.E-2, 1.E-10),
          NOM_CMP = 'DY',    VALE = -2.0385434072951E+05, REFERENCE = 'NON_REGRESSION',
          VERSION='11.0.22' ),
        ),);

#####################################################
# TESTS SUR LA VALEUR DU JEU ET DU FROTTEMENT
#####################################################

TABJEU = POST_RELEVE_T (ACTION = _F(GROUP_NO='B1',
                                 INTITULE = 'MESSAGE',
                                 RESULTAT = RESU,
                                 TOUT_CMP='OUI',
                                 NOM_CHAM   = 'VALE_CONT',
                                 OPERATION = 'EXTRACTION'))

IMPR_TABLE(TABLE=TABJEU)

# JEU
########

# COMPARAISON PAR RAPPORT A LA METHODE DE PENALISATION

#TEST_TABLE(TABLE=TABJEU,
#           FILTRE=_F(NOM_PARA = 'NUME_ORDRE',
#                     VALE_I   = 10),
#           NOM_PARA ='JEU',
#           CRITERE  = 'RELATIF',
#           PRECISION=1.E-5,
#           VALE     =2.6800112927879E-02,
#           REFERENCE= 'NON_REGRESSION',
#           VERSION  = '6.3.20' )

#TEST_TABLE(TABLE=TABJEU,
#           FILTRE=_F(NOM_PARA = 'NUME_ORDRE',
#                     VALE_I   = 20),
#           NOM_PARA ='JEU',
#           CRITERE  = 'RELATIF',
#           PRECISION=1.E-5,
#           VALE     =7.7298468952968E-02,
#           REFERENCE= 'NON_REGRESSION',
#           VERSION  = '6.3.20' )

# COMPARAISON PAR RAPPORT A LA METHODE LAGRANGIENNE

TEST_TABLE(TABLE=TABJEU,
           FILTRE=_F(NOM_PARA = 'NUME_ORDRE',
                     VALE_I   = 10),
           NOM_PARA ='JEU',
           CRITERE  = 'RELATIF',
           PRECISION=5.E-3,
           VALE     =0.031358043010572,
           REFERENCE= 'NON_REGRESSION',
           VERSION  = '11.0.28' )

TEST_TABLE(TABLE=TABJEU,
           FILTRE=_F(NOM_PARA = 'NUME_ORDRE',
                     VALE_I   = 20),
           NOM_PARA ='JEU',
           CRITERE  = 'RELATIF',
           PRECISION=7.E-2,
           VALE     =0.075094007479338,
           REFERENCE= 'NON_REGRESSION',
           VERSION  = '11.0.28' )

# RT
#######
TEST_TABLE(TABLE=TABJEU,
           FILTRE=_F(NOM_PARA = 'NUME_ORDRE',
                     VALE_I   = 10),
           NOM_PARA ='R',
           CRITERE  = 'RELATIF',
           PRECISION=1.E-5,
           VALE     =0.0000000000000E+00,
           REFERENCE= 'NON_REGRESSION',
           VERSION  = '7.1.1' )

TEST_TABLE(TABLE=TABJEU,
           FILTRE=_F(NOM_PARA = 'NUME_ORDRE',
                     VALE_I   = 20),
           NOM_PARA ='R',
           CRITERE  = 'RELATIF',
           PRECISION=1.E-5,
           VALE     =0.0000000000000E+00,
           REFERENCE= 'NON_REGRESSION',
           VERSION  = '7.1.1' )


FIN()

