# MODIF  DATE 21/02/2011   AUTEUR ABBAS M.ABBAS 
# TITRE IMPACT D UNE BARRE DE TAYLOR ELASTOPLASTIQUE
# sdnv103e.para = tps_job 5000 mem_job 500Mo ncpus 1 liste_test S
#            CONFIGURATION MANAGEMENT OF EDF VERSION
# ======================================================================
# COPYRIGHT (C) 1991 - 2011  EDF R&D                  WWW.CODE-ASTER.ORG
# THIS PROGRAM IS FREE SOFTWARE; YOU CAN REDISTRIBUTE IT AND/OR MODIFY  
# IT UNDER THE TERMS OF THE GNU GENERAL PUBLIC LICENSE AS PUBLISHED BY  
# THE FREE SOFTWARE FOUNDATION; EITHER VERSION 2 OF THE LICENSE, OR     
# (AT YOUR OPTION) ANY LATER VERSION.                                                    
#                                                                       
# THIS PROGRAM IS DISTRIBUTED IN THE HOPE THAT IT WILL BE USEFUL, BUT   
# WITHOUT ANY WARRANTY; WITHOUT EVEN THE IMPLIED WARRANTY OF            
# MERCHANTABILITY OR FITNESS FOR A PARTICULAR PURPOSE. SEE THE GNU      
# GENERAL PUBLIC LICENSE FOR MORE DETAILS.                              
#                                                                       
# YOU SHOULD HAVE RECEIVED A COPY OF THE GNU GENERAL PUBLIC LICENSE     
# ALONG WITH THIS PROGRAM; IF NOT, WRITE TO EDF R&D CODE_ASTER,         
#    1 AVENUE DU GENERAL DE GAULLE, 92141 CLAMART CEDEX, FRANCE.        
# ======================================================================

DEBUT(CODE=_F(NOM='SDNV103E',
              NIV_PUB_WEB='INTERNET',),);

MA=LIRE_MAILLAGE(FORMAT='MED');

MA=DEFI_GROUP(reuse =MA,
              MAILLAGE=MA,
              CREA_GROUP_NO=(_F(TOUT_GROUP_MA='OUI',),
                             _F(OPTION='PLAN',
                                NOM='CYLBAS',
                                POINT=(0.,0.,2.27),
                                VECT_NORMALE=(0,0,1),
                                PRECISION=0.001),),)
                             
MODE=AFFE_MODELE(MAILLAGE=MA,
                 VERIF='MAILLE',
                 AFFE=_F(GROUP_MA=('VOL','VOL_RIG'),
                         PHENOMENE='MECANIQUE',
                         MODELISATION='3D',),);

ACIER=DEFI_MATERIAU(ELAS=_F(E=117.E3,
                            NU=0.35,
                            RHO=8.930E-9,),
                    ECRO_LINE=_F(D_SIGM_EPSI=100.,
                                 SY=400.,),);

CHMAT=AFFE_MATERIAU(MAILLAGE=MA,
                    AFFE=_F(GROUP_MA=('VOL','VOL_RIG'),
                            MATER=ACIER,),);

VIT_0=CREA_CHAMP(TYPE_CHAM='NOEU_DEPL_R',
                 OPERATION='AFFE',
                 MODELE=MODE,
                 PROL_ZERO='NON',
                 AFFE=(_F(GROUP_MA='VOL',
                          NOM_CMP=('DX','DY','DZ',),
                          VALE=(0.,0.,-227000.,),),
                       _F(GROUP_NO='VOL_RIG',
                          NOM_CMP=('DX','DY','DZ',),
                          VALE=(0.,0.,0.,),),),)

CIMP=DEFI_CONSTANTE(VALE=-1)

DIST=DEFI_CONSTANTE(VALE=2.27)

LIAI_UNI=DEFI_CONTACT( MODELE  = MODE,
                       FORMULATION = 'LIAISON_UNIL',
                       ZONE = _F( GROUP_NO   = ('CYLBAS'),
                                  NOM_CMP    = ('DZ'),
                                  COEF_IMPO  = CIMP,
                                  COEF_MULT  = DIST,),)

L_INST=DEFI_LIST_REEL(DEBUT=-1.E-5,
                      INTERVALLE=(_F(JUSQU_A=-2.5E-7,
                                     NOMBRE=1,),
                                  _F(JUSQU_A=2.5E-7,
                                     NOMBRE=10,),
                                  _F(JUSQU_A=80.E-6,
                                     NOMBRE=316,),),);

L_SAUV=DEFI_LIST_REEL(DEBUT=-1.E-5,
                      INTERVALLE=(_F(JUSQU_A=2.5E-7,
                                     NOMBRE=2,),
                                  _F(JUSQU_A=80.E-6,
                                     NOMBRE=316,),),);

RESU=DYNA_NON_LINE(MODELE=MODE,
                   CHAM_MATER=CHMAT,
                   CONTACT = LIAI_UNI,
                   COMP_INCR=_F(RELATION='VMIS_ISOT_LINE',
                                DEFORMATION='SIMO_MIEHE',
                                GROUP_MA='VOL',),
                   ETAT_INIT=_F(VITE=VIT_0,),
                   INCREMENT=_F(LIST_INST=L_INST,
                                INST_FIN=2.5E-7,),
                   SCHEMA_TEMPS=_F(SCHEMA='NEWMARK',
                                FORMULATION='DEPLACEMENT',
                                BETA=0.49,GAMMA=0.9,),
                   NEWTON=_F(REAC_INCR=1,
                             MATRICE='TANGENTE',
                             REAC_ITER=1,),
                   SOLVEUR=_F(SYME='OUI',),
                   CONVERGENCE=_F(RESI_GLOB_RELA=1.E-06,
                                  ITER_GLOB_MAXI=20,
                                  ARRET='OUI',),
                   );

TEST_RESU(RESU=(_F(RESULTAT=RESU,
                   INST=2.5e-07,
                   NOM_CHAM='DEPL',
                   NOM_CMP='DZ',
                   GROUP_NO='A1',
                   VALE=-2.32675,
                   CRITERE='RELATIF',
                   PRECISION=(7e-06,1e-10,),
                   REFERENCE='NON_REGRESSION',
                   VERSION='10.2.11',),
                _F(RESULTAT=RESU,
                   INST=2.5e-07,
                   NOM_CHAM='VITE',
                   NOM_CMP='DZ',
                   GROUP_NO='A1',
                   VALE=-227000.000172,
                   CRITERE='RELATIF',
                   PRECISION=(3.65e-06,1e-10,),
                   REFERENCE='NON_REGRESSION',
                   VERSION='10.2.11',),),);

FIN()
