# MODIF  DATE 09/04/2013   AUTEUR PELLET J.PELLET 
# TITRE IMPACT D UNE BARRE DE TAYLOR ELASTOPLASTIQUE
# sdnv103d.para = tps_job 60 mem_job 512Mo ncpus 1 liste_test R
#            CONFIGURATION MANAGEMENT OF EDF VERSION
# ======================================================================
# COPYRIGHT (C) 1991 - 2013  EDF R&D                  WWW.CODE-ASTER.ORG
# THIS PROGRAM IS FREE SOFTWARE; YOU CAN REDISTRIBUTE IT AND/OR MODIFY
# IT UNDER THE TERMS OF THE GNU GENERAL PUBLIC LICENSE AS PUBLISHED BY
# THE FREE SOFTWARE FOUNDATION; EITHER VERSION 2 OF THE LICENSE, OR
# (AT YOUR OPTION) ANY LATER VERSION.
#
# THIS PROGRAM IS DISTRIBUTED IN THE HOPE THAT IT WILL BE USEFUL, BUT
# WITHOUT ANY WARRANTY; WITHOUT EVEN THE IMPLIED WARRANTY OF
# MERCHANTABILITY OR FITNESS FOR A PARTICULAR PURPOSE. SEE THE GNU
# GENERAL PUBLIC LICENSE FOR MORE DETAILS.
#
# YOU SHOULD HAVE RECEIVED A COPY OF THE GNU GENERAL PUBLIC LICENSE
# ALONG WITH THIS PROGRAM; IF NOT, WRITE TO EDF R&D CODE_ASTER,
#    1 AVENUE DU GENERAL DE GAULLE, 92141 CLAMART CEDEX, FRANCE.
# ======================================================================
#
DEBUT(CODE=_F(NOM='SDNV103D', NIV_PUB_WEB='INTERNET'), DEBUG=_F(SDVERI='OUI'))

MA=LIRE_MAILLAGE(FORMAT='MED', )

MA=DEFI_GROUP(reuse=MA,MAILLAGE=MA,
              CREA_GROUP_NO=_F( TOUT_GROUP_MA = 'OUI'),
              )

MODE=AFFE_MODELE(
            MAILLAGE=MA,
            VERIF='MAILLE',
            AFFE=(
           _F( TOUT='OUI',
               PHENOMENE = 'MECANIQUE',
               MODELISATION = ('AXIS','AXIS_SI')),),);

MA=MODI_MAILLAGE( reuse=MA,
             MAILLAGE=MA,
             ORIE_PEAU_2D=_F(  GROUP_MA = ('SZZ', 'RIGID')),
             INFO=2);

ACIER=DEFI_MATERIAU(
                ELAS=_F( E = 117.E3, NU = 0.35,  RHO = 8.930E-9),
                ECRO_LINE=_F(D_SIGM_EPSI = 100., SY = 400.));

CHMAT = AFFE_MATERIAU(
            MAILLAGE=MA,
            AFFE=(
              _F( GROUP_MA = ('VOL','VOL_RIG'), MATER = ACIER),),
                        );

CH=AFFE_CHAR_MECA(
            MODELE=MODE,
            DDL_IMPO=(
             _F( GROUP_MA = 'RIGID',      DX = 0., DY = 0.,),
             _F( GROUP_MA = 'VOL_RIG',    DX = 0., DY = 0.),
             _F( GROUP_MA = 'AXE',        DX = 0.),
             ),
               );

CHCONT  = DEFI_CONTACT(MODELE         = MODE,
                       FORMULATION    = 'DISCRETE',
                       REAC_GEOM      = 'CONTROLE',
                       NB_ITER_GEOM   = 2,
                       FROTTEMENT     = 'COULOMB',

                       ZONE =_F(
                             ALGO_CONT      = 'LAGRANGIEN',
                             ALGO_FROT      = 'PENALISATION',
                             COULOMB        = 0.25,
                             E_T            = 1.E5,
                             APPARIEMENT    = 'MAIT_ESCL',
                             GROUP_MA_MAIT  = 'RIGID',
                             GROUP_MA_ESCL  = 'SZZ',
                             COEF_MATR_FROT = 0.4,
                               ),
                      );

VIT_0=CREA_CHAMP( OPERATION='AFFE',
                  TYPE_CHAM='NOEU_DEPL_R',

                  MODELE=MODE,
                  AFFE=(
                     _F(TOUT='OUI',
                        NOM_CMP = ('DX', 'DY'),
                        VALE = (  0.0,  -227000.,)),
                     _F(GROUP_NO = 'VOL_RIG',
                        NOM_CMP = ('DX', 'DY'),
                        VALE = (  0.0,  0.0,   )),
                     _F(GROUP_NO = 'RIGID',
                        NOM_CMP = ('DX', 'DY'),
                        VALE = (  0.0,  0.0, )),
                    ));

L_INST=DEFI_LIST_REEL(DEBUT=-1.E-5,INTERVALLE=(
                         _F( JUSQU_A = -1.E-7, NOMBRE = 1),
                         _F( JUSQU_A =  1.E-6, NOMBRE = 4),
                         _F( JUSQU_A = 80.E-6, NOMBRE = 158))
                         )

L_SAUV=DEFI_LIST_REEL(DEBUT=-1.E-5,INTERVALLE=(
                         _F( JUSQU_A = 1.E-6, NOMBRE = 2),
                         _F( JUSQU_A = 80.E-6, NOMBRE = 79))
                         )


RESU=DYNA_NON_LINE(MODELE=MODE,
                   CHAM_MATER=CHMAT,
                   EXCIT=_F(CHARGE=CH,
                            ),
                   CONTACT  = CHCONT,
                   ETAT_INIT=_F(VITE = VIT_0,
                                ),
                   COMP_INCR=(_F(RELATION='VMIS_ISOT_LINE',
                                 DEFORMATION='SIMO_MIEHE',
                                 TOUT='OUI',),
                              _F(RELATION='ELAS',
                                 DEFORMATION='PETIT',
                                 GROUP_MA='VOL_RIG',),),

                   INCREMENT=_F(LIST_INST=L_INST,
                                INST_FIN=2.E-05,
                                ),
                  SCHEMA_TEMPS=_F(SCHEMA='NEWMARK',
                                FORMULATION='DEPLACEMENT',
                                BETA = 0.49,   # Beta,
                                GAMMA = 0.9  ), # Gamma
                  NEWTON=_F(   REAC_INCR=1,
                                MATRICE='TANGENTE',
                                REAC_ITER=1,),
                   CONVERGENCE=_F(RESI_GLOB_RELA=1.E-6,
                                  ITER_GLOB_MAXI=20,
                                  ARRET='OUI',),
                   SOLVEUR=_F(SYME='OUI',
                              METHODE='LDLT',),
                   ARCHIVAGE=_F(
                                LIST_INST=L_SAUV),
                   );


VITE_A2=POST_RELEVE_T(ACTION=_F(INTITULE='VITE EN A2',
                                GROUP_NO= 'A2',
                                RESULTAT=RESU,
                                NOM_CHAM='VITE',
                                NOM_CMP='DY',
                                OPERATION='EXTRACTION',),);

DEPL_A1=POST_RELEVE_T(ACTION=_F(INTITULE='DEPL EN A1',
                                GROUP_NO= 'A1',
                                RESULTAT=RESU,
                                NOM_CHAM='DEPL',
                                NOM_CMP='DY',
                                OPERATION='EXTRACTION',),);

DEPL_B1=POST_RELEVE_T(ACTION=_F(INTITULE='DEPL EN B1',
                                GROUP_NO= 'B1',
                                RESULTAT=RESU,
                                NOM_CHAM='DEPL',
                                NOM_CMP='DY',
                                OPERATION='EXTRACTION',),);


#####################################################
# TESTS DE DEPLACEMENTS, VITESSES ET ACCELERATIONS
#####################################################

TEST_RESU(RESU=(_F(GROUP_NO='B1',
                   INST=2.0000000000000002E-05,
                   RESULTAT=RESU,
                   NOM_CHAM='DEPL',
                   NOM_CMP='DX',
                   VALE_CALC=1.7282363393497,
                   TOLE_MACHINE=1.9999999999999999E-06,
                   CRITERE='RELATIF',
                   ),
                _F(GROUP_NO='A2',
                   INST=2.0000000000000002E-05,
                   RESULTAT=RESU,
                   NOM_CHAM='DEPL',
                   NOM_CMP='DY',
                   VALE_CALC=-6.7628604429710997,
                   TOLE_MACHINE=6.9999999999999999E-06,
                   CRITERE='RELATIF',
                   ),
                _F(GROUP_NO='B1',
                   INST=2.0000000000000002E-05,
                   RESULTAT=RESU,
                   NOM_CHAM='VITE',
                   NOM_CMP='DX',
                   VALE_CALC=7.9803474679114006E4,
                   TOLE_MACHINE=5.0000000000000004E-06,
                   CRITERE='RELATIF',
                   ),
                _F(GROUP_NO='A2',
                   INST=2.0000000000000002E-05,
                   RESULTAT=RESU,
                   NOM_CHAM='VITE',
                   NOM_CMP='DY',
                   VALE_CALC=-2.157139536645E5,
                   TOLE_MACHINE=6.9999999999999999E-06,
                   CRITERE='RELATIF',
                   ),
                ),
          )

#####################################################
# TESTS SUR LA VALEUR DU JEU ET DU FROTTEMENT
#####################################################

TABJEU = POST_RELEVE_T (ACTION = _F(GROUP_NO='B1',
                                 INTITULE = 'MESSAGE',
                                 RESULTAT = RESU,
                                 TOUT_CMP='OUI',
                                 NOM_CHAM   = 'VALE_CONT',
                                 OPERATION = 'EXTRACTION'))

IMPR_TABLE(TABLE=TABJEU)

# JEU
########
TEST_TABLE(CRITERE='RELATIF',
           VALE_CALC=0.026799840884025001,
           TOLE_MACHINE=1.1E-05,
           NOM_PARA='JEU',
           TABLE=TABJEU,
           FILTRE=_F(NOM_PARA='NUME_ORDRE',
                     VALE_I=10,),
           )

TEST_TABLE(CRITERE='RELATIF',
           VALE_CALC=0.077298468952968005,
           TOLE_MACHINE=1.0000000000000001E-05,
           NOM_PARA='JEU',
           TABLE=TABJEU,
           FILTRE=_F(NOM_PARA='NUME_ORDRE',
                     VALE_I=20,),
           )

# RT
#######
TEST_TABLE(CRITERE='ABSOLU',
           VALE_CALC=0.0,
           NOM_PARA='R',
           TABLE=TABJEU,
           FILTRE=_F(NOM_PARA='NUME_ORDRE',
                     VALE_I=10,),
           )

TEST_TABLE(CRITERE='ABSOLU',
           VALE_CALC=0.0,
           NOM_PARA='R',
           TABLE=TABJEU,
           FILTRE=_F(NOM_PARA='NUME_ORDRE',
                     VALE_I=20,),
           )

FIN()
