# CYLINDRE 3D PLEIN EN ROTATION AUTOUR DE SON AXE AVEC GYROSCOPIE 3D
# ======================================================================
# COPYRIGHT (C) 1991 - 2012  EDF R&D                  WWW.CODE-ASTER.ORG
# THIS PROGRAM IS FREE SOFTWARE; YOU CAN REDISTRIBUTE IT AND/OR MODIFY  
# IT UNDER THE TERMS OF THE GNU GENERAL PUBLIC LICENSE AS PUBLISHED BY  
# THE FREE SOFTWARE FOUNDATION; EITHER VERSION 2 OF THE LICENSE, OR     
# (AT YOUR OPTION) ANY LATER VERSION.                                                    
#                                                                       
# THIS PROGRAM IS DISTRIBUTED IN THE HOPE THAT IT WILL BE USEFUL, BUT   
# WITHOUT ANY WARRANTY; WITHOUT EVEN THE IMPLIED WARRANTY OF            
# MERCHANTABILITY OR FITNESS FOR A PARTICULAR PURPOSE. SEE THE GNU      
# GENERAL PUBLIC LICENSE FOR MORE DETAILS.                              
#                                                                       
# YOU SHOULD HAVE RECEIVED A COPY OF THE GNU GENERAL PUBLIC LICENSE     
# ALONG WITH THIS PROGRAM; IF NOT, WRITE TO EDF R&D CODE_ASTER,         
#    1 AVENUE DU GENERAL DE GAULLE, 92141 CLAMART CEDEX, FRANCE.        
# ======================================================================
#
import numpy as NP

DEBUT(CODE=_F(NOM='SDNV109A', NIV_PUB_WEB='INTERNET',VISU_EFICAS='NON'),
      DEBUG=_F(SDVERI='OUI'),);

MBI=LIRE_MAILLAGE(FORMAT='MED',);

MOD=AFFE_MODELE(MAILLAGE=MBI,
                AFFE=_F(TOUT='OUI',
                        PHENOMENE='MECANIQUE',
                        MODELISATION='3D',),);

ELAS=DEFI_MATERIAU(ELAS=_F(E=2E11,
                           NU=0.0,
                           RHO=7800.0,),);

CHMAT=AFFE_MATERIAU(MAILLAGE=MBI,
                    AFFE=_F(TOUT='OUI',
                            MATER=ELAS,),);

CLDG=AFFE_CHAR_MECA(MODELE=MOD,
                  DDL_IMPO=(
                            _F(GROUP_NO='n_l_1',DX=0,DY=0,DZ=0,),
                            _F(GROUP_NO='n_r_1',DY=0,DZ=0,),
                            ),);

#LISTE DES VITESSES EN TR/MIN
VIT=NP.array([10000,20000,40000,60000,80000,100000]);
nbV=len(VIT)
# LISTE DES VITESSES EN RAD/S
omega=[VIT[ii]*pi/30. for ii in range(nbV)];
# VECTEUR DIRECTEUR AXE DE ROTATION : nx,ny,nz
nx=1;ny=0;nz=0;
CL1=AFFE_CHAR_MECA(MODELE=MOD,
                   ROTATION=_F(VITESSE= 1,
                   AXE = (nx,ny,nz,),),);

ASSEMBLAGE(MODELE=MOD,
           CHAM_MATER=CHMAT,
           NUME_DDL=CO('NUMEDDL'),
           CHARGE=(CL1,CLDG),
           MATR_ASSE=(_F(MATRICE=CO('RIGID'),
                              OPTION='RIGI_MECA',),
                           _F(MATRICE=CO('MASSE'),
                              OPTION='MASS_MECA',),
                           _F(MATRICE=CO('AMOR'),
                              OPTION='AMOR_MECA',),
                           _F(MATRICE=CO('RIGIDR'),
                              OPTION='RIGI_ROTA',),),);


GYELEM=CALC_MATR_ELEM(OPTION='MECA_GYRO',
                      MODELE=MOD,
                      CHARGE=(CL1,CLDG,),
                      CHAM_MATER=CHMAT,
                      );

GYASS=ASSE_MATRICE(MATR_ELEM=GYELEM,
                   NUME_DDL=NUMEDDL,);
                                 
# CALCUL DES MODES A L'ARRET
MODES0=MODE_ITER_SIMULT(MATR_RIGI=RIGID,
                       MATR_MASS=MASSE,
                       TYPE_RESU='DYNAMIQUE',
                       METHODE='SORENSEN',
                       CALC_FREQ=_F(OPTION='CENTRE',
                                    FREQ=(500.),
                                    NMAX_FREQ=30,),
                       VERI_MODE=_F(STOP_ERREUR='NON',),
                       SOLVEUR=_F(RENUM='METIS',
                       NPREC=12,
                       METHODE='MULT_FRONT',),);

#VITESSE DE ROTATION OMEGA=0
TEST_RESU(RESU=(_F(NUME_ORDRE=2,
                   PARA='FREQ',
                   REFERENCE='SOURCE_EXTERNE',
                   RESULTAT=MODES0,
                   VALE_CALC=365.67659474,
                   VALE_REFE=364.8400000000001,
                   CRITERE='RELATIF',
                   PRECISION=1.E-2,),
                _F(NUME_ORDRE=3,
                   PARA='FREQ',
                   REFERENCE='SOURCE_EXTERNE',
                   RESULTAT=MODES0,
                   VALE_CALC=365.67659475,
                   VALE_REFE=364.8400000000001,
                   CRITERE='RELATIF',
                   PRECISION=1.E-2,),
                _F(NUME_ORDRE=4,
                   PARA='FREQ',
                   REFERENCE='SOURCE_EXTERNE',
                   RESULTAT=MODES0,
                   VALE_CALC=1467.29099913,
                   VALE_REFE=1462.60000000000001,
                   CRITERE='RELATIF',
                   PRECISION=1.E-2,),
                _F(NUME_ORDRE=5,
                   PARA='FREQ',
                   REFERENCE='SOURCE_EXTERNE',
                   RESULTAT=MODES0,
                   VALE_CALC=1467.29099913,
                   VALE_REFE=1462.60000000000001,
                   CRITERE='RELATIF',
                   PRECISION=1.E-2,),
                _F(NUME_ORDRE=6,
                   PARA='FREQ',
                   REFERENCE='SOURCE_EXTERNE',
                   RESULTAT=MODES0,
                   VALE_CALC=3005.12154103,
                   VALE_REFE=3004.3000000000001,
                   CRITERE='RELATIF',
                   PRECISION=1.E-2,
                   ),
                _F(NUME_ORDRE=7,
                   PARA='FREQ',
                   REFERENCE='SOURCE_EXTERNE',
                   RESULTAT=MODES0,
                   VALE_CALC=3318.72852277,
                   VALE_REFE=3308.3000000000001,
                   CRITERE='RELATIF',
                   PRECISION=1.E-2,
                   ),
                _F(NUME_ORDRE=8,
                   PARA='FREQ',
                   REFERENCE='SOURCE_EXTERNE',
                   RESULTAT=MODES0,
                   VALE_CALC=3318.72852277,
                   VALE_REFE=3308.3000000000001,
                   CRITERE='RELATIF',
                   PRECISION=1.E-2,
                   ),
                _F(NUME_ORDRE=9,
                   PARA='FREQ',
                   REFERENCE='SOURCE_EXTERNE',
                   RESULTAT=MODES0,
                   VALE_CALC=4483.90267640,
                   VALE_REFE=4483.9000000000001,
                   CRITERE='RELATIF',
                   PRECISION=1.E-2,
                   ),
                _F(NUME_ORDRE=10,
                   PARA='FREQ',
                   REFERENCE='SOURCE_EXTERNE',
                   RESULTAT=MODES0,
                   VALE_CALC=5943.29607958,
                   VALE_REFE=5925.4000000000001,
                   CRITERE='RELATIF',
                   PRECISION=1.E-2,
                   ),
                ),
          )

lmod1=[None]*nbV;
lmod2=[None]*nbV;
for i in range(nbV):
    OM=omega[i]
    RIGIDi=COMB_MATR_ASSE(COMB_R=(_F(MATR_ASSE=RIGID,COEF_R=1.0,),
                              _F(MATR_ASSE=RIGIDR,COEF_R=OM**2,),),)
    GYASSi=COMB_MATR_ASSE(COMB_R=(_F(MATR_ASSE=AMOR,COEF_R=1.0,),
                                  _F(MATR_ASSE=GYASS,COEF_R=OM,),),),                            
    # CALCUL DES MODES AVEC GYROSCOPIE ET SANS RAIDEUR CENTRIFUGE
    lmod1[i]=MODE_ITER_SIMULT(MATR_RIGI=RIGID,
                       MATR_MASS=MASSE,
                       MATR_AMOR=GYASSi,
                       TYPE_RESU='DYNAMIQUE',
                       METHODE='SORENSEN',
                       CALC_FREQ=_F(OPTION='CENTRE',
                                    FREQ=(500.),
                                    NMAX_FREQ=30,),
                       VERI_MODE=_F(STOP_ERREUR='NON',),
                       SOLVEUR=_F(RENUM='METIS',
                       NPREC=12,
                       METHODE='MULT_FRONT',),)
    # CALCUL DES MODES AVEC GYROSCOPIE ET AVEC RAIDEUR CENTRIFUGE
    lmod2[i]=MODE_ITER_SIMULT(MATR_RIGI=RIGIDi,
                       MATR_MASS=MASSE,
                       MATR_AMOR=GYASSi,
                       TYPE_RESU='DYNAMIQUE',
                       METHODE='SORENSEN',
                       CALC_FREQ=_F(OPTION='CENTRE',
                                    FREQ=(500.),
                                    NMAX_FREQ=30,),
                       VERI_MODE=_F(STOP_ERREUR='NON',),
                       SOLVEUR=_F(RENUM='METIS',
                       NPREC=12,
                       METHODE='MULT_FRONT',),)
    DETRUIRE(CONCEPT=_F(NOM=RIGIDi),INFO=1)
    DETRUIRE(CONCEPT=_F(NOM=GYASSi),INFO=1)

# VITESSE DE ROTATION OMEGA=10000 TR/MIN
TEST_RESU(RESU=(_F(NUME_ORDRE=1,
                   PARA='FREQ',
                   REFERENCE='SOURCE_EXTERNE',
                   RESULTAT=lmod1_0,
                   VALE_CALC=235.34571989,
                   VALE_REFE=234.2600000000001,
                   CRITERE='RELATIF',
                   PRECISION=1.E-2,),
                _F(NUME_ORDRE=2,
                   PARA='FREQ',
                   REFERENCE='SOURCE_EXTERNE',
                   RESULTAT=lmod1_0,
                   VALE_CALC=568.18271445,
                   VALE_REFE=567.1000000000001,
                   CRITERE='RELATIF',
                   PRECISION=1.E-2,),
                _F(NUME_ORDRE=3,
                   PARA='FREQ',
                   REFERENCE='SOURCE_EXTERNE',
                   RESULTAT=lmod1_0,
                   VALE_CALC=1310.91617737,
                   VALE_REFE=1306.20000000000001,
                   CRITERE='RELATIF',
                   PRECISION=1.E-2,),
                _F(NUME_ORDRE=4,
                   PARA='FREQ',
                   REFERENCE='SOURCE_EXTERNE',
                   RESULTAT=lmod1_0,
                   VALE_CALC=1642.31915927,
                   VALE_REFE=1637.60000000000001,
                   CRITERE='RELATIF',
                   PRECISION=1.E-2,),
                _F(NUME_ORDRE=5,
                   PARA='FREQ',
                   REFERENCE='SOURCE_EXTERNE',
                   RESULTAT=lmod1_0,
                   VALE_CALC=3005.12153994,
                   VALE_REFE=3004.3000000000001,
                   CRITERE='RELATIF',
                   PRECISION=1.E-2,
                   ),
                _F(NUME_ORDRE=6,
                   PARA='FREQ',
                   REFERENCE='SOURCE_EXTERNE',
                   RESULTAT=lmod1_0,
                   VALE_CALC=3158.21269993,
                   VALE_REFE=3147.8000000000001,
                   CRITERE='RELATIF',
                   PRECISION=1.E-2,
                   ),
                _F(NUME_ORDRE=7,
                   PARA='FREQ',
                   REFERENCE='SOURCE_EXTERNE',
                   RESULTAT=lmod1_0,
                   VALE_CALC=3487.40213203,
                   VALE_REFE=3477.0000000000001,
                   CRITERE='RELATIF',
                   PRECISION=1.E-2,
                   ),
                _F(NUME_ORDRE=8,
                   PARA='FREQ',
                   REFERENCE='SOURCE_EXTERNE',
                   RESULTAT=lmod1_0,
                   VALE_CALC=4483.89217912,
                   VALE_REFE=4483.9000000000001,
                   CRITERE='RELATIF',
                   PRECISION=1.E-2,
                   ),
                _F(NUME_ORDRE=9,
                   PARA='FREQ',
                   REFERENCE='SOURCE_EXTERNE',
                   RESULTAT=lmod1_0,
                   VALE_CALC=5782.31664580,
                   VALE_REFE=5764.4000000000001,
                   CRITERE='RELATIF',
                   PRECISION=1.E-2,
                   ),
                _F(NUME_ORDRE=10,
                   PARA='FREQ',
                   REFERENCE='SOURCE_EXTERNE',
                   RESULTAT=lmod1_0,
                   VALE_CALC=6108.75602845,
                   VALE_REFE=6090.8000000000001,
                   CRITERE='RELATIF',
                   PRECISION=1.E-2,
                   ),
                ),
          )

# VITESSE DE ROTATION OMEGA=20000 TR/MIN
TEST_RESU(RESU=(_F(NUME_ORDRE=1,
                   PARA='FREQ',
                   REFERENCE='SOURCE_EXTERNE',
                   RESULTAT=lmod1_1,
                   VALE_CALC=161.63224993,
                   VALE_REFE=160.7500000000001,
                   CRITERE='RELATIF',
                   PRECISION=1.E-2,),
                _F(NUME_ORDRE=2,
                   PARA='FREQ',
                   REFERENCE='SOURCE_EXTERNE',
                   RESULTAT=lmod1_1,
                   VALE_CALC=827.30620940,
                   VALE_REFE=826.4300000000001,
                   CRITERE='RELATIF',
                   PRECISION=1.E-2,),
                _F(NUME_ORDRE=3,
                   PARA='FREQ',
                   REFERENCE='SOURCE_EXTERNE',
                   RESULTAT=lmod1_1,
                   VALE_CALC=1172.84781408,
                   VALE_REFE=1168.20000000000001,
                   CRITERE='RELATIF',
                   PRECISION=1.E-2,),
                _F(NUME_ORDRE=4,
                   PARA='FREQ',
                   REFERENCE='SOURCE_EXTERNE',
                   RESULTAT=lmod1_1,
                   VALE_CALC=1835.65366532,
                   VALE_REFE=1831.10000000000001,
                   CRITERE='RELATIF',
                   PRECISION=1.E-2,),
                _F(NUME_ORDRE=5,
                   PARA='FREQ',
                   REFERENCE='SOURCE_EXTERNE',
                   RESULTAT=lmod1_1,
                   VALE_CALC=3005.12154090,
                   VALE_REFE=2995.5000000000001,
                   CRITERE='RELATIF',
                   PRECISION=1.E-2,
                   ),
                _F(NUME_ORDRE=6,
                   PARA='FREQ',
                   REFERENCE='SOURCE_EXTERNE',
                   RESULTAT=lmod1_1,
                   VALE_CALC=3005.82484152,
                   VALE_REFE=3004.3000000000001,
                   CRITERE='RELATIF',
                   PRECISION=1.E-2,
                   ),
                _F(NUME_ORDRE=7,
                   PARA='FREQ',
                   REFERENCE='SOURCE_EXTERNE',
                   RESULTAT=lmod1_1,
                   VALE_CALC=3664.2034737,
                   VALE_REFE=3653.9000000000001,
                   CRITERE='RELATIF',
                   PRECISION=1.E-2,
                   ),
                _F(NUME_ORDRE=8,
                   PARA='FREQ',
                   REFERENCE='SOURCE_EXTERNE',
                   RESULTAT=lmod1_1,
                   VALE_CALC=4483.86069856,
                   VALE_REFE=4483.9000000000001,
                   CRITERE='RELATIF',
                   PRECISION=1.E-2,
                   ),
                _F(NUME_ORDRE=9,
                   PARA='FREQ',
                   REFERENCE='SOURCE_EXTERNE',
                   RESULTAT=lmod1_1,
                   VALE_CALC=5625.81284224,
                   VALE_REFE=5607.9000000000001,
                   CRITERE='RELATIF',
                   PRECISION=1.E-2,
                   ),
                _F(NUME_ORDRE=10,
                   PARA='FREQ',
                   REFERENCE='SOURCE_EXTERNE',
                   RESULTAT=lmod1_1,
                   VALE_CALC=6278.69123934,
                   VALE_REFE=6260.8000000000001,
                   CRITERE='RELATIF',
                   PRECISION=1.E-2,
                   ),
                _F(NUME_ORDRE=11,
                   PARA='FREQ',
                   REFERENCE='SOURCE_EXTERNE',
                   RESULTAT=lmod1_1,
                   VALE_CALC=9016.92912568,
                   VALE_REFE=9016.9000000000001,
                   CRITERE='RELATIF',
                   PRECISION=1.E-2,
                   ),
                ),
          )

TEST_RESU(RESU=(_F(NUME_ORDRE=1,
                   PARA='FREQ',
                   REFERENCE='SOURCE_EXTERNE',
                   RESULTAT=lmod2_1,
                   VALE_CALC=32.61364181,
                   VALE_REFE=31.4100000000001,
                   CRITERE='RELATIF',
                   PRECISION=4.E-2,),
                _F(NUME_ORDRE=2,
                   PARA='FREQ',
                   REFERENCE='SOURCE_EXTERNE',
                   RESULTAT=lmod2_1,
                   VALE_CALC=698.28762108,
                   VALE_REFE=697.0900000000001,
                   CRITERE='RELATIF',
                   PRECISION=1.E-2,),
                _F(NUME_ORDRE=3,
                   PARA='FREQ',
                   REFERENCE='SOURCE_EXTERNE',
                   RESULTAT=lmod2_1,
                   VALE_CALC=1135.66985686,
                   VALE_REFE=1131.00000000000001,
                   CRITERE='RELATIF',
                   PRECISION=1.E-2,),
                _F(NUME_ORDRE=4,
                   PARA='FREQ',
                   REFERENCE='SOURCE_EXTERNE',
                   RESULTAT=lmod2_1,
                   VALE_CALC=1798.47578357,
                   VALE_REFE=1793.80000000000001,
                   CRITERE='RELATIF',
                   PRECISION=1.E-2,),
                _F(NUME_ORDRE=5,
                   PARA='FREQ',
                   REFERENCE='SOURCE_EXTERNE',
                   RESULTAT=lmod2_1,
                   VALE_CALC=2989.33281313,
                   VALE_REFE=2978.9000000000001,
                   CRITERE='RELATIF',
                   PRECISION=1.E-2,
                   ),
                _F(NUME_ORDRE=6,
                   PARA='FREQ',
                   REFERENCE='SOURCE_EXTERNE',
                   RESULTAT=lmod2_1,
                   VALE_CALC=3005.12150987,
                   VALE_REFE=3004.3000000000001,
                   CRITERE='RELATIF',
                   PRECISION=1.E-2,
                   ),
                _F(NUME_ORDRE=7,
                   PARA='FREQ',
                   REFERENCE='SOURCE_EXTERNE',
                   RESULTAT=lmod2_1,
                   VALE_CALC=3647.71160246,
                   VALE_REFE=3637.3000000000001,
                   CRITERE='RELATIF',
                   PRECISION=1.E-2,
                   ),
                _F(NUME_ORDRE=8,
                   PARA='FREQ',
                   REFERENCE='SOURCE_EXTERNE',
                   RESULTAT=lmod2_1,
                   VALE_CALC=4471.45364954,
                   VALE_REFE=4471.5000000000001,
                   CRITERE='RELATIF',
                   PRECISION=1.E-2,
                   ),
                _F(NUME_ORDRE=9,
                   PARA='FREQ',
                   REFERENCE='SOURCE_EXTERNE',
                   RESULTAT=lmod2_1,
                   VALE_CALC=5616.66516995,
                   VALE_REFE=5598.7000000000001,
                   CRITERE='RELATIF',
                   PRECISION=1.E-2,
                   ),
                _F(NUME_ORDRE=10,
                   PARA='FREQ',
                   REFERENCE='SOURCE_EXTERNE',
                   RESULTAT=lmod2_1,
                   VALE_CALC=6269.54381722,
                   VALE_REFE=6251.6000000000001,
                   CRITERE='RELATIF',
                   PRECISION=1.E-2,
                   ),
                _F(NUME_ORDRE=11,
                   PARA='FREQ',
                   REFERENCE='SOURCE_EXTERNE',
                   RESULTAT=lmod2_1,
                   VALE_CALC=9010.76588355,
                   VALE_REFE=9010.8000000000001,
                   CRITERE='RELATIF',
                   PRECISION=1.E-2,
                   ),
                ),
          )

# VITESSE DE ROTATION OMEGA=40000 TR/MIN
TEST_RESU(RESU=(_F(NUME_ORDRE=1,
                   PARA='FREQ',
                   REFERENCE='SOURCE_EXTERNE',
                   RESULTAT=lmod1_2,
                   VALE_CALC=93.82665458,
                   VALE_REFE=93.2500000000001,
                   CRITERE='RELATIF',
                   PRECISION=1.E-2,),
                _F(NUME_ORDRE=2,
                   PARA='FREQ',
                   REFERENCE='SOURCE_EXTERNE',
                   RESULTAT=lmod1_2,
                   VALE_CALC=947.24178035,
                   VALE_REFE=942.9500000000001,
                   CRITERE='RELATIF',
                   PRECISION=1.E-2,),
                _F(NUME_ORDRE=3,
                   PARA='FREQ',
                   REFERENCE='SOURCE_EXTERNE',
                   RESULTAT=lmod1_2,
                   VALE_CALC=1425.17433633,
                   VALE_REFE=1424.60000000000001,
                   CRITERE='RELATIF',
                   PRECISION=1.E-2,),
                _F(NUME_ORDRE=4,
                   PARA='FREQ',
                   REFERENCE='SOURCE_EXTERNE',
                   RESULTAT=lmod1_2,
                   VALE_CALC=2272.85258233,
                   VALE_REFE=2268.60000000000001,
                   CRITERE='RELATIF',
                   PRECISION=1.E-2,),
                _F(NUME_ORDRE=5,
                   PARA='FREQ',
                   REFERENCE='SOURCE_EXTERNE',
                   RESULTAT=lmod1_2,
                   VALE_CALC=2725.02287675,
                   VALE_REFE=2714.8000000000001,
                   CRITERE='RELATIF',
                   PRECISION=1.E-2,
                   ),
                _F(NUME_ORDRE=6,
                   PARA='FREQ',
                   REFERENCE='SOURCE_EXTERNE',
                   RESULTAT=lmod1_2,
                   VALE_CALC=3005.12153990,
                   VALE_REFE=3004.3000000000001,
                   CRITERE='RELATIF',
                   PRECISION=1.E-2,
                   ),
                _F(NUME_ORDRE=7,
                   PARA='FREQ',
                   REFERENCE='SOURCE_EXTERNE',
                   RESULTAT=lmod1_2,
                   VALE_CALC=4041.77828062,
                   VALE_REFE=4031.6000000000001,
                   CRITERE='RELATIF',
                   PRECISION=1.E-2,
                   ),
                _F(NUME_ORDRE=8,
                   PARA='FREQ',
                   REFERENCE='SOURCE_EXTERNE',
                   RESULTAT=lmod1_2,
                   VALE_CALC=4483.73477224,
                   VALE_REFE=4483.7000000000001,
                   CRITERE='RELATIF',
                   PRECISION=1.E-2,
                   ),
                _F(NUME_ORDRE=9,
                   PARA='FREQ',
                   REFERENCE='SOURCE_EXTERNE',
                   RESULTAT=lmod1_2,
                   VALE_CALC=5326.16234862,
                   VALE_REFE=5308.3000000000001,
                   CRITERE='RELATIF',
                   PRECISION=1.E-2,
                   ),
                _F(NUME_ORDRE=10,
                   PARA='FREQ',
                   REFERENCE='SOURCE_EXTERNE',
                   RESULTAT=lmod1_2,
                   VALE_CALC=6631.91619682,
                   VALE_REFE=6614.1000000000001,
                   CRITERE='RELATIF',
                   PRECISION=1.E-2,
                   ),
                _F(NUME_ORDRE=11,
                   PARA='FREQ',
                   REFERENCE='SOURCE_EXTERNE',
                   RESULTAT=lmod1_2,
                   VALE_CALC=8748.39389507,
                   VALE_REFE=8721.5000000000001,
                   CRITERE='RELATIF',
                   PRECISION=1.E-2,
                   ),
                ),
          )

TEST_RESU(RESU=(_F(NUME_ORDRE=1,
                   PARA='FREQ',
                   REFERENCE='SOURCE_EXTERNE',
                   RESULTAT=lmod2_2,
                   VALE_CALC=300.90204511,
                   VALE_REFE=302.1000000000001,
                   CRITERE='RELATIF',
                   PRECISION=1.E-2,),
                _F(NUME_ORDRE=2,
                   PARA='FREQ',
                   REFERENCE='SOURCE_EXTERNE',
                   RESULTAT=lmod2_2,
                   VALE_CALC=803.61236120,
                   VALE_REFE=798.8900000000001,
                   CRITERE='RELATIF',
                   PRECISION=1.E-2,),
                _F(NUME_ORDRE=3,
                   PARA='FREQ',
                   REFERENCE='SOURCE_EXTERNE',
                   RESULTAT=lmod2_2,
                   VALE_CALC=1030.44579502,
                   VALE_REFE=1029.30000000000001,
                   CRITERE='RELATIF',
                   PRECISION=1.E-2,),
                _F(NUME_ORDRE=4,
                   PARA='FREQ',
                   REFERENCE='SOURCE_EXTERNE',
                   RESULTAT=lmod2_2,
                   VALE_CALC=2129.22376707,
                   VALE_REFE=2124.50000000000001,
                   CRITERE='RELATIF',
                   PRECISION=1.E-2,),
                _F(NUME_ORDRE=5,
                   PARA='FREQ',
                   REFERENCE='SOURCE_EXTERNE',
                   RESULTAT=lmod2_2,
                   VALE_CALC=2659.52483311,
                   VALE_REFE=2649.1000000000001,
                   CRITERE='RELATIF',
                   PRECISION=1.E-2,
                   ),
                _F(NUME_ORDRE=6,
                   PARA='FREQ',
                   REFERENCE='SOURCE_EXTERNE',
                   RESULTAT=lmod2_2,
                   VALE_CALC=3005.12148569,
                   VALE_REFE=3004.3000000000001,
                   CRITERE='RELATIF',
                   PRECISION=1.E-2,
                   ),
                _F(NUME_ORDRE=7,
                   PARA='FREQ',
                   REFERENCE='SOURCE_EXTERNE',
                   RESULTAT=lmod2_2,
                   VALE_CALC=3976.28149260,
                   VALE_REFE=3965.9000000000001,
                   CRITERE='RELATIF',
                   PRECISION=1.E-2,
                   ),
                _F(NUME_ORDRE=8,
                   PARA='FREQ',
                   REFERENCE='SOURCE_EXTERNE',
                   RESULTAT=lmod2_2,
                   VALE_CALC=4433.89967714,
                   VALE_REFE=4433.9000000000001,
                   CRITERE='RELATIF',
                   PRECISION=1.E-2,
                   ),
                _F(NUME_ORDRE=9,
                   PARA='FREQ',
                   REFERENCE='SOURCE_EXTERNE',
                   RESULTAT=lmod2_2,
                   VALE_CALC=5289.65175527,
                   VALE_REFE=5271.7000000000001,
                   CRITERE='RELATIF',
                   PRECISION=1.E-2,
                   ),
                _F(NUME_ORDRE=10,
                   PARA='FREQ',
                   REFERENCE='SOURCE_EXTERNE',
                   RESULTAT=lmod2_2,
                   VALE_CALC=6595.40760518,
                   VALE_REFE=6577.5000000000001,
                   CRITERE='RELATIF',
                   PRECISION=1.E-2,
                   ),
                _F(NUME_ORDRE=11,
                   PARA='FREQ',
                   REFERENCE='SOURCE_EXTERNE',
                   RESULTAT=lmod2_2,
                   VALE_CALC=8725.41266370,
                   VALE_REFE=8698.5000000000001,
                   CRITERE='RELATIF',
                   PRECISION=1.E-2,
                   ),
                ),
          )

# VITESSE DE ROTATION OMEGA=60000 TR/MIN
TEST_RESU(RESU=(_F(NUME_ORDRE=1,
                   PARA='FREQ',
                   REFERENCE='SOURCE_EXTERNE',
                   RESULTAT=lmod1_3,
                   VALE_CALC=64.85327766,
                   VALE_REFE=64.4400000000001,
                   CRITERE='RELATIF',
                   PRECISION=1.E-2,),
                _F(NUME_ORDRE=2,
                   PARA='FREQ',
                   REFERENCE='SOURCE_EXTERNE',
                   RESULTAT=lmod1_3,
                   VALE_CALC=778.18857823,
                   VALE_REFE=774.2900000000001,
                   CRITERE='RELATIF',
                   PRECISION=1.E-2,),
                _F(NUME_ORDRE=3,
                   PARA='FREQ',
                   REFERENCE='SOURCE_EXTERNE',
                   RESULTAT=lmod1_3,
                   VALE_CALC=2061.87420710,
                   VALE_REFE=2061.50000000000001,
                   CRITERE='RELATIF',
                   PRECISION=1.E-2,),
                _F(NUME_ORDRE=4,
                   PARA='FREQ',
                   REFERENCE='SOURCE_EXTERNE',
                   RESULTAT=lmod1_3,
                   VALE_CALC=2474.97753610,
                   VALE_REFE=2465.00000000000001,
                   CRITERE='RELATIF',
                   PRECISION=1.E-2,),
                _F(NUME_ORDRE=5,
                   PARA='FREQ',
                   REFERENCE='SOURCE_EXTERNE',
                   RESULTAT=lmod1_3,
                   VALE_CALC=2766.60252926,
                   VALE_REFE=2762.7000000000001,
                   CRITERE='RELATIF',
                   PRECISION=1.E-2,
                   ),
                _F(NUME_ORDRE=6,
                   PARA='FREQ',
                   REFERENCE='SOURCE_EXTERNE',
                   RESULTAT=lmod1_3,
                   VALE_CALC=3005.12153996,
                   VALE_REFE=3004.3000000000001,
                   CRITERE='RELATIF',
                   PRECISION=1.E-2,
                   ),
                _F(NUME_ORDRE=7,
                   PARA='FREQ',
                   REFERENCE='SOURCE_EXTERNE',
                   RESULTAT=lmod1_3,
                   VALE_CALC=4450.10598891,
                   VALE_REFE=4440.1000000000001,
                   CRITERE='RELATIF',
                   PRECISION=1.E-2,
                   ),
                _F(NUME_ORDRE=8,
                   PARA='FREQ',
                   REFERENCE='SOURCE_EXTERNE',
                   RESULTAT=lmod1_3,
                   VALE_CALC=4483.52491839,
                   VALE_REFE=4483.5000000000001,
                   CRITERE='RELATIF',
                   PRECISION=1.E-2,
                   ),
                _F(NUME_ORDRE=9,
                   PARA='FREQ',
                   REFERENCE='SOURCE_EXTERNE',
                   RESULTAT=lmod1_3,
                   VALE_CALC=5044.10769894,
                   VALE_REFE=5026.4000000000001,
                   CRITERE='RELATIF',
                   PRECISION=1.E-2,
                   ),
                _F(NUME_ORDRE=10,
                   PARA='FREQ',
                   REFERENCE='SOURCE_EXTERNE',
                   RESULTAT=lmod1_3,
                   VALE_CALC=7002.73110421,
                   VALE_REFE=6985.0000000000001,
                   CRITERE='RELATIF',
                   PRECISION=1.E-2,
                   ),
                _F(NUME_ORDRE=11,
                   PARA='FREQ',
                   REFERENCE='SOURCE_EXTERNE',
                   RESULTAT=lmod1_3,
                   VALE_CALC=8452.71741918,
                   VALE_REFE=8426.0000000000001,
                   CRITERE='RELATIF',
                   PRECISION=1.E-2,
                   ),
                ),
          )

TEST_RESU(RESU=(_F(NUME_ORDRE=1,
                   PARA='FREQ',
                   REFERENCE='SOURCE_EXTERNE',
                   RESULTAT=lmod2_3,
                   VALE_CALC=471.11807690,
                   VALE_REFE=466.3900000000001,
                   CRITERE='RELATIF',
                   PRECISION=2.E-2,),
                _F(NUME_ORDRE=2,
                   PARA='FREQ',
                   REFERENCE='SOURCE_EXTERNE',
                   RESULTAT=lmod2_3,
                   VALE_CALC=634.87302308,
                   VALE_REFE=636.0800000000001,
                   CRITERE='RELATIF',
                   PRECISION=1.E-2,),
                _F(NUME_ORDRE=3,
                   PARA='FREQ',
                   REFERENCE='SOURCE_EXTERNE',
                   RESULTAT=lmod2_3,
                   VALE_CALC=1362.14844108,
                   VALE_REFE=1361.00000000000001,
                   CRITERE='RELATIF',
                   PRECISION=1.E-2,),
                _F(NUME_ORDRE=4,
                   PARA='FREQ',
                   REFERENCE='SOURCE_EXTERNE',
                   RESULTAT=lmod2_3,
                   VALE_CALC=2329.30474741,
                   VALE_REFE=2318.90000000000001,
                   CRITERE='RELATIF',
                   PRECISION=1.E-2,),
                _F(NUME_ORDRE=5,
                   PARA='FREQ',
                   REFERENCE='SOURCE_EXTERNE',
                   RESULTAT=lmod2_3,
                   VALE_CALC=2459.53406673,
                   VALE_REFE=2454.8000000000001,
                   CRITERE='RELATIF',
                   PRECISION=1.E-2,
                   ),
                _F(NUME_ORDRE=6,
                   PARA='FREQ',
                   REFERENCE='SOURCE_EXTERNE',
                   RESULTAT=lmod2_3,
                   VALE_CALC=3005.12141851,
                   VALE_REFE=3004.3000000000001,
                   CRITERE='RELATIF',
                   PRECISION=1.E-2,
                   ),
                _F(NUME_ORDRE=7,
                   PARA='FREQ',
                   REFERENCE='SOURCE_EXTERNE',
                   RESULTAT=lmod2_3,
                   VALE_CALC=4304.43743924,
                   VALE_REFE=4294.0000000000001,
                   CRITERE='RELATIF',
                   PRECISION=1.E-2,
                   ),
                _F(NUME_ORDRE=8,
                   PARA='FREQ',
                   REFERENCE='SOURCE_EXTERNE',
                   RESULTAT=lmod2_3,
                   VALE_CALC=4370.60226767,
                   VALE_REFE=4370.6000000000001,
                   CRITERE='RELATIF',
                   PRECISION=1.E-2,
                   ),
                _F(NUME_ORDRE=9,
                   PARA='FREQ',
                   REFERENCE='SOURCE_EXTERNE',
                   RESULTAT=lmod2_3,
                   VALE_CALC=4962.25639203,
                   VALE_REFE=4944.3000000000001,
                   CRITERE='RELATIF',
                   PRECISION=1.E-2,
                   ),
                _F(NUME_ORDRE=10,
                   PARA='FREQ',
                   REFERENCE='SOURCE_EXTERNE',
                   RESULTAT=lmod2_3,
                   VALE_CALC=6920.8865550,
                   VALE_REFE=6902.9000000000001,
                   CRITERE='RELATIF',
                   PRECISION=1.E-2,
                   ),
                _F(NUME_ORDRE=11,
                   PARA='FREQ',
                   REFERENCE='SOURCE_EXTERNE',
                   RESULTAT=lmod2_3,
                   VALE_CALC=8401.08257437,
                   VALE_REFE=8374.2000000000001,
                   CRITERE='RELATIF',
                   PRECISION=1.E-2,
                   ),
                ),
          )

# VITESSE DE ROTATION OMEGA=80000 TR/MIN
TEST_RESU(RESU=(_F(NUME_ORDRE=1,
                   PARA='FREQ',
                   REFERENCE='SOURCE_EXTERNE',
                   RESULTAT=lmod1_4,
                   VALE_CALC=49.30650672,
                   VALE_REFE=48.9900000000001,
                   CRITERE='RELATIF',
                   PRECISION=1.E-2,),
                _F(NUME_ORDRE=2,
                   PARA='FREQ',
                   REFERENCE='SOURCE_EXTERNE',
                   RESULTAT=lmod1_4,
                   VALE_CALC=651.80765927,
                   VALE_REFE=648.3100000000001,
                   CRITERE='RELATIF',
                   PRECISION=1.E-2,),
                _F(NUME_ORDRE=3,
                   PARA='FREQ',
                   REFERENCE='SOURCE_EXTERNE',
                   RESULTAT=lmod1_4,
                   VALE_CALC=2253.64435069,
                   VALE_REFE=2244.00000000000001,
                   CRITERE='RELATIF',
                   PRECISION=1.E-2,),
                _F(NUME_ORDRE=4,
                   PARA='FREQ',
                   REFERENCE='SOURCE_EXTERNE',
                   RESULTAT=lmod1_4,
                   VALE_CALC=2711.99997145,
                   VALE_REFE=2711.70000000000001,
                   CRITERE='RELATIF',
                   PRECISION=1.E-2,),
                _F(NUME_ORDRE=5,
                   PARA='FREQ',
                   REFERENCE='SOURCE_EXTERNE',
                   RESULTAT=lmod1_4,
                   VALE_CALC=3005.12153899,
                   VALE_REFE=3004.3000000000001,
                   CRITERE='RELATIF',
                   PRECISION=1.E-2,
                   ),
                _F(NUME_ORDRE=6,
                   PARA='FREQ',
                   REFERENCE='SOURCE_EXTERNE',
                   RESULTAT=lmod1_4,
                   VALE_CALC=3303.02205505,
                   VALE_REFE=3299.5000000000001,
                   CRITERE='RELATIF',
                   PRECISION=1.E-2,
                   ),
                _F(NUME_ORDRE=7,
                   PARA='FREQ',
                   REFERENCE='SOURCE_EXTERNE',
                   RESULTAT=lmod1_4,
                   VALE_CALC=4483.23117261,
                   VALE_REFE=4483.2000000000001,
                   CRITERE='RELATIF',
                   PRECISION=1.E-2,
                   ),
                _F(NUME_ORDRE=8,
                   PARA='FREQ',
                   REFERENCE='SOURCE_EXTERNE',
                   RESULTAT=lmod1_4,
                   VALE_CALC=4779.26465209,
                   VALE_REFE=4761.8000000000001,
                   CRITERE='RELATIF',
                   PRECISION=1.E-2,
                   ),
                _F(NUME_ORDRE=9,
                   PARA='FREQ',
                   REFERENCE='SOURCE_EXTERNE',
                   RESULTAT=lmod1_4,
                   VALE_CALC=4887.14026501,
                   VALE_REFE=4877.5000000000001,
                   CRITERE='RELATIF',
                   PRECISION=1.E-2,
                   ),
                _F(NUME_ORDRE=10,
                   PARA='FREQ',
                   REFERENCE='SOURCE_EXTERNE',
                   RESULTAT=lmod1_4,
                   VALE_CALC=7390.74876824,
                   VALE_REFE=7373.2000000000001,
                   CRITERE='RELATIF',
                   PRECISION=1.E-2,
                   ),
                _F(NUME_ORDRE=11,
                   PARA='FREQ',
                   REFERENCE='SOURCE_EXTERNE',
                   RESULTAT=lmod1_4,
                   VALE_CALC=8168.01853763,
                   VALE_REFE=8141.4000000000001,
                   CRITERE='RELATIF',
                   PRECISION=1.E-2,
                   ),
                ),
          )

TEST_RESU(RESU=(_F(NUME_ORDRE=1,
                   PARA='FREQ',
                   REFERENCE='SOURCE_EXTERNE',
                   RESULTAT=lmod2_4,
                   VALE_CALC=138.18612623,
                   VALE_REFE=133.4600000000001,
                   CRITERE='RELATIF',
                   PRECISION=4.E-2,),
                _F(NUME_ORDRE=2,
                   PARA='FREQ',
                   REFERENCE='SOURCE_EXTERNE',
                   RESULTAT=lmod2_4,
                   VALE_CALC=969.30364778,
                   VALE_REFE=970.5100000000001,
                   CRITERE='RELATIF',
                   PRECISION=1.E-2,),
                _F(NUME_ORDRE=3,
                   PARA='FREQ',
                   REFERENCE='SOURCE_EXTERNE',
                   RESULTAT=lmod2_4,
                   VALE_CALC=1693.39108505,
                   VALE_REFE=1692.20000000000001,
                   CRITERE='RELATIF',
                   PRECISION=1.E-2,),
                _F(NUME_ORDRE=4,
                   PARA='FREQ',
                   REFERENCE='SOURCE_EXTERNE',
                   RESULTAT=lmod2_4,
                   VALE_CALC=1998.6725220,
                   VALE_REFE=1988.30000000000001,
                   CRITERE='RELATIF',
                   PRECISION=1.E-2,),
                _F(NUME_ORDRE=5,
                   PARA='FREQ',
                   REFERENCE='SOURCE_EXTERNE',
                   RESULTAT=lmod2_4,
                   VALE_CALC=2789.40535687,
                   VALE_REFE=2784.7000000000001,
                   CRITERE='RELATIF',
                   PRECISION=1.E-2,
                   ),
                _F(NUME_ORDRE=6,
                   PARA='FREQ',
                   REFERENCE='SOURCE_EXTERNE',
                   RESULTAT=lmod2_4,
                   VALE_CALC=3005.12131921,
                   VALE_REFE=3004.3000000000001,
                   CRITERE='RELATIF',
                   PRECISION=1.E-2,
                   ),
                _F(NUME_ORDRE=7,
                   PARA='FREQ',
                   REFERENCE='SOURCE_EXTERNE',
                   RESULTAT=lmod2_4,
                   VALE_CALC=4280.43413750,
                   VALE_REFE=4280.4000000000001,
                   CRITERE='RELATIF',
                   PRECISION=1.E-2,
                   ),
                _F(NUME_ORDRE=8,
                   PARA='FREQ',
                   REFERENCE='SOURCE_EXTERNE',
                   RESULTAT=lmod2_4,
                   VALE_CALC=4632.17848861,
                   VALE_REFE=4616.6000000000001,
                   CRITERE='RELATIF',
                   PRECISION=1.E-2,
                   ),
                _F(NUME_ORDRE=9,
                   PARA='FREQ',
                   REFERENCE='SOURCE_EXTERNE',
                   RESULTAT=lmod2_4,
                   VALE_CALC=4634.47952624,
                   VALE_REFE=4621.8000000000001,
                   CRITERE='RELATIF',
                   PRECISION=1.E-2,
                   ),
                _F(NUME_ORDRE=10,
                   PARA='FREQ',
                   REFERENCE='SOURCE_EXTERNE',
                   RESULTAT=lmod2_4,
                   VALE_CALC=7245.97966714,
                   VALE_REFE=7228.0000000000001,
                   CRITERE='RELATIF',
                   PRECISION=1.E-2,
                   ),
                _F(NUME_ORDRE=11,
                   PARA='FREQ',
                   REFERENCE='SOURCE_EXTERNE',
                   RESULTAT=lmod2_4,
                   VALE_CALC=8076.40454637,
                   VALE_REFE=8049.5000000000001,
                   CRITERE='RELATIF',
                   PRECISION=1.E-2,
                   ),
                ),
          )

# VITESSE DE ROTATION OMEGA=100000 TR/MIN
TEST_RESU(RESU=(_F(NUME_ORDRE=1,
                   PARA='FREQ',
                   REFERENCE='SOURCE_EXTERNE',
                   RESULTAT=lmod1_5,
                   VALE_CALC=39.70205143,
                   VALE_REFE=39.4500000000001,
                   CRITERE='RELATIF',
                   PRECISION=1.E-2,),
                _F(NUME_ORDRE=2,
                   PARA='FREQ',
                   REFERENCE='SOURCE_EXTERNE',
                   RESULTAT=lmod1_5,
                   VALE_CALC=556.27211016,
                   VALE_REFE=553.1500000000001,
                   CRITERE='RELATIF',
                   PRECISION=1.E-2,),
                _F(NUME_ORDRE=3,
                   PARA='FREQ',
                   REFERENCE='SOURCE_EXTERNE',
                   RESULTAT=lmod1_5,
                   VALE_CALC=2058.51642377,
                   VALE_REFE=2049.20000000000001,
                   CRITERE='RELATIF',
                   PRECISION=1.E-2,),
                _F(NUME_ORDRE=4,
                   PARA='FREQ',
                   REFERENCE='SOURCE_EXTERNE',
                   RESULTAT=lmod1_5,
                   VALE_CALC=3005.12153714,
                   VALE_REFE=3004.30000000000001,
                   CRITERE='RELATIF',
                   PRECISION=1.E-2,),
                _F(NUME_ORDRE=5,
                   PARA='FREQ',
                   REFERENCE='SOURCE_EXTERNE',
                   RESULTAT=lmod1_5,
                   VALE_CALC=3368.06710073,
                   VALE_REFE=3367.8000000000001,
                   CRITERE='RELATIF',
                   PRECISION=1.E-2,
                   ),
                _F(NUME_ORDRE=6,
                   PARA='FREQ',
                   REFERENCE='SOURCE_EXTERNE',
                   RESULTAT=lmod1_5,
                   VALE_CALC=3870.28334164,
                   VALE_REFE=3867.2000000000001,
                   CRITERE='RELATIF',
                   PRECISION=1.E-2,
                   ),
                _F(NUME_ORDRE=7,
                   PARA='FREQ',
                   REFERENCE='SOURCE_EXTERNE',
                   RESULTAT=lmod1_5,
                   VALE_CALC=4482.85358480,
                   VALE_REFE=4482.9000000000001,
                   CRITERE='RELATIF',
                   PRECISION=1.E-2,
                   ),
                _F(NUME_ORDRE=8,
                   PARA='FREQ',
                   REFERENCE='SOURCE_EXTERNE',
                   RESULTAT=lmod1_5,
                   VALE_CALC=4531.11777407,
                   VALE_REFE=4513.8000000000001,
                   CRITERE='RELATIF',
                   PRECISION=1.E-2,
                   ),
                _F(NUME_ORDRE=9,
                   PARA='FREQ',
                   REFERENCE='SOURCE_EXTERNE',
                   RESULTAT=lmod1_5,
                   VALE_CALC=5350.37234318,
                   VALE_REFE=5341.1000000000001,
                   CRITERE='RELATIF',
                   PRECISION=1.E-2,
                   ),
                _F(NUME_ORDRE=10,
                   PARA='FREQ',
                   REFERENCE='SOURCE_EXTERNE',
                   RESULTAT=lmod1_5,
                   VALE_CALC=7795.45079658,
                   VALE_REFE=7778.1000000000001,
                   CRITERE='RELATIF',
                   PRECISION=1.E-2,
                   ),
                _F(NUME_ORDRE=11,
                   PARA='FREQ',
                   REFERENCE='SOURCE_EXTERNE',
                   RESULTAT=lmod1_5,
                   VALE_CALC=7894.16420701,
                   VALE_REFE=7867.7000000000001,
                   CRITERE='RELATIF',
                   PRECISION=1.E-2,
                   ),
                ),
          )

TEST_RESU(RESU=(_F(NUME_ORDRE=1,
                   PARA='FREQ',
                   REFERENCE='SOURCE_EXTERNE',
                   RESULTAT=lmod2_5,
                   VALE_CALC=195.184816055,
                   VALE_REFE=199.9200000000001,
                   CRITERE='RELATIF',
                   PRECISION=3.E-2,),
                _F(NUME_ORDRE=2,
                   PARA='FREQ',
                   REFERENCE='SOURCE_EXTERNE',
                   RESULTAT=lmod2_5,
                   VALE_CALC=1304.20015843,
                   VALE_REFE=1305.4000000000001,
                   CRITERE='RELATIF',
                   PRECISION=1.E-2,),
                _F(NUME_ORDRE=3,
                   PARA='FREQ',
                   REFERENCE='SOURCE_EXTERNE',
                   RESULTAT=lmod2_5,
                   VALE_CALC=1667.62792473,
                   VALE_REFE=1666.30000000000001,
                   CRITERE='RELATIF',
                   PRECISION=1.E-2,),
                _F(NUME_ORDRE=4,
                   PARA='FREQ',
                   REFERENCE='SOURCE_EXTERNE',
                   RESULTAT=lmod2_5,
                   VALE_CALC=2024.16736910,
                   VALE_REFE=2023.00000000000001,
                   CRITERE='RELATIF',
                   PRECISION=1.E-2,),
                _F(NUME_ORDRE=5,
                   PARA='FREQ',
                   REFERENCE='SOURCE_EXTERNE',
                   RESULTAT=lmod2_5,
                   VALE_CALC=3005.12119314,
                   VALE_REFE=3004.3000000000001,
                   CRITERE='RELATIF',
                   PRECISION=1.E-2,
                   ),
                _F(NUME_ORDRE=6,
                   PARA='FREQ',
                   REFERENCE='SOURCE_EXTERNE',
                   RESULTAT=lmod2_5,
                   VALE_CALC=3118.83586393,
                   VALE_REFE=3114.1000000000001,
                   CRITERE='RELATIF',
                   PRECISION=1.E-2,
                   ),
                _F(NUME_ORDRE=7,
                   PARA='FREQ',
                   REFERENCE='SOURCE_EXTERNE',
                   RESULTAT=lmod2_5,
                   VALE_CALC=4161.67011595,
                   VALE_REFE=4161.7000000000001,
                   CRITERE='RELATIF',
                   PRECISION=1.E-2,
                   ),
                _F(NUME_ORDRE=8,
                   PARA='FREQ',
                   REFERENCE='SOURCE_EXTERNE',
                   RESULTAT=lmod2_5,
                   VALE_CALC=4306.321493064,
                   VALE_REFE=4288.4000000000001,
                   CRITERE='RELATIF',
                   PRECISION=1.E-2,
                   ),
                _F(NUME_ORDRE=9,
                   PARA='FREQ',
                   REFERENCE='SOURCE_EXTERNE',
                   RESULTAT=lmod2_5,
                   VALE_CALC=4959.50348822,
                   VALE_REFE=4949.1000000000001,
                   CRITERE='RELATIF',
                   PRECISION=1.E-2,
                   ),
                _F(NUME_ORDRE=10,
                   PARA='FREQ',
                   REFERENCE='SOURCE_EXTERNE',
                   RESULTAT=lmod2_5,
                   VALE_CALC=7570.68582990,
                   VALE_REFE=7552.7000000000001,
                   CRITERE='RELATIF',
                   PRECISION=1.E-2,
                   ),
                _F(NUME_ORDRE=11,
                   PARA='FREQ',
                   REFERENCE='SOURCE_EXTERNE',
                   RESULTAT=lmod2_5,
                   VALE_CALC=7751.37930706,
                   VALE_REFE=7724.5000000000001,
                   CRITERE='RELATIF',
                   PRECISION=1.E-2,
                   ),
                ),
          )

FIN()   
