# ======================================================================
# TITRE IMPACT POUTRE AVEC ELEMENTS 3D SUR PLAN RIGIDE
# COPYRIGHT (C) 1991 - 2013  EDF R&D                WWW.CODE-ASTER.ORG
#
# THIS PROGRAM IS FREE SOFTWARE; YOU CAN REDISTRIBUTE IT AND/OR MODIFY
# IT UNDER THE TERMS OF THE GNU GENERAL PUBLIC LICENSE AS PUBLISHED BY
# THE FREE SOFTWARE FOUNDATION; EITHER VERSION 2 OF THE LICENSE, OR
# (AT YOUR OPTION) ANY LATER VERSION.
#
# THIS PROGRAM IS DISTRIBUTED IN THE HOPE THAT IT WILL BE USEFUL, BUT
# WITHOUT ANY WARRANTY; WITHOUT EVEN THE IMPLIED WARRANTY OF
# MERCHANTABILITY OR FITNESS FOR A PARTICULAR PURPOSE. SEE THE GNU
# GENERAL PUBLIC LICENSE FOR MORE DETAILS.
#
# YOU SHOULD HAVE RECEIVED A COPY OF THE GNU GENERAL PUBLIC LICENSE
# ALONG WITH THIS PROGRAM; IF NOT, WRITE TO EDF R&D CODE_ASTER,
# 1 AVENUE DU GENERAL DE GAULLE, 92141 CLAMART CEDEX, FRANCE.
#
# ======================================================================
# ======================================================================
#CAS_TEST__: SDNV100A
# METHODE DE CONTACT : PENALISATION

DEBUT(CODE=_F(NOM='SDNV100A',NIV_PUB_WEB='INTERNET'),DEBUG=_F(SDVERI='OUI'))

MAILL=LIRE_MAILLAGE(FORMAT='MED', )

MAILL=DEFI_GROUP( reuse=MAILL,
                       MAILLAGE=MAILL,CREA_GROUP_NO=(
                       _F(  GROUP_MA = 'VSOL',   ),
                       _F(  GROUP_MA = 'POUTRE', ),
                      )
                    )

MODE=AFFE_MODELE(
            MAILLAGE=MAILL,
            VERIF='MAILLE',
            AFFE=(
           _F(   TOUT = 'OUI',
                 PHENOMENE = 'MECANIQUE',MODELISATION = '3D',),
                 ),
           )

MAILL=MODI_MAILLAGE( reuse=MAILL,   MAILLAGE=MAILL,
                          ORIE_PEAU_3D=_F(  GROUP_MA = ('SSOL', 'FACEINF',), )
                        )

ACIER=DEFI_MATERIAU(
                ELAS=_F( E = 2.E11, NU = 0.,  RHO = 8000.)
                        )

ACONTA=DEFI_MATERIAU(
                      ELAS=_F(
                               E   = 1.E16,
                               NU  = 0.0  ,
                               RHO = 0.0  ,
                             )
           )

CM=AFFE_MATERIAU(
            MAILLAGE=MAILL,AFFE=(
           _F( GROUP_MA = 'POUTRE',  MATER = ACIER ),
           _F( GROUP_MA = 'VSOL'  ,  MATER = ACONTA),
                                )
                 )

CH=AFFE_CHAR_MECA(
            MODELE=MODE,DDL_IMPO=(
           _F(  TOUT = 'OUI', DX = 0., DY = 0.),
           _F(  GROUP_NO = 'VSOL',  DX = 0., DY = 0., DZ = 0.),
                                 )
           )

F_DIST_E=DEFI_CONSTANTE(VALE=0.)


CH2     = DEFI_CONTACT(MODELE         = MODE,
                       FORMULATION    = 'DISCRETE',
                       REAC_GEOM      = 'CONTROLE',
                       NB_ITER_GEOM   = 2,
                       FROTTEMENT     = 'COULOMB',

                       ZONE =_F(
                             ALGO_CONT      = 'PENALISATION',
                             ALGO_FROT      = 'PENALISATION',
                             COULOMB        = 0.,
                             E_N            = 1.E10,
                             E_T            = 1.E16,
                             GROUP_MA_ESCL  = 'FACEINF',
                             GROUP_MA_MAIT  = 'SSOL',
                             DIST_ESCL      = F_DIST_E,
                               ),
                      );


# ************* CHAMP DE VITESSE INITIALE ***************

CHAMP1=CREA_CHAMP( OPERATION='AFFE', TYPE_CHAM='NOEU_DEPL_R',
MAILLAGE=MAILL,AFFE=(
           _F( GROUP_NO = 'POUTRE',   NOM_CMP = ('DX', 'DY', 'DZ',),
                                     VALE = (  0.0,  0.0,  -100.,)),
           _F( GROUP_NO = 'VSOL',     NOM_CMP = ('DX', 'DY', 'DZ',),
                                     VALE = (  0.0,  0.0,  0., )))
                        )

# ************* CHAMP DE DEPLACEMENT INITIAL ************


CHAMP2=CREA_CHAMP( OPERATION='AFFE', TYPE_CHAM='NOEU_DEPL_R',
MAILLAGE=MAILL,AFFE=(
           _F( GROUP_NO = 'POUTRE',   NOM_CMP = ('DX', 'DY', 'DZ',),
                                     VALE = (  0.0,  0.0,  0.0, )),
           _F( GROUP_NO = 'VSOL',     NOM_CMP = ('DX', 'DY', 'DZ',),
                                     VALE = (  0.0,  0.0,  0.0, )))
                    )

RAMPE=DEFI_FONCTION(   NOM_PARA='INST',
            PROL_GAUCHE='CONSTANT',   PROL_DROITE='CONSTANT',
            VALE=(0.0,        1.0,
                  0.0001,     1.0,
                  0.00010001, 0.0,) )
#
DT=2.E-6

L_INST=DEFI_LIST_REEL(   DEBUT=0.,
             INTERVALLE=_F( JUSQU_A = 0.00014,  PAS = DT))
#
L_CONT=DEFI_LIST_REEL(   DEBUT=2.E-5,
             INTERVALLE=_F( JUSQU_A = 10.E-5,  PAS = DT))
#
ALF=0.28
#
DEL=0.55
#
U=DYNA_NON_LINE(  SOLVEUR=_F(SYME='OUI',),
                  MODELE=MODE,  CHAM_MATER=CM,
                  ENERGIE=_F(),
           EXCIT=(_F( CHARGE = CH,
                      FONC_MULT = RAMPE
                    ),
                 ),
           CONTACT     = CH2,
           ETAT_INIT   =_F(DEPL = CHAMP2,VITE = CHAMP1),
           COMP_ELAS   =_F( RELATION = 'ELAS',),
           INCREMENT   =_F( INST_INIT = 0.,LIST_INST = L_INST),
           SCHEMA_TEMPS=_F(SCHEMA='NEWMARK',FORMULATION='DEPLACEMENT',
                           BETA = ALF, GAMMA = DEL),
           NEWTON      =_F( MATRICE = 'TANGENTE',  REAC_ITER = 1),
           CONVERGENCE =_F(ITER_GLOB_MAXI = 20),
           INFO = 1,
           )

ENER=RECU_TABLE(CO=U,NOM_TABLE='PARA_CALC',);

IMPR_TABLE(TABLE=ENER);

TEST_TABLE(
           VALE_CALC=-265.61970899411,
           NOM_PARA='ENER_CIN',
           TABLE=ENER,
           FILTRE=_F(NOM_PARA='INST',
                     VALE=1.3999999999999999E-4,),
           )

TEST_TABLE(
           VALE_CALC=12.150682708322,
           NOM_PARA='ENER_TOT',
           TABLE=ENER,
           FILTRE=_F(NOM_PARA='INST',
                     VALE=1.3999999999999999E-4,),
           )

TEST_TABLE(
           VALE_CALC=0.0,
           NOM_PARA='TRAV_AMOR',
           TABLE=ENER,
           FILTRE=_F(NOM_PARA='INST',
                     VALE=1.3999999999999999E-4,),
           )

TEST_TABLE(
           VALE_CALC=-0.59234613044326001,
           NOM_PARA='TRAV_LIAI',
           TABLE=ENER,
           FILTRE=_F(NOM_PARA='INST',
                     VALE=1.3999999999999999E-4,),
           )

TEST_TABLE(
           VALE_CALC=254.06137241623,
           NOM_PARA='DISS_SCH',
           TABLE=ENER,
           FILTRE=_F(NOM_PARA='INST',
                     VALE=1.3999999999999999E-4,),
           )

#############
############# CONTRAINTES SIEF_ELGA OBTENUES DU RESULTAT
#############
#

VITECONT=RECU_FONCTION(RESULTAT=U,
                     NOM_CHAM='VITE',
                     NOM_CMP='DZ',
                     NOEUD='N5',
                     LIST_INST=L_CONT,
                     TITRE='VITE',);

VC=CALC_FONCTION(COMB=_F(FONCTION=VITECONT,
                           COEF=12500.,));

MVC=CALC_FONCTION(INTEGRE=_F(FONCTION=VC,));


EPOTPS=POST_ELEM(
                 ENER_POT=_F(TOUT='OUI',),
                 RESULTAT=U,
                 )

IMPR_TABLE(TABLE=EPOTPS);

ECITPS=POST_ELEM(
                 ENER_CIN=_F(TOUT='OUI',),
                 RESULTAT=U,
                 )

IMPR_TABLE(TABLE=ECITPS);


DE100=RECU_FONCTION(RESULTAT=U,
                     NOM_CHAM='DEPL',
                     NOM_CMP='DZ',
                     NOEUD='N100',
                     TITRE='DEPL',);
VI100=RECU_FONCTION(RESULTAT=U,
                     NOM_CHAM='VITE',
                     NOM_CMP='DZ',
                     NOEUD='N100',
                     TITRE='VITE',);
DE5=RECU_FONCTION(RESULTAT=U,
                     NOM_CHAM='DEPL',
                     NOM_CMP='DZ',
                     NOEUD='N5',
                     TITRE='DEPL',);
VI5=RECU_FONCTION(RESULTAT=U,
                     NOM_CHAM='VITE',
                     NOM_CMP='DZ',
                     NOEUD='N5',
                     TITRE='VITE',);

TEST_RESU(RESU=_F(NUME_ORDRE=20,
                  REFERENCE='ANALYTIQUE',
                  RESULTAT=U,
                  NOM_CHAM='DEPL',
                  NOEUD='N5',
                  NOM_CMP='DZ',
                  VALE_CALC=-2.02899518E-03,
                  VALE_REFE=-2.E-3,
                  PRECISION=0.02,),
          )

TEST_RESU(RESU=_F(NUME_ORDRE=20,
                  REFERENCE='ANALYTIQUE',
                  RESULTAT=U,
                  NOM_CHAM='DEPL',
                  NOEUD='N100',
                  NOM_CMP='DZ',
                  VALE_CALC=-3.99999998E-03,
                  VALE_REFE=-4.0000000000000001E-3,
                  PRECISION=1.E-3,),
          )

TEST_RESU(RESU=_F(NUME_ORDRE=40,
                  REFERENCE='ANALYTIQUE',
                  RESULTAT=U,
                  NOM_CHAM='DEPL',
                  NOEUD='N100',
                  NOM_CMP='DZ',
                  VALE_CALC=-4.07373647E-03,
                  VALE_REFE=-4.0000000000000001E-3,
                  PRECISION=0.02,),
          )

TEST_RESU(RESU=_F(NUME_ORDRE=50,
                  REFERENCE='ANALYTIQUE',
                  RESULTAT=U,
                  NOM_CHAM='DEPL',
                  NOEUD='N5',
                  NOM_CMP='DZ',
                  VALE_CALC=-2.01353186E-03,
                  VALE_REFE=-2.E-3,
                  PRECISION=1.E-2,),
          )

TEST_RESU(RESU=_F(NUME_ORDRE=60,
                  REFERENCE='ANALYTIQUE',
                  RESULTAT=U,
                  NOM_CHAM='DEPL',
                  NOEUD='N100',
                  NOM_CMP='DZ',
                  VALE_CALC=-7.98601165E-05,
                  VALE_REFE=0.0,
                  CRITERE='ABSOLU',
                  PRECISION=1.E-3,),
          )

#

TEST_RESU(RESU=_F(NUME_ORDRE=20,
                  REFERENCE='ANALYTIQUE',
                  RESULTAT=U,
                  NOM_CHAM='VITE',
                  NOEUD='N5',
                  NOM_CMP='DZ',
                  VALE_CALC=2.198925963,
                  VALE_REFE=0.0,
                  CRITERE='ABSOLU',
                  PRECISION=3.0,),
          )

TEST_RESU(RESU=_F(NUME_ORDRE=20,
                  REFERENCE='ANALYTIQUE',
                  RESULTAT=U,
                  NOM_CHAM='VITE',
                  NOEUD='N100',
                  NOM_CMP='DZ',
                  VALE_CALC=-99.999984595,
                  VALE_REFE=-100.0,
                  PRECISION=1.E-3,),
          )

TEST_RESU(RESU=_F(NUME_ORDRE=40,
                  REFERENCE='ANALYTIQUE',
                  RESULTAT=U,
                  NOM_CHAM='VITE',
                  NOEUD='N100',
                  NOM_CMP='DZ',
                  VALE_CALC=95.057627743,
                  VALE_REFE=100.0,
                  PRECISION=0.050000000000000003,),
          )

TEST_RESU(RESU=_F(NUME_ORDRE=50,
                  REFERENCE='ANALYTIQUE',
                  RESULTAT=U,
                  NOM_CHAM='VITE',
                  NOEUD='N5',
                  NOM_CMP='DZ',
                  VALE_CALC=5.214660160,
                  VALE_REFE=0.0,
                  CRITERE='ABSOLU',
                  PRECISION=6.0,),
          )

TEST_RESU(RESU=_F(NUME_ORDRE=60,
                  REFERENCE='ANALYTIQUE',
                  RESULTAT=U,
                  NOM_CHAM='VITE',
                  NOEUD='N100',
                  NOM_CMP='DZ',
                  VALE_CALC=100.330226086,
                  VALE_REFE=100.0,
                  PRECISION=1.E-2,),
          )

TEST_RESU(RESU=_F(NUME_ORDRE=60,
                  REFERENCE='ANALYTIQUE',
                  RESULTAT=U,
                  NOM_CHAM='VITE',
                  NOEUD='N5',
                  NOM_CMP='DZ',
                  VALE_CALC=104.313139260,
                  VALE_REFE=100.0,
                  PRECISION=0.050000000000000003,),
          )

TEST_RESU(RESU=_F(NUME_ORDRE=65,
                  REFERENCE='ANALYTIQUE',
                  RESULTAT=U,
                  NOM_CHAM='VITE',
                  NOEUD='N5',
                  NOM_CMP='DZ',
                  VALE_CALC=103.637815351,
                  VALE_REFE=100.0,
                  PRECISION=0.050000000000000003,),
          )

TEST_FONCTION(VALEUR=_F(VALE_CALC=-0.16840244462,
                        VALE_REFE=0.0,
                        CRITERE='ABSOLU',
                        VALE_PARA=1.E-4,
                        REFERENCE='ANALYTIQUE',
                        PRECISION=0.20000000000000001,
                        NOM_PARA='INST',
                        FONCTION=MVC,),
              )

#Non Regression

TEST_RESU(RESU=(_F(NUME_ORDRE=20,
                   RESULTAT=U,
                   NOM_CHAM='DEPL',
                   NOEUD='N5',
                   NOM_CMP='DZ',
                   VALE_CALC=-2.029E-3,
                   TOLE_MACHINE=1.E-3,
                   ),
                _F(NUME_ORDRE=40,
                   RESULTAT=U,
                   NOM_CHAM='DEPL',
                   NOEUD='N100',
                   NOM_CMP='DZ',
                   VALE_CALC=-4.0740000000000004E-3,
                   TOLE_MACHINE=1.E-3,
                   ),
                _F(NUME_ORDRE=40,
                   RESULTAT=U,
                   NOM_CHAM='VITE',
                   NOEUD='N100',
                   NOM_CMP='DZ',
                   VALE_CALC=95.060000000000002,
                   TOLE_MACHINE=1.E-3,
                   ),
                _F(NUME_ORDRE=60,
                   RESULTAT=U,
                   NOM_CHAM='VITE',
                   NOEUD='N5',
                   NOM_CMP='DZ',
                   VALE_CALC=104.31,
                   TOLE_MACHINE=1.E-3,
                   ),
                _F(NUME_ORDRE=65,
                   RESULTAT=U,
                   NOM_CHAM='VITE',
                   NOEUD='N5',
                   NOM_CMP='DZ',
                   VALE_CALC=103.64,
                   TOLE_MACHINE=1.E-3,
                   ),
                ),
          )

#
# Test de l energie cinetique
#

TEST_TABLE(REFERENCE='ANALYTIQUE',
           PRECISION=1.E-4,
           VALE_CALC= 3.20000000E+03,
           VALE_REFE=3200.0,
           NOM_PARA='TOTALE',
           TABLE=ECITPS,
           FILTRE=(_F(NOM_PARA='LIEU',
                      VALE_K='MAILL',),
                   _F(NOM_PARA='NUME_ORDRE',
                      VALE_I=1,),
                   ),
           )

TEST_TABLE(
           VALE_CALC=2934.3800000000001,
           TOLE_MACHINE=1.E-4,
           NOM_PARA='TOTALE',
           TABLE=ECITPS,
           FILTRE=(_F(NOM_PARA='LIEU',
                      VALE_K='MAILL',),
                   _F(NOM_PARA='NUME_ORDRE',
                      VALE_I=70,),
                   ),
           )

FIN();
