# TITRE VALIDATION DECOLLEMENT PAR CALCUL LINEAIRE ITERATIF+CONDENSATION
# ======================================================================
# COPYRIGHT (C) 1991 - 2012  EDF R&D                  WWW.CODE-ASTER.ORG
# THIS PROGRAM IS FREE SOFTWARE; YOU CAN REDISTRIBUTE IT AND/OR MODIFY
# IT UNDER THE TERMS OF THE GNU GENERAL PUBLIC LICENSE AS PUBLISHED BY
# THE FREE SOFTWARE FOUNDATION; EITHER VERSION 2 OF THE LICENSE, OR
# (AT YOUR OPTION) ANY LATER VERSION.
#
# THIS PROGRAM IS DISTRIBUTED IN THE HOPE THAT IT WILL BE USEFUL, BUT
# WITHOUT ANY WARRANTY; WITHOUT EVEN THE IMPLIED WARRANTY OF
# MERCHANTABILITY OR FITNESS FOR A PARTICULAR PURPOSE. SEE THE GNU
# GENERAL PUBLIC LICENSE FOR MORE DETAILS.
#
# YOU SHOULD HAVE RECEIVED A COPY OF THE GNU GENERAL PUBLIC LICENSE
# ALONG WITH THIS PROGRAM; IF NOT, WRITE TO EDF R&D CODE_ASTER,
#    1 AVENUE DU GENERAL DE GAULLE, 92141 CLAMART CEDEX, FRANCE.
# ======================================================================

# Pour des raisons de performances, on force SDVERI='NON'. 
DEBUT(   CODE=_F(NIV_PUB_WEB='INTERNET'),DEBUG=_F(SDVERI='NON'));

MAIL0=LIRE_MAILLAGE(FORMAT='MED',);
MAIL = CREA_MAILLAGE(MAILLAGE=MAIL0,
                  CREA_POI1 =_F(NOM_GROUP_MA = 'PSI0',GROUP_NO = ('PSI0'),),);

#
# ----------------------------------------------------------------------
# DEFINITIONS DU MODELE ET DES GROUPE DE MAILLES
# ----------------------------------------------------------------------
#
#
#
#-----------------------------------------------------------------------
#               AFFECTATION DES ELEMENTS FINIS AU MODELE
#-----------------------------------------------------------------------
#

MODELE=AFFE_MODELE(MAILLAGE=MAIL,
                   AFFE=(_F(GROUP_MA=('SRADIER','ST_B_PRE',),
                            PHENOMENE='MECANIQUE',
                            MODELISATION='DKT',),
                         _F(GROUP_MA='LIGRAD',
                            PHENOMENE='MECANIQUE',
                            MODELISATION='DIS_T',),),);

MODELE1=AFFE_MODELE(MAILLAGE=MAIL,
                   AFFE=(_F(GROUP_MA=('SRADIER','ST_B_PRE',),
                            PHENOMENE='MECANIQUE',
                            MODELISATION='DKT',),
                         _F(GROUP_MA='PSI0',
                            PHENOMENE='MECANIQUE',
                            MODELISATION='DIS_TR',),),
                    );

#

FO1=DEFI_FONCTION(NOM_PARA='INST',
                  VALE=(-1.0,0.0,100.0,0.0,),);
#
# -------------------------------------------------------------------
# DEFINITION DES MATERIAUX
# -------------------------------------------------------------------
#
#
#----- BETON ARME -----

BETARM=DEFI_MATERIAU(ELAS=_F(E=4.0E10,
                             NU=0.31,
                             RHO=3000.0,
                             AMOR_ALPHA=0., AMOR_BETA=0.,
                             ),
                    );
#
#----- BETON PRECONTRAINT -----

BETPRE=DEFI_MATERIAU(ELAS=_F(E=40000000000.0,
                             NU=0.31,
                             RHO=2500.0,
                             AMOR_ALPHA=0., AMOR_BETA=0.,
                             ),
                     );

#
#----- MATERIAU CHOC -----

MAT_C=DEFI_MATERIAU(DIS_CONTACT=_F(RIGI_NOR=1.E+15,
                                   DIST_1 = 1.E-6,
                                   DIST_2 = 1.E-6),);
#
#-----------------------------------------------------------------------
#              AFFECTATION DES MATERIAUX AUX ELEMENTS
#-----------------------------------------------------------------------

CHMAT=AFFE_MATERIAU(MAILLAGE=MAIL,
                      AFFE=(_F(GROUP_MA='ST_B_PRE',
                               MATER=BETPRE,),
                            _F(GROUP_MA='SRADIER',
                               MATER=BETARM,),
                            _F(GROUP_MA='LIGRAD',
                               MATER=MAT_C,),),);
#
# -------------------------------------------------------------------
# DEFINITION DES CARACTERISTIQUES DES ELEMENTS
# -------------------------------------------------------------------
#
#
#-----------------------------------------------------------------------
#             AFFECTATION DES ELEMENTS-FINIS SUR LE MODELE
#-----------------------------------------------------------------------

ELEM=AFFE_CARA_ELEM(MODELE=MODELE,
                    COQUE=(_F(GROUP_MA=('SRADIER',),
                              EPAIS=6.1,),
                           _F(GROUP_MA=('ST_B_PRE',),
                              EPAIS=1.4,),),
                    DISCRET=(
                             _F(GROUP_MA='LIGRAD',
                                CARA='K_T_D_L',
                                VALE=(1e+15,1e+15,1e+15,),),
                             _F(GROUP_MA='LIGRAD',
                                REPERE='GLOBAL',
                                CARA='M_T_L',
                                VALE=
                                (0.01,0.0,0.01,0.0,0.0,0.01,0.00,0.0,0.0,0.01,
                                 0.0,0.00,0.0,0.0,0.01,0.0,0.0,0.0,0.0,0.0,0.01,
                                 ),
                               ),
                             ),
                        );

ELEM1=AFFE_CARA_ELEM(MODELE=MODELE1,
                    COQUE=(_F(GROUP_MA=('SRADIER',),
                              EPAIS=6.0,),
                           _F(GROUP_MA=('ST_B_PRE',),
                              EPAIS=1.5,),),
                    DISCRET=(
                             _F(GROUP_MA='PSI0',
                                CARA='K_TR_D_N',
                                VALE=(0.,0.,0.,0.,0.,0.,),),
                             _F(GROUP_MA='PSI0',
                                CARA='A_TR_D_N',
                                VALE=(0.,0.,0.,0.,0.,0.,),),
                             _F(GROUP_MA='PSI0',
                                CARA='M_TR_D_N',
                                VALE=(0.,0.,0.,0.,0.,0.,0.,0.,0.,0.),))
                        );

#
# LA STRUCTURE EST ENCASTREE A L INTERFACE
#-----------------------------------------
COND_LIM=AFFE_CHAR_MECA(MODELE=MODELE,
                        DDL_IMPO=(_F(GROUP_NO='BRADIER',
                                     DX=0.0,DY=0.0,DZ=0.0,),
                                     ),);

COND_LI1=AFFE_CHAR_MECA(MODELE=MODELE1,
                        DDL_IMPO=(_F(GROUP_NO='PSI0',
                                     DX=0.0,DY=0.0,DZ=0.0,
                                     DRX=0.0,DRY=0.0,DRZ=0.0,),
                                  ),
                        LIAISON_SOLIDE=(
                                        _F(GROUP_NO='SRADIER',),
                                        ),
                        );

# ----------------------------------------------------------------------
#---------------------------------------------
#
#  CALCUL DYNAMIQUE
#
#---------------------------------------------
#
#----------------------------------------
# CONSTITUTION ET ASSEMBLAGE DES MATRICES
# DE MASSE ET DE RAIDEUR
#----------------------------------------
#
#
MELR=CALC_MATR_ELEM(OPTION='RIGI_MECA',
                    MODELE=MODELE,
                    CHAM_MATER=CHMAT,
                    CARA_ELEM=ELEM,
                    CHARGE=(COND_LIM),
                    );

MELM=CALC_MATR_ELEM(OPTION='MASS_MECA',
                    MODELE=MODELE,
                    CHAM_MATER=CHMAT,
                    CARA_ELEM=ELEM,
                    CHARGE=(COND_LIM),
                    );


NUM=NUME_DDL(MATR_RIGI=MELR,
             );


MATR=ASSE_MATRICE(MATR_ELEM=MELR,
                  NUME_DDL=NUM,);
   #
   #


MATM=ASSE_MATRICE(MATR_ELEM=MELM,
                  NUME_DDL=NUM,);

   #
   #
   #-----------------------------------------
   #      CALCUL DES MASSES
   #-----------------------------------------
   #
   #


MASSES=POST_ELEM(MODELE=MODELE,
                 CHAM_MATER=CHMAT,
                 CARA_ELEM=ELEM,
                 INFO=1,
                 MASS_INER=_F(TOUT='OUI',),);
   #
   #------------------------------------------------
   #  CALCUL DES MODES DYNAMIQUES SUR BASE ENCASTREE
   #------------------------------------------------
   #

MOD_DYN=CALC_MODES(MATR_RIGI=MATR,
                   OPTION='BANDE',
                   CALC_FREQ=_F(FREQ=(0.1,10.0,),
                                ),
                   MATR_MASS=MATM,
                   )
#
# CALCUL DU MACRO-ELEMENT DYNAMIQUE :
#---------------------------------------------

INTERDYN=DEFI_INTERF_DYNA(  NUME_DDL=NUM,
            INTERFACE=_F( NOM = 'DROITE',
                       TYPE = 'CRAIGB',
                       GROUP_NO = ('BRADIER',))
           );

BAMO=DEFI_BASE_MODALE(   CLASSIQUE=_F( INTERF_DYNA = INTERDYN,
                                      MODE_MECA = MOD_DYN,
                                      NMAX_MODE = 20)
       );

MAEL=MACR_ELEM_DYNA(  BASE_MODALE=BAMO,
                   );

#
# TRAITEMENT DE MISS3D PAR EXEC_LOGICIEL
#---------------------------------------
TABSOL =  DEFI_SOL_MISS(
    TITRE="SOL HOMOGENE",
    MATERIAU=(
        _F(E=28.E+08,  NU=0.4, RHO=2.1e3, AMOR_HYST=0.10),
        _F(E=28.E+08,  NU=0.4, RHO=2.1e3, AMOR_HYST=0.10),
    ),
    COUCHE=(
        _F(EPAIS=25., NUME_MATE=1, RECEPTEUR="OUI", SOURCE="OUI"),
        _F(SUBSTRATUM="OUI", NUME_MATE=2,),
    ),
    INFO=2,
)

CALC_MISS(
    TYPE_RESU='FICHIER',
    TABLE_SOL=TABSOL,
    MACR_ELEM_DYNA=MAEL,
    AMOR_REDUIT=(0.07,),
    GROUP_MA_INTERF='SRADIE2',

    UNITE_IMPR_ASTER=26,
    UNITE_RESU_IMPE=25,
    VERSION='V6.6',
    PARAMETRE=_F(
        FREQ_MIN=2.5,
        FREQ_MAX=3.5,
        FREQ_PAS=0.5,
        Z0= -11.60,
        DREF=30.,
        SURF='OUI',
        ALGO = 'DEPL',
        OFFSET_MAX=60,
        OFFSET_NB=300,
    ),
)


DEFI_FICHIER(ACTION='LIBERER',UNITE=25,);

MODSTA=MODE_STATIQUE(MATR_RIGI=MATR,
                     MATR_MASS=MATM,
                     MODE_STAT=_F(GROUP_NO='BRADIER',
                                  TOUT_CMP='OUI',
                                  ),
                     );

BAMO2=DEFI_BASE_MODALE(RITZ=(_F(MODE_MECA=MOD_DYN,
                                NMAX_MODE=0,),
                             _F(MODE_INTF=MODSTA,),),
                       INTERF_DYNA=INTERDYN,
                       NUME_REF=NUM,);

NDDLGE2 = NUME_DDL_GENE( BASE= BAMO2, STOCKAGE= 'PLEIN',);

MATI = LIRE_IMPE_MISS(UNITE_RESU_IMPE=25, FREQ_EXTR=3.0,
                      BASE=BAMO2, NUME_DDL_GENE=NDDLGE2);

MAEL2=MACR_ELEM_DYNA(  BASE_MODALE=BAMO2,
                       MATR_IMPE = MATI,
                       FREQ_EXTR=3.0,
                       AMOR_SOL=0.05,
                       );

CHPE11=AFFE_CHAR_MECA(MODELE=MODELE1,
                      PESANTEUR= _F(GRAVITE=9.81,
                                    DIRECTION=(0.,0.,-1.,),),);

CHPE12=AFFE_CHAR_MECA(MODELE=MODELE1,
                      PESANTEUR= _F(GRAVITE=1.0,
                                    DIRECTION=(-1.0,0.0,0.0,),),);

ASSEMBLAGE(MODELE=MODELE1,
                CHAM_MATER=CHMAT,
                CARA_ELEM=ELEM1,
                CHARGE=(COND_LI1),
                NUME_DDL=CO('NUME1'),
                MATR_ASSE=(_F(MATRICE=CO('MATR1'),
                              OPTION='RIGI_MECA',),
                           _F(MATRICE=CO('MATM1'),
                              OPTION='MASS_MECA',),
                           _F(MATRICE=CO('MATA1'),
                              OPTION='AMOR_MECA',),),
                VECT_ASSE=(_F(VECTEUR=CO("VECAS1"),
                              OPTION='CHAR_MECA',
                              CHARGE=CHPE11),
                           _F(VECTEUR=CO("VECAS2"),
                              OPTION='CHAR_MECA',
                              CHARGE=CHPE12),),);



# MODE1=CALC_MODES(  MATR_RIGI=MATR1,   MATR_MASS=MATM1,
#                            CALC_FREQ=_F(
#                                         NMAX_FREQ=120,
#                                        ),
#                            VERI_MODE=_F(  STOP_ERREUR='NON')
#                          );
MODE1=CALC_MODES(MATR_RIGI=MATR1,
                 OPTION='BANDE',
                 CALC_FREQ=_F(FREQ=(3.,20.,31.,41.,),
                              ),
                 MATR_MASS=MATM1,
                 )

MODSTA1=MODE_STATIQUE(MATR_RIGI=MATR1,
                      MATR_MASS=MATM1,
                      MODE_STAT=_F(GROUP_NO='PSI0',
                                   # AVEC_CMP=('DX','DY','DZ'),
                                   TOUT_CMP='OUI',
                                   ),
                                  );

INTERDY1=DEFI_INTERF_DYNA(  NUME_DDL=NUME1,
            INTERFACE=_F( NOM = 'DROITE',
                       TYPE = 'CRAIGB',
                       GROUP_NO = ('PSI0',))
           );

BAMO1=DEFI_BASE_MODALE(RITZ=(_F(MODE_MECA=MODE1,
                                NMAX_MODE=120,),
                             _F(MODE_INTF=MODSTA1,
                                NMAX_MODE=1999,),
                             ),
                       INTERF_DYNA=INTERDY1,
                       NUME_REF=NUME1,);


NDDLGE1 = NUME_DDL_GENE( BASE= BAMO1, STOCKAGE= 'PLEIN',);

VECGE1=PROJ_VECT_BASE(  BASE=BAMO1,  NUME_DDL_GENE=NDDLGE1,
                            VECT_ASSE=VECAS1 );

VECGE2=PROJ_VECT_BASE(  BASE=BAMO1,  NUME_DDL_GENE=NDDLGE1,
                            VECT_ASSE=VECAS2 );

MAEL1=MACR_ELEM_DYNA(  BASE_MODALE=BAMO1,
                       MATR_RIGI=MATR1,
                       MATR_MASS=MATM1,
                       MATR_AMOR=MATA1,
                       SANS_GROUP_NO='SRADIER',
                       CAS_CHARGE=(
                                 _F(NOM_CAS='CHP1',
                                    VECT_ASSE_GENE=VECGE1,),
                                 _F(NOM_CAS='CHP2',
                                    VECT_ASSE_GENE=VECGE2,),
                                   ),
                     );

IMPR_CO(CHAINE='MAEL1   .LINO');
IMPR_CO(CHAINE='MAEL2   .LINO');

MAYADYN=DEFI_MAILLAGE(DEFI_SUPER_MAILLE=(
                          _F(MACR_ELEM=MAEL1,
                             SUPER_MAILLE='STAT1',),
                          _F(MACR_ELEM=MAEL2,
                             SUPER_MAILLE='STAT2',),
                                         ),
                      RECO_GLOBAL=_F(TOUT='OUI',),
                      DEFI_NOEUD=_F(TOUT='OUI',
                                     INDEX=(1,0,1,8,),),);

MAILB=ASSE_MAILLAGE(MAILLAGE_1=MAIL,
                    MAILLAGE_2=MAYADYN,
                    OPERATION='SOUS_STR',);


CHMATB=AFFE_MATERIAU(MAILLAGE=MAILB,
                     AFFE=(_F(GROUP_MA='LIGRAD',
                              MATER=MAT_C,),
                           _F(GROUP_MA='PSI0',
                              MATER=BETARM,),
                           ),
                     );

MODELB=AFFE_MODELE(MAILLAGE=MAILB,
                   AFFE_SOUS_STRUC=_F(SUPER_MAILLE=('STAT1','STAT2',),
                                      PHENOMENE='MECANIQUE',),
                   AFFE=(_F(GROUP_MA='LIGRAD',
                           PHENOMENE='MECANIQUE',
                           MODELISATION='DIS_T',),
                         _F(GROUP_MA='PSI0',
                           PHENOMENE='MECANIQUE',
                           MODELISATION='DIS_TR',),
                        ),
                  );
#
# ----------------------------------------------------------------------
# AFFECTATION DES CARACTERISTIQUES ELEMENTAIRES RIGI_MISS_3D
ELEMB=AFFE_CARA_ELEM(MODELE=MODELB,
                    DISCRET=(
                             _F(GROUP_MA='PSI0',
                                CARA='K_TR_D_N',
                                VALE=(0.,0.,0.,0.,0.,0.,),),
                             _F(GROUP_MA='PSI0',
                                CARA='A_TR_D_N',
                                VALE=(0.,0.,0.,0.,0.,0.,),),
                             _F(GROUP_MA='PSI0',
                                CARA='M_TR_D_N',
                                VALE=(0.,0.,0.,0.,0.,0.,0.,0.,0.,0.),),
                             _F(GROUP_MA='LIGRAD',
                                CARA='K_T_D_L',
                                VALE=(1e+15,1e+15,1e+15,),),
                             _F(GROUP_MA='LIGRAD',
                                CARA='A_T_D_L',
                                VALE=(0.,0.,0.,),),
                             _F(GROUP_MA='LIGRAD',
                                REPERE='GLOBAL',
                                CARA='M_T_L',
                                VALE=
                                (0.01,0.0,0.01,0.0,0.0,0.01,0.00,0.0,0.0,0.01,
                                 0.0,0.00,0.0,0.0,0.01,0.0,0.0,0.0,0.0,0.0,0.01,
                                 ),
                               ),
                             ),
                        );

COND_LIB=AFFE_CHAR_MECA(MODELE=MODELB,
                        LIAISON_SOLIDE=(
                                        _F(GROUP_NO='SRADIER',),
                                        ),
                        );

ASSEMBLAGE(MODELE=MODELB,
                CHAM_MATER=CHMATB,
                CARA_ELEM=ELEMB,
                CHARGE=COND_LIB,
                NUME_DDL=CO('NUMEROTB'),
                MATR_ASSE=(_F(MATRICE=CO('MATRRIGB'),
                              OPTION='RIGI_MECA',),
                           _F(MATRICE=CO('MATRMASB'),
                              OPTION='MASS_MECA',),
                           _F(MATRICE=CO('MATRAMOB'),
                              OPTION='AMOR_MECA',),
                           ),
               );

#
# CALCUL DES MODES SUR TAPIS DE RESSORTS:
#---------------------------------------------

MASSTOT=POST_ELEM(MODELE=MODELB,
                  CHAM_MATER=CHMATB,
                  CARA_ELEM=ELEMB,
                  CHARGE=COND_LIB,
                  TITRE='MASSES',
                  MASS_INER=(_F(TOUT='OUI',),
                             _F(GROUP_MA=('LIGRAD'),),
                            ),
                  )

IMPR_TABLE(TABLE=MASSTOT,);


MODEB=CALC_MODES(MATR_RIGI=MATRRIGB,
                 OPTION='BANDE',
                 CALC_FREQ=_F(FREQ=(0.1,20.,30.,60.,),
                              ),
                 MATR_MASS=MATRMASB,
                 )


CHAPP=AFFE_CHAR_MECA(MODELE=MODELB,
                     PESANTEUR=_F(GRAVITE=9.81,
                                  DIRECTION=(0.0,0.0,-1.0,),),);
#



TEMPL2B=DEFI_LIST_REEL(
                      DEBUT=0.01,
                      INTERVALLE=_F(JUSQU_A=5.00,
                                    NOMBRE=499,),
                      );

TEMPL2C=DEFI_LIST_REEL(DEBUT=0.0,
                      INTERVALLE=_F(JUSQU_A=5.00,
                                    NOMBRE=500,),);


L_INST=DEFI_LIST_REEL(DEBUT=-10.0,
                      INTERVALLE=_F(JUSQU_A=0.0,
                                    NOMBRE=10,),);
#
# EVOLUTIONS
#  LECTURE DE L ACCELEROGRAMME DE SOL ACCE

FC1 = DEFI_FONCTION(NOM_PARA='INST',
                    VALE=(-10., 1.0, 100.0, 1.0, ),);

ACCE1=DEFI_FONCTION(NOM_PARA='INST',
                    VALE=
                    (0.0,0.0000,0.01,0.0169,0.02,-0.0528,0.03,-0.14363,0.04,-0.22013,0.05,-0.27819,0.06,
                           -0.30506,0.07,-0.28967,0.08,-0.27053,0.09,-0.24898,0.1,-0.23472,0.11,-0.22889,0.12,-0.21952,0.13,
                           -0.19547,0.14,-0.14869,0.15,-0.10487,0.16,-0.07417,0.17,-0.06249,0.18,-0.07415,0.19,-0.07001,0.2,
                           -0.04562,0.21,0.00874,0.22,0.07774,0.23,0.13178,0.24,0.16934,0.25,0.14742,0.26,0.11109,0.27,0.07036,
                           0.28,0.04015,0.29,0.03173,0.3,0.02224,0.31,0.01538,0.32,-0.01261,0.33,-0.04791,0.34,-0.09414,0.35,
                           -0.14386,0.36,-0.19484,0.37,-0.24359,0.38,-0.27364,0.39,-0.31038,0.4,-0.3333,0.41,-0.3404,0.42,
                           -0.34413,0.43,-0.33844,0.44,-0.32683,0.45,-0.30766,0.46,-0.28452,0.47,-0.23281,0.48,-0.18779,0.49,
                           -0.16542,0.5,-0.16678,0.51,-0.1771,0.52,-0.19146,0.53,-0.20545,0.54,-0.18988,0.55,-0.15568,0.56,
                           -0.0947,0.57,-0.02365,0.58,0.04729,0.59,0.0983,0.6,0.11529,0.61,0.09544,0.62,0.0345,0.63,-0.04432,
                           0.64,-0.10935,0.65,-0.10353,0.66,-0.04454,0.67,0.06906,0.68,0.17431,0.69,0.23358,0.7,0.25758,0.71,
                           0.25438,0.72,0.23631,0.73,0.19217,0.74,0.13117,0.75,0.05596,0.76,-0.01551,0.77,-0.10553,0.78,
                           -0.1743,0.79,-0.27342,0.8,-0.34167,0.81,-0.40255,0.82,-0.46852,0.83,-0.5388,0.84,-0.61011,0.85,
                           -0.60998,0.86,-0.54679,0.87,-0.36574,0.88,-0.17583,0.89,-0.00938,0.9,0.08483,0.91,0.14888,0.92,
                           0.18499,0.93,0.21046,0.94,0.25163,0.95,0.26867,0.96,0.28253,0.97,0.23813,0.98,0.21309,0.99,0.21051,
                           1.0,0.24065,1.01,0.28854,1.02,0.33035,1.03,0.33162,1.04,0.30234,1.05,0.21732,1.06,0.10509,1.07,
                           0.01888,1.08,-0.07127,1.09,-0.07778,1.1,-0.07656,1.11,-0.0289,1.12,0.03955,1.13,0.16734,1.14,
                           0.33092,1.15,0.52478,1.16,0.72538,1.17,0.8673,1.18,0.89524,1.19,0.85529,1.2,0.72709,1.21,0.47094,
                           1.22,0.15034,1.23,-0.12869,1.24,-0.42932,1.25,-0.63123,1.26,-0.58525,1.27,-0.01759,1.28,0.58906,
                           1.29,0.84239,1.3,0.82748,1.31,0.58466,1.32,0.35377,1.33,0.2994,1.34,0.35738,1.35,0.33624,1.36,
                           0.29299,1.37,0.29445,1.38,0.29895,1.39,0.21595,1.4,0.13375,1.41,0.10984,1.42,0.08029,1.43,0.0234,
                           1.44,-0.03604,1.45,-0.10311,1.46,-0.14765,1.47,-0.14938,1.48,-0.14145,1.49,-0.1637,1.5,-0.22909,
# ... 118 like lines cut
                           ),
                           );

ACCE=CALC_FONCTION(COMB=_F(FONCTION=ACCE1,
                           COEF=3.5,),);
#  LECTURE DES CHARGES NODALES

CHFONO=AFFE_CHAR_MECA(MODELE=MODELB,
                     PESANTEUR=_F(GRAVITE=1.0,
                                  DIRECTION=(-1.0,0.0,0.0,),),);

#
VELPP=CALC_VECT_ELEM(    OPTION='CHAR_MECA',
           CHARGE=CHAPP, CHAM_MATER=CHMATB, CARA_ELEM=ELEMB,
           MODELE=MODELB,
           SOUS_STRUC=_F( CAS_CHARGE = 'CHP1', SUPER_MAILLE = 'STAT1',)
               );

VELFO=CALC_VECT_ELEM(    OPTION='CHAR_MECA',
           CHARGE=CHFONO, CHAM_MATER=CHMATB, CARA_ELEM=ELEMB,
           MODELE=MODELB,
           SOUS_STRUC=_F( CAS_CHARGE = 'CHP2', SUPER_MAILLE = 'STAT1',)
               );


VECASPP=ASSE_VECTEUR(   NUME_DDL=NUMEROTB,  VECT_ELEM=VELPP);
VECASFO=ASSE_VECTEUR(   NUME_DDL=NUMEROTB,  VECT_ELEM=VELFO);

# Calcul de la position statique initiale sous pesanteur
EVOL0=DYNA_VIBRA( TYPE_CALCUL='TRAN',
                  BASE_CALCUL='PHYS',
                  MATR_MASS=MATRMASB, MATR_RIGI=MATRRIGB,
                      SCHEMA_TEMPS=_F(SCHEMA='NEWMARK',
                                      BETA =1.0, GAMMA =1.5,),
                      INCREMENT=_F( LIST_INST = L_INST),
                      ARCHIVAGE=_F( PAS_ARCH=10),
                     EXCIT=_F( VECT_ASSE=VECASPP, COEF_MULT = 1.0,),
                    );

DEP0=CREA_CHAMP( OPERATION='EXTR', TYPE_CHAM='NOEU_DEPL_R',
                 RESULTAT= EVOL0, INST=0.0,
                 NOM_CHAM = 'DEPL');

VIT0=CREA_CHAMP( OPERATION='EXTR', TYPE_CHAM='NOEU_DEPL_R',
                 RESULTAT= EVOL0, INST=0.0,
                 NOM_CHAM = 'VITE');


# Boucle de calculs lineaires iteratifs en recalculant les forces
# non lineaires sur tout l intervalle de calcul

NF = 7

for k in range(1,NF):

  if k==1:
    EVOL=DYNA_VIBRA(TYPE_CALCUL='TRAN',
                    BASE_CALCUL='PHYS',
                    MATR_MASS=MATRMASB, MATR_RIGI=MATRRIGB,
                      MATR_AMOR=MATRAMOB,
                      ETAT_INIT=_F(DEPL=DEP0, VITE=VIT0,),
                      INCREMENT=_F(LIST_INST=TEMPL2C,),
                      ARCHIVAGE=_F(PAS_ARCH=1,),
                      AMOR_MODAL=_F(MODE_MECA = MODEB,
                                    AMOR_REDUIT = 0.05),
                     EXCIT=(
                            _F( VECT_ASSE=VECASPP, COEF_MULT = 1.0,),
                            _F( VECT_ASSE=VECASFO, FONC_MULT = ACCE,),
                            ),
                    );


  else:

    resunl = CALC_FORC_NONL( RESULTAT = EVOL , TOUT_ORDRE = 'OUI'    ,
                  CHAM_MATER=CHMATB, CARA_ELEM=ELEMB, MODELE=MODELB,
                  COMPORTEMENT=(_F(RELATION='ELAS',
                                TOUT='OUI',),
                             _F(RELATION='DIS_CHOC',
                                GROUP_MA='LIGRAD',),
                             ),
                       );

    DETRUIRE(INFO=1,CONCEPT=_F(NOM=EVOL));
    EVOL=DYNA_VIBRA(TYPE_CALCUL='TRAN',
                    BASE_CALCUL='PHYS',
                    MATR_MASS=MATRMASB, MATR_RIGI=MATRRIGB,
                      MATR_AMOR=MATRAMOB,
                      ETAT_INIT=_F(DEPL=DEP0, VITE=VIT0,),
                      INCREMENT=_F(LIST_INST=TEMPL2C,),
                      ARCHIVAGE=_F(PAS_ARCH=1,),
                      AMOR_MODAL=_F(MODE_MECA = MODEB,
                                    AMOR_REDUIT = 0.05),
                     EXCIT=(
                            _F( VECT_ASSE=VECASPP, COEF_MULT = 1.0,),
                            _F( VECT_ASSE=VECASFO, FONC_MULT = ACCE,),
                           ),
                     EXCIT_RESU=(
                            _F( RESULTAT = resunl, COEF_MULT = -1.0,),
                                ),
                        );

    DETRUIRE(INFO=1,CONCEPT=_F(NOM=resunl));


## fin boucle NF


RESUGLO=REST_COND_TRAN(  RESULTAT=EVOL,
                         MACR_ELEM_DYNA=MAEL1,
                         LIST_INST=TEMPL2B,
                         PRECISION=1.E-4,
                         NOM_CHAM='DEPL',
                       );
TEST_RESU(RESU=(_F(INST=0.0,
                   RESULTAT=EVOL,
                   NOM_CHAM='DEPL',
                   NOEUD='N739',
                   NOM_CMP='DZ',
                   VALE_CALC=-5.11475541823E-03,
                   CRITERE=('RELATIF', 'ABSOLU'),
                   ),
                _F(INST=0.0,
                   RESULTAT=EVOL,
                   NOM_CHAM='DEPL',
                   NOEUD='N731',
                   NOM_CMP='DZ',
                   VALE_CALC=-5.1208549250819E-03,
                   CRITERE=('RELATIF', 'ABSOLU'),
                   ),
                _F(INST=4.4500000000000002,
                   RESULTAT=RESUGLO,
                   NOM_CHAM='DEPL',
                   NOEUD='N739',
                   NOM_CMP='DZ',
                   VALE_CALC=9.166646E-03,
                   CRITERE=('ABSOLU', 'ABSOLU'),
                   ),
                _F(INST=4.4500000000000002,
                   RESULTAT=RESUGLO,
                   NOM_CHAM='DEPL',
                   NOEUD='N1',
                   NOM_CMP='DX',
                   VALE_CALC=-0.25212884658433,
                   CRITERE=('RELATIF', 'ABSOLU'),
                ),),);

FIN();
