# MODIF  DATE 25/05/2004   AUTEUR DURAND C.DURAND 
# TITRE REPONSE TEMPORELLE NON LINEAIRE D'UNE TUYAUTERIE
#            CONFIGURATION MANAGEMENT OF EDF VERSION
# ======================================================================
# COPYRIGHT (C) 1991 - 2001  EDF R&D                  WWW.CODE-ASTER.ORG
# THIS PROGRAM IS FREE SOFTWARE; YOU CAN REDISTRIBUTE IT AND/OR MODIFY
# IT UNDER THE TERMS OF THE GNU GENERAL PUBLIC LICENSE AS PUBLISHED BY
# THE FREE SOFTWARE FOUNDATION; EITHER VERSION 2 OF THE LICENSE, OR   
# (AT YOUR OPTION) ANY LATER VERSION.                                 
#
# THIS PROGRAM IS DISTRIBUTED IN THE HOPE THAT IT WILL BE USEFUL, BUT 
# WITHOUT ANY WARRANTY; WITHOUT EVEN THE IMPLIED WARRANTY OF          
# MERCHANTABILITY OR FITNESS FOR A PARTICULAR PURPOSE. SEE THE GNU    
# GENERAL PUBLIC LICENSE FOR MORE DETAILS.                            
#
# YOU SHOULD HAVE RECEIVED A COPY OF THE GNU GENERAL PUBLIC LICENSE   
# ALONG WITH THIS PROGRAM; IF NOT, WRITE TO EDF R&D CODE_ASTER,       
#    1 AVENUE DU GENERAL DE GAULLE, 92141 CLAMART CEDEX, FRANCE.      
# ======================================================================
#  
#
DEBUT( CODE=_F( NOM = 'SDNX300B',NIV_PUB_WEB='INTERNET'))

MA=LIRE_MAILLAGE(  )

#
MA=DEFI_GROUP( reuse=MA,        MAILLAGE=MA, 
                           CREA_GROUP_NO=_F( GROUP_MA = ( 'LIGN',
                                                       'COUDE1',
                                                       'COUDE2',
                                                       'DROIT1',
                                                       'LRESSORT',
                                                     ))
                        )

#
# DEFINITION DES PARAMETRES GEOMETRIQUE POUR LES TUYAUX
#
# RAYON EXTERIEUR DU TUYAU
#
R1=0.024

#
# EPAISSEUR DU TUYAU
#
EP1=0.005

#
# RAYON DE COURBURE
#
RCOURB=0.170

#
# ANGLE DU COUDE
#
ANGL1=90.

#
# RAYON MOYEN
#
RM=R1 - (EP1/2.)

#
# COEFFICIENT DE FLEXIBILITE
# ATTENTION, SELON LE RCCM, COEF_FLEX ET INDI SONT TOUJOURS SUPERIEURS
# OU EGAUX A 1. CE N'EST PAS LE CAS DANS CE CAS TEST
#
H=(EP1*RCOURB)/(RM*RM)

C_FLE1=1.65/H

#
# INDINCE D'INTENSIFICATION DE CONTRAINTES
#
IND1=0.9/(H**0.666666)

#
# DEFINITION DES PARAMETRES POUR LES RAIDEURS DES RESSORTS
#
KT1XYZ=80.E3

KT2XYZ=80.E4

KRXYZ=1.2*180./pi

#
# DEFINITION DU PARAMETRE POUR LA MASSE PONCTUELLE
#
MZ=10.

#
# DEFINITION DES PARAMETRES POUR LA DISCRETISATION TEMPORELLE
#
DEBUTR=0.

DEBUTI=0

TFIN=0.1

PAS=0.00001

#
NPAS=10000

#
# LISTE DE DISCRETISATION TEMPORELLE
#
L_INST1=DEFI_LIST_REEL(         DEBUT=DEBUTR,
                              INTERVALLE=_F( JUSQU_A = TFIN,
                                          PAS = 0.0001)
                          )

#
# LISTE D ARCHIVAGE
#
L_ARCH=DEFI_LIST_ENTI(         DEBUT=DEBUTI,
                              INTERVALLE=_F( JUSQU_A = NPAS,
                                          PAS = 10)
                          )

#
# DEFINITION DU MODELE
#
MO=AFFE_MODELE(    MAILLAGE=MA,AFFE=(
                                _F( PHENOMENE = 'MECANIQUE',
                                      GROUP_MA = 'DROIT1',
                                      MODELISATION = 'POU_D_T'),
                                _F( PHENOMENE = 'MECANIQUE',
                                      GROUP_MA = ('COUDE1', 'COUDE2',),
                                      MODELISATION = 'POU_C_T'),
                                _F( PHENOMENE = 'MECANIQUE',
                                      GROUP_MA = 'LRESSORT',
                                      MODELISATION = 'DIS_TR'),
                                _F( PHENOMENE = 'MECANIQUE',
                                      GROUP_MA = 'MP4',
                                      MODELISATION = 'DIS_T'))
                        )

#
# CARACTERISTIQUES DES POUTRES, ET AUTRES ELEMENTS
#
CARAELEM=AFFE_CARA_ELEM(      MODELE=MO,
#
# LES POUTRES
                                 POUTRE=_F(  GROUP_MA = 'LIGN',
                                          SECTION = 'CERCLE',
                                          CARA = ('R',  'EP',),
                                          VALE = ( R1,   EP1,)),
#
# LES COUDES
                               DEFI_ARC=_F(  GROUP_MA = ('COUDE1', 'COUDE2',),
                                          RAYON = RCOURB,
                                          ORIE_ARC = ANGL1,
                                          COEF_FLEX = C_FLE1, 
                                          INDI_SIGM = IND1),DISCRET=(
#
# LES RESSORTS
                                _F(  GROUP_MA = 'LRESSORT',
                                          REPERE = 'GLOBAL',
                                          CARA = 'K_TR_D_N',
                                          VALE = ( KT1XYZ,
                                                       KT1XYZ,
                                                       KT1XYZ,
                                                       KRXYZ,
                                                       KRXYZ,
                                                       KRXYZ,
                                                     )),
# 
# LA MASSE
                                        _F(  GROUP_MA = 'MP4',
                                          REPERE = 'GLOBAL',
                                          CARA = 'M_T_D_N',
                                          VALE = MZ))
                           )

#
# DEFINITION DU MATERIAU
#
MAT=DEFI_MATERIAU(    ELAS=_F( E = 1.9E11,
                                    NU = 0.3,
                                    RHO = 7960.)
                          )

#
# AFFECTATION DU MATERIAU
#
CHMAT=AFFE_MATERIAU(    MAILLAGE=MA,
                                  AFFE=_F( TOUT = 'OUI',
                                        MATER = MAT)
                          )

#
# CONDITIONS AUX LIMITES
#
CH1A=AFFE_CHAR_MECA(      MODELE=MO,DDL_IMPO=(
                                _F(  GROUP_NO = ('P7',),
                                           DX = 0.,
                                           DY = 0.,
                                           DZ = 0.,
                                           DRX = 0.,
                                           DRY = 0.,
                                           DRZ = 0.),
                                _F(  GROUP_NO = ('P1',),
                                           DX = 0.,
                                           DY = 0.,
                                           DZ = 0.))
                            )

#
# CALCUL DES MATRICES ELEMENTAIRES DE RIGIDITES
#
RIGIELEM=CALC_MATR_ELEM(        MODELE=MO,
                                   CHARGE=CH1A,
                                   OPTION='RIGI_MECA',
                               CHAM_MATER=CHMAT,
                                CARA_ELEM=CARAELEM
                           )

#
# CALCUL DES MATRICES ELEMENTAIRES DE MASSES
#
MASSELEM=CALC_MATR_ELEM(        MODELE=MO,
                                   CHARGE=CH1A,
                                   OPTION='MASS_MECA',
                               CHAM_MATER=CHMAT,
                                CARA_ELEM=CARAELEM
                           )

#
# NUMEROTATIOM
#
NUMEDDL=NUME_DDL(    MATR_RIGI=RIGIELEM )

#
# MATRICE DE RIGIDITE
#
RIGIDITE=ASSE_MATRICE(    MATR_ELEM=RIGIELEM,
                             NUME_DDL=NUMEDDL
                        )

#
# MATRICE DE MASSE
#
MASSE=ASSE_MATRICE(    MATR_ELEM=MASSELEM,
                             NUME_DDL=NUMEDDL
                        )

#
# CALCUL MODAL
#
MODE1=MODE_ITER_SIMULT(       MATR_A=RIGIDITE,
                                   MATR_B=MASSE,
                                CALC_FREQ=_F( NMAX_FREQ = 5,
                                           OPTION = 'PLUS_PETITE')
                            )

#
MODE1=CALC_ELEM( reuse=MODE1,       MODELE=MO,
                           RESULTAT=MODE1,
                         CHAM_MATER=CHMAT,
                          CARA_ELEM=CARAELEM,
                             OPTION='SIEF_ELGA_DEPL'
                     )

#
MODE1=CALC_NO( reuse=MODE1,     RESULTAT=MODE1,  MODELE=MO,
                           OPTION='FORC_NODA', 
                       CHAM_MATER=CHMAT,
                        CARA_ELEM=CARAELEM
                   )

#
MODE1=CALC_NO( reuse=MODE1,     RESULTAT=MODE1,  MODELE=MO,
                           OPTION='REAC_NODA', 
                       CHAM_MATER=CHMAT,
                        CARA_ELEM=CARAELEM
                   )

#
# DEFINITION DE L ACCELERATION
#
# DEFINITION DES BORNES TEMPORELLES
#
T0=0.

T1A=0.006 - (PAS / 100.)

T1B=0.006 + (PAS / 100.)

T2A=0.033 - (PAS / 100.)

T2B=0.033 + (PAS / 100.)

#
# DEFINITION DES ACCELERATIONS
#
G1=500.

G2=-111.11

G3=0.

#
# ACCELERATION SUIVANT X
#
ACCE_X=DEFI_FONCTION(       NOM_PARA='INST',
                                NOM_RESU='ACCE',
                                INTERPOL='LIN',
                              PROL_DROITE='CONSTANT',
                             PROL_GAUCHE='CONSTANT',
                                    VALE=( T0,  G1,
                                           T1A, G1,
                                           T1B, G2,
                                           T2A, G2,
                                           T2B, G3,
                                         )
                         )

#
# DEFINITION DE LA DIRECTION DU SEISME
#
MONO_X=CALC_CHAR_SEISME(     MATR_MASS=MASSE,
                                 DIRECTION=(1., 0., 0.,),
                                MONO_APPUI='OUI'
                            )

#
# -------------------------------------------------------------------
#  RESOLUTION TEMPORELLE NON LINEAIRE
# -------------------------------------------------------------------
#
# PROJECTION DANS LA BASE DES MODES : MODE1
#
NUMGEN=NUME_DDL_GENE(        BASE=MODE1,
                             STOCKAGE='PLEIN'
                         )

#
RIGIGEN=PROJ_MATR_BASE(             BASE=MODE1,
                              NUME_DDL_GENE=NUMGEN,
                                  MATR_ASSE=RIGIDITE
                          )

#
MASSGEN=PROJ_MATR_BASE(             BASE=MODE1,
                              NUME_DDL_GENE=NUMGEN,
                                  MATR_ASSE=MASSE
                          )

#
VECTGEN=PROJ_VECT_BASE(             BASE=MODE1,
                              NUME_DDL_GENE=NUMGEN,
                                  VECT_ASSE=MONO_X
                          )

#
OBSTACLE=DEFI_OBSTACLE(    TYPE='CERCLE')

#
REPBASE=DYNA_TRAN_MODAL(      METHODE='DEVOGE',
                               RIGI_GENE=RIGIGEN,
                               MASS_GENE=MASSGEN,
                               ARCHIVAGE=_F( LIST_ARCH = L_ARCH),
                             INCREMENT=_F(  INST_INIT = DEBUTR,
                                         PAS = PAS,
                                         INST_FIN = TFIN),
                                   EXCIT=_F(  VECT_GENE = VECTGEN,
                                           FONC_MULT = ACCE_X),CHOC=(
                                    _F( NOEUD_1 = 'N69', # P2
                                          OBSTACLE = OBSTACLE,
                                          ORIG_OBST = (-0.5, 0., 0.75,),
                                          NORM_OBST = (1., 0., 0.,),
                                          JEU = 0.010,
                                          RIGI_NOR = KT2XYZ,
                                          RIGI_TAN = 0.),
                                         _F( NOEUD_1 = 'N50', # P3
                                          OBSTACLE = OBSTACLE,
                                          ORIG_OBST = (0., 0., 0.25,),
                                          NORM_OBST = (0., 0., 1.,),
                                          JEU = 0.010,
                                          RIGI_NOR = KT2XYZ,
                                          RIGI_TAN = 0.),
                                         _F( NOEUD_1 = 'N40', # P5
                                          OBSTACLE = OBSTACLE,
                                          ORIG_OBST = (0., 0., -0.25,),
                                          NORM_OBST = (0., 0., 1.,),
                                          JEU = 0.010,
                                          RIGI_NOR = KT2XYZ,
                                          RIGI_TAN = 0.),
                                         _F( NOEUD_1 = 'N21', # P6
                                          OBSTACLE = OBSTACLE,
                                          ORIG_OBST = (0., 0.5, -0.75,),
                                          NORM_OBST = (0., 1., 0.,),
                                          JEU = 0.010,
                                          RIGI_NOR = KT2XYZ,
                                          RIGI_TAN = 0.)) 
                           )

#
# PROJECTION DANS LA BASE PHYSIQUE
#
REP_NLIN=REST_BASE_PHYS(    RESU_GENE=REPBASE,
                               NOM_CHAM='DEPL'
                           )

#
REP_NLIN=CALC_ELEM( reuse=REP_NLIN,       MODELE=MO,
                            RESULTAT=REP_NLIN,
                          CHAM_MATER=CHMAT,
                           CARA_ELEM=CARAELEM,
                              OPTION='SIEF_ELGA_DEPL'
                      )

#
# CALCUL DES FORCES NODALES ET REACTIONS NODALES
#
REP_NLIN=CALC_NO( reuse=REP_NLIN,     RESULTAT=REP_NLIN,
                            OPTION='FORC_NODA',  MODELE=MO,
                        CHAM_MATER=CHMAT,
                         CARA_ELEM=CARAELEM
                    )

#
REP_NLIN=CALC_NO( reuse=REP_NLIN,     RESULTAT=REP_NLIN,
                            OPTION='REAC_NODA',  MODELE=MO,
                        CHAM_MATER=CHMAT,
                         CARA_ELEM=CARAELEM
                     )

#
# RECUPERATION DES FONCTIONS
#
# DEPLACEMENT AU POINT P2
#
P2_DX=RECU_FONCTION(    RESULTAT=REP_NLIN,
                             NOM_CHAM='DEPL',
                             GROUP_NO='P2',
                                  NOM_CMP='DX'
                         )

#
P2_DY=RECU_FONCTION(    RESULTAT=REP_NLIN,
                             NOM_CHAM='DEPL',
                             GROUP_NO='P2',
                                  NOM_CMP='DY'
                         )

#
P2_DZ=RECU_FONCTION(    RESULTAT=REP_NLIN,
                             NOM_CHAM='DEPL',
                             GROUP_NO='P2',
                                  NOM_CMP='DZ'
                         )

#
# DEPLACEMENT AU POINT P3
#
P3_DX=RECU_FONCTION(    RESULTAT=REP_NLIN,
                             NOM_CHAM='DEPL',
                             GROUP_NO='P3',
                                  NOM_CMP='DX'
                         )

#
P3_DY=RECU_FONCTION(    RESULTAT=REP_NLIN,
                             NOM_CHAM='DEPL',
                             GROUP_NO='P3',
                                  NOM_CMP='DY'
                         )

#
P3_DZ=RECU_FONCTION(    RESULTAT=REP_NLIN,
                             NOM_CHAM='DEPL',
                             GROUP_NO='P3',
                                  NOM_CMP='DZ'
                         )

#
# DEPLACEMENT AU POINT P4
#
P4_DX=RECU_FONCTION(    RESULTAT=REP_NLIN,
                             NOM_CHAM='DEPL',
                             GROUP_NO='P4',
                                  NOM_CMP='DX'
                         )

#
P4_DY=RECU_FONCTION(    RESULTAT=REP_NLIN,
                             NOM_CHAM='DEPL',
                             GROUP_NO='P4',
                                  NOM_CMP='DY'
                         )

#
P4_DZ=RECU_FONCTION(    RESULTAT=REP_NLIN,
                             NOM_CHAM='DEPL',
                             GROUP_NO='P4',
                                  NOM_CMP='DZ'
                         )

#
# DEPLACEMENT AU POINT P5
#
P5_DX=RECU_FONCTION(    RESULTAT=REP_NLIN,
                             NOM_CHAM='DEPL',
                             GROUP_NO='P5',
                                  NOM_CMP='DX'
                         )

#
P5_DY=RECU_FONCTION(    RESULTAT=REP_NLIN,
                             NOM_CHAM='DEPL',
                             GROUP_NO='P5',
                                  NOM_CMP='DY'
                         )

#
P5_DZ=RECU_FONCTION(    RESULTAT=REP_NLIN,
                             NOM_CHAM='DEPL',
                             GROUP_NO='P5',
                                  NOM_CMP='DZ'
                         )

#
# DEPLACEMENT AU POINT P6
#
P6_DX=RECU_FONCTION(    RESULTAT=REP_NLIN,
                             NOM_CHAM='DEPL',
                             GROUP_NO='P6',
                                  NOM_CMP='DX'
                         )

#
P6_DY=RECU_FONCTION(    RESULTAT=REP_NLIN,
                             NOM_CHAM='DEPL',
                             GROUP_NO='P6',
                                  NOM_CMP='DY'
                         )

#
P6_DZ=RECU_FONCTION(    RESULTAT=REP_NLIN,
                             NOM_CHAM='DEPL',
                             GROUP_NO='P6',
                                  NOM_CMP='DZ'
                         )

#
# EFFORTS AU POINT P7
#
F7_DX=RECU_FONCTION(    RESULTAT=REP_NLIN,
                             NOM_CHAM='REAC_NODA',
                             GROUP_NO='P7',
                                  NOM_CMP='DX',
                            LIST_INST=L_INST1
                         )

#
F7_DY=RECU_FONCTION(    RESULTAT=REP_NLIN,
                             NOM_CHAM='REAC_NODA',
                             GROUP_NO='P7',
                                  NOM_CMP='DY',
                            LIST_INST=L_INST1
                         )

#
F7_DZ=RECU_FONCTION(    RESULTAT=REP_NLIN,
                             NOM_CHAM='REAC_NODA',
                             GROUP_NO='P7',
                                  NOM_CMP='DZ',
                            LIST_INST=L_INST1
                         )

#
M7_DX=RECU_FONCTION(    RESULTAT=REP_NLIN,
                             NOM_CHAM='REAC_NODA',
                             GROUP_NO='P7',
                                  NOM_CMP='DRX',
                            LIST_INST=L_INST1
                         )

#
M7_DY=RECU_FONCTION(    RESULTAT=REP_NLIN,
                             NOM_CHAM='REAC_NODA',
                             GROUP_NO='P7',
                                  NOM_CMP='DRY',
                            LIST_INST=L_INST1
                         )

#
M7_DZ=RECU_FONCTION(    RESULTAT=REP_NLIN,
                             NOM_CHAM='REAC_NODA',
                             GROUP_NO='P7',
                                  NOM_CMP='DRZ',
                            LIST_INST=L_INST1
                         )

#
# TEST_RESU DES DEPLACEMENTS ET DES EFFORTS
#
#
# REACTIONS NODALES AU POINT P7
#
# REACTIONS SUIVANT X
#
TEST_RESU(   RESU=_F( RESULTAT = REP_NLIN,
                    NOM_CHAM = 'REAC_NODA',
                    NUME_ORDRE = 100,
                    GROUP_NO = 'P7',
                    NOM_CMP = 'DX',
                    VALE = 846.86,
                    PRECISION = 0.005)
          )

#
TEST_RESU(   RESU=_F( RESULTAT = REP_NLIN,
                    NOM_CHAM = 'REAC_NODA',
                    NUME_ORDRE = 200,
                    GROUP_NO = 'P7',
                    NOM_CMP = 'DX',
                    VALE = -441.13,
                    PRECISION = 0.005)
          )

#
TEST_RESU(   RESU=_F( RESULTAT = REP_NLIN,
                    NOM_CHAM = 'REAC_NODA',
                    NUME_ORDRE = 300,
                    GROUP_NO = 'P7',
                    NOM_CMP = 'DX',
                    VALE = -65.523,
                    PRECISION = 0.055)
          )

#
TEST_RESU(   RESU=_F( RESULTAT = REP_NLIN,
                    NOM_CHAM = 'REAC_NODA',
                    NUME_ORDRE = 400,
                    GROUP_NO = 'P7',
                    NOM_CMP = 'DX',
                    VALE = 676.74,
                    PRECISION = 0.021)
          )

#
TEST_RESU(   RESU=_F( RESULTAT = REP_NLIN,
                    NOM_CHAM = 'REAC_NODA',
                    NUME_ORDRE = 500,
                    GROUP_NO = 'P7',
                    NOM_CMP = 'DX',
                    VALE = -179.42,
                    PRECISION = 0.14)
          )

#
TEST_RESU(   RESU=_F( RESULTAT = REP_NLIN,
                    NOM_CHAM = 'REAC_NODA',
                    NUME_ORDRE = 600,
                    GROUP_NO = 'P7',
                    NOM_CMP = 'DX',
                    VALE = -55.341,
                    PRECISION = 0.39)
          )

#
TEST_RESU(   RESU=_F( RESULTAT = REP_NLIN,
                    NOM_CHAM = 'REAC_NODA',
                    NUME_ORDRE = 700,
                    GROUP_NO = 'P7',
                    NOM_CMP = 'DX',
                    VALE = 545.87,
                    PRECISION = 0.005)
          )

#
TEST_RESU(   RESU=_F( RESULTAT = REP_NLIN,
                    NOM_CHAM = 'REAC_NODA',
                    NUME_ORDRE = 800,
                    GROUP_NO = 'P7',
                    NOM_CMP = 'DX',
                    VALE = 54.381,
                    PRECISION = 0.40)
          )

#
TEST_RESU(   RESU=_F( RESULTAT = REP_NLIN,
                    NOM_CHAM = 'REAC_NODA',
                    NUME_ORDRE = 900,
                    GROUP_NO = 'P7',
                    NOM_CMP = 'DX',
                    VALE = -344.45,
                    PRECISION = 0.13)
          )

#
TEST_RESU(   RESU=_F( RESULTAT = REP_NLIN,
                    NOM_CHAM = 'REAC_NODA',
                    NUME_ORDRE = 1000,
                    GROUP_NO = 'P7',
                    NOM_CMP = 'DX',
                    VALE = 815.57,
                    PRECISION = 0.045)
          )

#
# REACTIONS SUIVANT Y
#
TEST_RESU(   RESU=_F( RESULTAT = REP_NLIN,
                    NOM_CHAM = 'REAC_NODA',
                    NUME_ORDRE = 100,
                    GROUP_NO = 'P7',
                    NOM_CMP = 'DY',
                    VALE = -239.30,
                    PRECISION = 0.01)
          )

#
TEST_RESU(   RESU=_F( RESULTAT = REP_NLIN,
                    NOM_CHAM = 'REAC_NODA',
                    NUME_ORDRE = 200,
                    GROUP_NO = 'P7',
                    NOM_CMP = 'DY',
                    VALE = 231.23,
                    PRECISION = 0.005)
          )

#
TEST_RESU(   RESU=_F( RESULTAT = REP_NLIN,
                    NOM_CHAM = 'REAC_NODA',
                    NUME_ORDRE = 300,
                    GROUP_NO = 'P7',
                    NOM_CMP = 'DY',
                    VALE = -257.38,
                    PRECISION = 0.02)
          )

#
TEST_RESU(   RESU=_F( RESULTAT = REP_NLIN,
                    NOM_CHAM = 'REAC_NODA',
                    NUME_ORDRE = 400,
                    GROUP_NO = 'P7',
                    NOM_CMP = 'DY',
                    VALE = 258.41,
                    PRECISION = 0.015)
          )

#
TEST_RESU(   RESU=_F( RESULTAT = REP_NLIN,
                    NOM_CHAM = 'REAC_NODA',
                    NUME_ORDRE = 500,
                    GROUP_NO = 'P7',
                    NOM_CMP = 'DY',
                    VALE = -249.83,
                    PRECISION = 0.015)
          )

#
TEST_RESU(   RESU=_F( RESULTAT = REP_NLIN,
                    NOM_CHAM = 'REAC_NODA',
                    NUME_ORDRE = 600,
                    GROUP_NO = 'P7',
                    NOM_CMP = 'DY',
                    VALE = 180.61,
                    PRECISION = 0.045)
          )

#
TEST_RESU(   RESU=_F( RESULTAT = REP_NLIN,
                    NOM_CHAM = 'REAC_NODA',
                    NUME_ORDRE = 700,
                    GROUP_NO = 'P7',
                    NOM_CMP = 'DY',
                    VALE = -167.34,
                    PRECISION = 0.08)
          )

#
TEST_RESU(   RESU=_F( RESULTAT = REP_NLIN,
                    NOM_CHAM = 'REAC_NODA',
                    NUME_ORDRE = 800,
                    GROUP_NO = 'P7',
                    NOM_CMP = 'DY',
                    VALE = 36.720,
                    PRECISION = 0.37)
          )

#
TEST_RESU(   RESU=_F( RESULTAT = REP_NLIN,
                    NOM_CHAM = 'REAC_NODA',
                    NUME_ORDRE = 900,
                    GROUP_NO = 'P7',
                    NOM_CMP = 'DY',
                    VALE = 46.952, 
                    PRECISION = 0.45)
          )

#
TEST_RESU(   RESU=_F( RESULTAT = REP_NLIN,
                    NOM_CHAM = 'REAC_NODA',
                    NUME_ORDRE = 1000,
                    GROUP_NO = 'P7',
                    NOM_CMP = 'DY',
                    VALE = -231.37,
                    PRECISION = 0.14)
          )

#
# REACTIONS SUIVANT Z
#
TEST_RESU(   RESU=_F( RESULTAT = REP_NLIN,
                    NOM_CHAM = 'REAC_NODA',
                    NUME_ORDRE = 100,
                    GROUP_NO = 'P7',
                    NOM_CMP = 'DZ',
                    VALE = 89.553,
                    PRECISION = 0.03)
          )

#
TEST_RESU(   RESU=_F( RESULTAT = REP_NLIN,
                    NOM_CHAM = 'REAC_NODA',
                    NUME_ORDRE = 200,
                    GROUP_NO = 'P7',
                    NOM_CMP = 'DZ',
                    VALE = -11.035,
                    PRECISION = 0.04)
          )

#
TEST_RESU(   RESU=_F( RESULTAT = REP_NLIN,
                    NOM_CHAM = 'REAC_NODA',
                    NUME_ORDRE = 300,
                    GROUP_NO = 'P7',
                    NOM_CMP = 'DZ',
                    VALE = 63.921,
                    PRECISION = 0.025)
          )

#
TEST_RESU(   RESU=_F( RESULTAT = REP_NLIN,
                    NOM_CHAM = 'REAC_NODA',
                    NUME_ORDRE = 400,
                    GROUP_NO = 'P7',
                    NOM_CMP = 'DZ',
                    VALE = -211.55,
                    PRECISION = 0.015)
          )

#
TEST_RESU(   RESU=_F( RESULTAT = REP_NLIN,
                    NOM_CHAM = 'REAC_NODA',
                    NUME_ORDRE = 500,
                    GROUP_NO = 'P7',
                    NOM_CMP = 'DZ',
                    VALE = 91.163,
                    PRECISION = 0.015)
          )

#
TEST_RESU(   RESU=_F( RESULTAT = REP_NLIN,
                    NOM_CHAM = 'REAC_NODA',
                    NUME_ORDRE = 600,
                    GROUP_NO = 'P7',
                    NOM_CMP = 'DZ',
                    VALE = .16731,
                    PRECISION = 40.0)
          )

#
TEST_RESU(   RESU=_F( RESULTAT = REP_NLIN,
                    NOM_CHAM = 'REAC_NODA',
                    NUME_ORDRE = 700,
                    GROUP_NO = 'P7',
                    NOM_CMP = 'DZ',
                    VALE = 68.189,
                    PRECISION = 0.10)
          )

#
TEST_RESU(   RESU=_F( RESULTAT = REP_NLIN,
                    NOM_CHAM = 'REAC_NODA',
                    NUME_ORDRE = 800,
                    GROUP_NO = 'P7',
                    NOM_CMP = 'DZ',
                    VALE = -29.295,
                    PRECISION = 0.07)
          )

#
TEST_RESU(   RESU=_F( RESULTAT = REP_NLIN,
                    NOM_CHAM = 'REAC_NODA',
                    NUME_ORDRE = 900,
                    GROUP_NO = 'P7',
                    NOM_CMP = 'DZ',
                    VALE = -37.264,
                    PRECISION = 0.12)
          )

#
TEST_RESU(   RESU=_F( RESULTAT = REP_NLIN,
                    NOM_CHAM = 'REAC_NODA',
                    NUME_ORDRE = 1000,
                    GROUP_NO = 'P7',
                    NOM_CMP = 'DZ',
                    VALE = 21.476,
                    PRECISION = 0.57)
          )

#
# MOMENTS NODAUX AU POINT P7
#
# MOMENTS SUIVANT X
#
TEST_RESU(   RESU=_F( RESULTAT = REP_NLIN,
                    NOM_CHAM = 'REAC_NODA',
                    NUME_ORDRE = 100,
                    GROUP_NO = 'P7',
                    NOM_CMP = 'DRX',
                    VALE = -74.034,
                    PRECISION = 0.02)
          )

#
TEST_RESU(   RESU=_F( RESULTAT = REP_NLIN,
                    NOM_CHAM = 'REAC_NODA',
                    NUME_ORDRE = 200,
                    GROUP_NO = 'P7',
                    NOM_CMP = 'DRX',
                    VALE = -38.893,
                    PRECISION = 0.025)
          )

#
TEST_RESU(   RESU=_F( RESULTAT = REP_NLIN,
                    NOM_CHAM = 'REAC_NODA',
                    NUME_ORDRE = 300,
                    GROUP_NO = 'P7',
                    NOM_CMP = 'DRX',
                    VALE = -10.804,
                    PRECISION = 0.12)
          )

#
TEST_RESU(   RESU=_F( RESULTAT = REP_NLIN,
                    NOM_CHAM = 'REAC_NODA',
                    NUME_ORDRE = 400,
                    GROUP_NO = 'P7',
                    NOM_CMP = 'DRX',
                    VALE = 169.48,
                    PRECISION = 0.015)
          )

#
TEST_RESU(   RESU=_F( RESULTAT = REP_NLIN,
                    NOM_CHAM = 'REAC_NODA',
                    NUME_ORDRE = 500,
                    GROUP_NO = 'P7',
                    NOM_CMP = 'DRX',
                    VALE = -20.097,
                    PRECISION = 0.02)
          )

#
TEST_RESU(   RESU=_F( RESULTAT = REP_NLIN,
                    NOM_CHAM = 'REAC_NODA',
                    NUME_ORDRE = 600,
                    GROUP_NO = 'P7',
                    NOM_CMP = 'DRX',
                    VALE = -43.198,
                    PRECISION = 0.10)
          )

#
TEST_RESU(   RESU=_F( RESULTAT = REP_NLIN,
                    NOM_CHAM = 'REAC_NODA',
                    NUME_ORDRE = 700,
                    GROUP_NO = 'P7',
                    NOM_CMP = 'DRX',
                    VALE = -79.489,
                    PRECISION = 0.04)
          )

#
TEST_RESU(   RESU=_F( RESULTAT = REP_NLIN,
                    NOM_CHAM = 'REAC_NODA',
                    NUME_ORDRE = 800,
                    GROUP_NO = 'P7',
                    NOM_CMP = 'DRX',
                    VALE = 8.6155,
                    PRECISION = 0.05)
          )

#
TEST_RESU(   RESU=_F( RESULTAT = REP_NLIN,
                    NOM_CHAM = 'REAC_NODA',
                    NUME_ORDRE = 900,
                    GROUP_NO = 'P7',
                    NOM_CMP = 'DRX',
                    VALE = 60.243,
                    PRECISION = 0.035)
          )

#
TEST_RESU(   RESU=_F( RESULTAT = REP_NLIN,
                    NOM_CHAM = 'REAC_NODA',
                    NUME_ORDRE = 1000,
                    GROUP_NO = 'P7',
                    NOM_CMP = 'DRX',
                    VALE = 39.570,
                    PRECISION = 0.14)
          )

#
# MOMENTS SUIVANT Y
#
TEST_RESU(   RESU=_F( RESULTAT = REP_NLIN,
                    NOM_CHAM = 'REAC_NODA',
                    NUME_ORDRE = 100,
                    GROUP_NO = 'P7',
                    NOM_CMP = 'DRY',
                    VALE = -151.76,
                    PRECISION = 0.014)
          )

#
TEST_RESU(   RESU=_F( RESULTAT = REP_NLIN,
                    NOM_CHAM = 'REAC_NODA',
                    NUME_ORDRE = 200,
                    GROUP_NO = 'P7',
                    NOM_CMP = 'DRY',
                    VALE = 76.001,
                    PRECISION = 0.02)
          )

#
TEST_RESU(   RESU=_F( RESULTAT = REP_NLIN,
                    NOM_CHAM = 'REAC_NODA',
                    NUME_ORDRE = 300,
                    GROUP_NO = 'P7',
                    NOM_CMP = 'DRY',
                    VALE = 16.296,
                    PRECISION = 0.01)
          )

#
TEST_RESU(   RESU=_F( RESULTAT = REP_NLIN,
                    NOM_CHAM = 'REAC_NODA',
                    NUME_ORDRE = 400,
                    GROUP_NO = 'P7',
                    NOM_CMP = 'DRY',
                    VALE = -122.87,
                    PRECISION = 0.01)
          )

#
TEST_RESU(   RESU=_F( RESULTAT = REP_NLIN,
                    NOM_CHAM = 'REAC_NODA',
                    NUME_ORDRE = 500,
                    GROUP_NO = 'P7',
                    NOM_CMP = 'DRY',
                    VALE = 38.337,
                    PRECISION = 0.0975)
          )

#
TEST_RESU(   RESU=_F( RESULTAT = REP_NLIN,
                    NOM_CHAM = 'REAC_NODA',
                    NUME_ORDRE = 600,
                    GROUP_NO = 'P7',
                    NOM_CMP = 'DRY',
                    VALE = 10.142,
                    PRECISION = 0.47)
          )

#
TEST_RESU(   RESU=_F( RESULTAT = REP_NLIN,
                    NOM_CHAM = 'REAC_NODA',
                    NUME_ORDRE = 700,
                    GROUP_NO = 'P7',
                    NOM_CMP = 'DRY',
                    VALE = -103.70,
                    PRECISION = 0.025)
          )

#
TEST_RESU(   RESU=_F( RESULTAT = REP_NLIN,
                    NOM_CHAM = 'REAC_NODA',
                    NUME_ORDRE = 800,
                    GROUP_NO = 'P7',
                    NOM_CMP = 'DRY',
                    VALE = -9.5846,
                    PRECISION = 0.35)
          )

#
TEST_RESU(   RESU=_F( RESULTAT = REP_NLIN,
                    NOM_CHAM = 'REAC_NODA',
                    NUME_ORDRE = 900,
                    GROUP_NO = 'P7',
                    NOM_CMP = 'DRY',
                    VALE = 65.596,
                    PRECISION = 0.14)
          )

#
TEST_RESU(   RESU=_F( RESULTAT = REP_NLIN,
                    NOM_CHAM = 'REAC_NODA',
                    NUME_ORDRE = 1000,
                    GROUP_NO = 'P7',
                    NOM_CMP = 'DRY',
                    VALE = -140.51,
                    PRECISION = 0.055)
          )

#
# MOMENTS SUIVANT Z
#
TEST_RESU(   RESU=_F( RESULTAT = REP_NLIN,
                    NOM_CHAM = 'REAC_NODA',
                    NUME_ORDRE = 100,
                    GROUP_NO = 'P7',
                    NOM_CMP = 'DRZ',
                    VALE = 1037.5,
                    PRECISION = 0.01)
          )

#
TEST_RESU(   RESU=_F( RESULTAT = REP_NLIN,
                    NOM_CHAM = 'REAC_NODA',
                    NUME_ORDRE = 200,
                    GROUP_NO = 'P7',
                    NOM_CMP = 'DRZ',
                    VALE = -564.13,
                    PRECISION = 0.01)
          )

#
TEST_RESU(   RESU=_F( RESULTAT = REP_NLIN,
                    NOM_CHAM = 'REAC_NODA',
                    NUME_ORDRE = 300,
                    GROUP_NO = 'P7',
                    NOM_CMP = 'DRZ',
                    VALE = -374.60,
                    PRECISION = 0.01)
          )

#
TEST_RESU(   RESU=_F( RESULTAT = REP_NLIN,
                    NOM_CHAM = 'REAC_NODA',
                    NUME_ORDRE = 400,
                    GROUP_NO = 'P7',
                    NOM_CMP = 'DRZ',
                    VALE = 1004.4,
                    PRECISION = 0.015)
          )

#
TEST_RESU(   RESU=_F( RESULTAT = REP_NLIN,
                    NOM_CHAM = 'REAC_NODA',
                    NUME_ORDRE = 500,
                    GROUP_NO = 'P7',
                    NOM_CMP = 'DRZ',
                    VALE = -361.83,
                    PRECISION = 0.065)
          )

#
TEST_RESU(   RESU=_F( RESULTAT = REP_NLIN,
                    NOM_CHAM = 'REAC_NODA',
                    NUME_ORDRE = 600,
                    GROUP_NO = 'P7',
                    NOM_CMP = 'DRZ',
                    VALE = -342.59,
                    PRECISION = 0.06)
          )

#
TEST_RESU(   RESU=_F( RESULTAT = REP_NLIN,
                    NOM_CHAM = 'REAC_NODA',
                    NUME_ORDRE = 700,
                    GROUP_NO = 'P7',
                    NOM_CMP = 'DRZ',
                    VALE = 948.66,
                    PRECISION = 0.005)
          )

#
TEST_RESU(   RESU=_F( RESULTAT = REP_NLIN,
                    NOM_CHAM = 'REAC_NODA',
                    NUME_ORDRE = 800,
                    GROUP_NO = 'P7',
                    NOM_CMP = 'DRZ',
                    VALE = -235.87,
                    PRECISION = 0.11)
          )

#
TEST_RESU(   RESU=_F( RESULTAT = REP_NLIN,
                    NOM_CHAM = 'REAC_NODA',
                    NUME_ORDRE = 900,
                    GROUP_NO = 'P7',
                    NOM_CMP = 'DRZ',
                    VALE = -501.19,
                    PRECISION = 0.075)
          )

#
TEST_RESU(   RESU=_F( RESULTAT = REP_NLIN,
                    NOM_CHAM = 'REAC_NODA',
                    NUME_ORDRE = 1000,
                    GROUP_NO = 'P7',
                    NOM_CMP = 'DRZ',
                    VALE = 1077.8,
                    PRECISION = 0.015)
          )

#
# DEPLACEMENT AU POINT P2
#
# DEPLACEMENT SUIVANT X
#
TEST_RESU(   RESU=_F( RESULTAT = REP_NLIN,
                    NOM_CHAM = 'DEPL',
                    NUME_ORDRE = 100,
                    GROUP_NO = 'P2',
                    NOM_CMP = 'DX',
                    VALE = -1.44001E-05,
                    PRECISION = 0.005)
          )

#
TEST_RESU(   RESU=_F( RESULTAT = REP_NLIN,
                    NOM_CHAM = 'DEPL',
                    NUME_ORDRE = 200,
                    GROUP_NO = 'P2',
                    NOM_CMP = 'DX',
                    VALE = 9.61052E-06,
                    PRECISION = 0.005)
          )

#
TEST_RESU(   RESU=_F( RESULTAT = REP_NLIN,
                    NOM_CHAM = 'DEPL',
                    NUME_ORDRE = 300,
                    GROUP_NO = 'P2',
                    NOM_CMP = 'DX',
                    VALE = 1.29930E-05,
                    PRECISION = 0.025)
          )

#
TEST_RESU(   RESU=_F( RESULTAT = REP_NLIN,
                    NOM_CHAM = 'DEPL',
                    NUME_ORDRE = 400,
                    GROUP_NO = 'P2',
                    NOM_CMP = 'DX',
                    VALE = -2.01319E-05,
                    PRECISION = 0.0175)
          )

#
TEST_RESU(   RESU=_F( RESULTAT = REP_NLIN,
                    NOM_CHAM = 'DEPL',
                    NUME_ORDRE = 500,
                    GROUP_NO = 'P2',
                    NOM_CMP = 'DX',
                    VALE = 8.30830E-06,
                    PRECISION = 0.01)
          )

#
TEST_RESU(   RESU=_F( RESULTAT = REP_NLIN,
                    NOM_CHAM = 'DEPL',
                    NUME_ORDRE = 600,
                    GROUP_NO = 'P2',
                    NOM_CMP = 'DX',
                    VALE = 1.32044E-05,
                    PRECISION = 0.02)
          )

#
TEST_RESU(   RESU=_F( RESULTAT = REP_NLIN,
                    NOM_CHAM = 'DEPL',
                    NUME_ORDRE = 700,
                    GROUP_NO = 'P2',
                    NOM_CMP = 'DX',
                    VALE = -2.02651E-05,
                    PRECISION = 0.01)
          )

#
TEST_RESU(   RESU=_F( RESULTAT = REP_NLIN,
                    NOM_CHAM = 'DEPL',
                    NUME_ORDRE = 800,
                    GROUP_NO = 'P2',
                    NOM_CMP = 'DX',
                    VALE = 1.19640E-05,
                    PRECISION = 0.025)
          )

#
TEST_RESU(   RESU=_F( RESULTAT = REP_NLIN,
                    NOM_CHAM = 'DEPL',
                    NUME_ORDRE = 900,
                    GROUP_NO = 'P2',
                    NOM_CMP = 'DX',
                    VALE = 8.46065E-06,
                    PRECISION = 0.025)
          )

#
TEST_RESU(   RESU=_F( RESULTAT = REP_NLIN,
                    NOM_CHAM = 'DEPL',
                    NUME_ORDRE = 1000,
                    GROUP_NO = 'P2',
                    NOM_CMP = 'DX',
                    VALE = -1.88365E-05,
                    PRECISION = 0.015)
          )

#
# DEPLACEMENT SUIVANT Y
#
TEST_RESU(   RESU=_F( RESULTAT = REP_NLIN,
                    NOM_CHAM = 'DEPL',
                    NUME_ORDRE = 100,
                    GROUP_NO = 'P2',
                    NOM_CMP = 'DY',
                    VALE = 4.37009E-04,
                    PRECISION = 0.005)
          )

#
TEST_RESU(   RESU=_F( RESULTAT = REP_NLIN,
                    NOM_CHAM = 'DEPL',
                    NUME_ORDRE = 200,
                    GROUP_NO = 'P2',
                    NOM_CMP = 'DY',
                    VALE = -1.38044E-03,
                    PRECISION = 0.01)
          )

#
TEST_RESU(   RESU=_F( RESULTAT = REP_NLIN,
                    NOM_CHAM = 'DEPL',
                    NUME_ORDRE = 300,
                    GROUP_NO = 'P2',
                    NOM_CMP = 'DY',
                    VALE = -1.59439E-03,
                    PRECISION = 0.015)
          )

#
TEST_RESU(   RESU=_F( RESULTAT = REP_NLIN,
                    NOM_CHAM = 'DEPL',
                    NUME_ORDRE = 400,
                    GROUP_NO = 'P2',
                    NOM_CMP = 'DY',
                    VALE = 4.02934E-03,
                    PRECISION = 0.005)
          )

#
TEST_RESU(   RESU=_F( RESULTAT = REP_NLIN,
                    NOM_CHAM = 'DEPL',
                    NUME_ORDRE = 500,
                    GROUP_NO = 'P2',
                    NOM_CMP = 'DY',
                    VALE = -4.92943E-05,
                    PRECISION = 20.0)
          )

#
TEST_RESU(   RESU=_F( RESULTAT = REP_NLIN,
                    NOM_CHAM = 'DEPL',
                    NUME_ORDRE = 600,
                    GROUP_NO = 'P2',
                    NOM_CMP = 'DY',
                    VALE = -9.65086E-04,
                    PRECISION = 0.04)
          )

#
TEST_RESU(   RESU=_F( RESULTAT = REP_NLIN,
                    NOM_CHAM = 'DEPL',
                    NUME_ORDRE = 700,
                    GROUP_NO = 'P2',
                    NOM_CMP = 'DY',
                    VALE = -6.87899E-04,
                    PRECISION = 0.035)
          )

#
TEST_RESU(   RESU=_F( RESULTAT = REP_NLIN,
                    NOM_CHAM = 'DEPL',
                    NUME_ORDRE = 800,
                    GROUP_NO = 'P2',
                    NOM_CMP = 'DY',
                    VALE = -1.62835E-03,
                    PRECISION = 0.03)
          )

#
TEST_RESU(   RESU=_F( RESULTAT = REP_NLIN,
                    NOM_CHAM = 'DEPL',
                    NUME_ORDRE = 900,
                    GROUP_NO = 'P2',
                    NOM_CMP = 'DY',
                    VALE = 8.57745E-04,
                    PRECISION = 0.05)
          )

#
TEST_RESU(   RESU=_F( RESULTAT = REP_NLIN,
                    NOM_CHAM = 'DEPL',
                    NUME_ORDRE = 1000,
                    GROUP_NO = 'P2',
                    NOM_CMP = 'DY',
                    VALE = 3.85519E-03,
                    PRECISION = 0.005)
          )

#
# DEPLACEMENT SUIVANT Z
#
TEST_RESU(   RESU=_F( RESULTAT = REP_NLIN,
                    NOM_CHAM = 'DEPL',
                    NUME_ORDRE = 100,
                    GROUP_NO = 'P2',
                    NOM_CMP = 'DZ',
                    VALE = 3.65008E-03,
                    PRECISION = 0.01)
          )

#
TEST_RESU(   RESU=_F( RESULTAT = REP_NLIN,
                    NOM_CHAM = 'DEPL',
                    NUME_ORDRE = 200,
                    GROUP_NO = 'P2',
                    NOM_CMP = 'DZ',
                    VALE = -3.96127E-03,
                    PRECISION = 0.01)
          )

#
TEST_RESU(   RESU=_F( RESULTAT = REP_NLIN,
                    NOM_CHAM = 'DEPL',
                    NUME_ORDRE = 300,
                    GROUP_NO = 'P2',
                    NOM_CMP = 'DZ',
                    VALE = -3.07576E-03,
                    PRECISION = 0.025)
          )

#
TEST_RESU(   RESU=_F( RESULTAT = REP_NLIN,
                    NOM_CHAM = 'DEPL',
                    NUME_ORDRE = 400,
                    GROUP_NO = 'P2',
                    NOM_CMP = 'DZ',
                    VALE = 7.70367E-03,
                    PRECISION = 0.02)
          )

#
TEST_RESU(   RESU=_F( RESULTAT = REP_NLIN,
                    NOM_CHAM = 'DEPL',
                    NUME_ORDRE = 500,
                    GROUP_NO = 'P2',
                    NOM_CMP = 'DZ',
                    VALE = -1.82725E-03,
                    PRECISION = 0.015)
          )

#
TEST_RESU(   RESU=_F( RESULTAT = REP_NLIN,
                    NOM_CHAM = 'DEPL',
                    NUME_ORDRE = 600,
                    GROUP_NO = 'P2',
                    NOM_CMP = 'DZ',
                    VALE = -4.58492E-03,
                    PRECISION = 0.03)
          )

#
TEST_RESU(   RESU=_F( RESULTAT = REP_NLIN,
                    NOM_CHAM = 'DEPL',
                    NUME_ORDRE = 700,
                    GROUP_NO = 'P2',
                    NOM_CMP = 'DZ',
                    VALE = 4.57953E-03,
                    PRECISION = 0.015)
          )

#
TEST_RESU(   RESU=_F( RESULTAT = REP_NLIN,
                    NOM_CHAM = 'DEPL',
                    NUME_ORDRE = 800,
                    GROUP_NO = 'P2',
                    NOM_CMP = 'DZ',
                    VALE = -3.25536E-03,
                    PRECISION = 0.025)
          )

#
TEST_RESU(   RESU=_F( RESULTAT = REP_NLIN,
                    NOM_CHAM = 'DEPL',
                    NUME_ORDRE = 900,
                    GROUP_NO = 'P2',
                    NOM_CMP = 'DZ',
                    VALE = -1.43437E-03,
                    PRECISION = 0.07)
          )

#
TEST_RESU(   RESU=_F( RESULTAT = REP_NLIN,
                    NOM_CHAM = 'DEPL',
                    NUME_ORDRE = 1000,
                    GROUP_NO = 'P2',
                    NOM_CMP = 'DZ',
                    VALE = 6.86205E-03,
                    PRECISION = 0.01)
          )

#
# DEPLACEMENT DU POINT P3
#
# DEPLACEMENT SUIVANT X
#
TEST_RESU(   RESU=_F( RESULTAT = REP_NLIN,
                    NOM_CHAM = 'DEPL',
                    NUME_ORDRE = 100,
                    GROUP_NO = 'P3',
                    NOM_CMP = 'DX',
                    VALE = -9.05890E-03,
                    PRECISION = 0.01)
          )

#
TEST_RESU(   RESU=_F( RESULTAT = REP_NLIN,
                    NOM_CHAM = 'DEPL',
                    NUME_ORDRE = 200,
                    GROUP_NO = 'P3',
                    NOM_CMP = 'DX',
                    VALE = 5.14557E-03,
                    PRECISION = 0.015)
          )

#
TEST_RESU(   RESU=_F( RESULTAT = REP_NLIN,
                    NOM_CHAM = 'DEPL',
                    NUME_ORDRE = 300,
                    GROUP_NO = 'P3',
                    NOM_CMP = 'DX',
                    VALE = 6.24407E-03,
                    PRECISION = 0.015)
          )

#
TEST_RESU(   RESU=_F( RESULTAT = REP_NLIN,
                    NOM_CHAM = 'DEPL',
                    NUME_ORDRE = 400,
                    GROUP_NO = 'P3',
                    NOM_CMP = 'DX',
                    VALE = -1.03957E-02,
                    PRECISION = 0.005)
          )

#
TEST_RESU(   RESU=_F( RESULTAT = REP_NLIN,
                    NOM_CHAM = 'DEPL',
                    NUME_ORDRE = 500,
                    GROUP_NO = 'P3',
                    NOM_CMP = 'DX',
                    VALE = 4.52030E-03,
                    PRECISION = 0.03)
          )

#
TEST_RESU(   RESU=_F( RESULTAT = REP_NLIN,
                    NOM_CHAM = 'DEPL',
                    NUME_ORDRE = 600,
                    GROUP_NO = 'P3',
                    NOM_CMP = 'DX',
                    VALE = 5.77181E-03,
                    PRECISION = 0.02)
          )

#
TEST_RESU(   RESU=_F( RESULTAT = REP_NLIN,
                    NOM_CHAM = 'DEPL',
                    NUME_ORDRE = 700,
                    GROUP_NO = 'P3',
                    NOM_CMP = 'DX',
                    VALE = -1.11065E-02,
                    PRECISION = 0.01)
          )

#
TEST_RESU(   RESU=_F( RESULTAT = REP_NLIN,
                    NOM_CHAM = 'DEPL',
                    NUME_ORDRE = 800,
                    GROUP_NO = 'P3',
                    NOM_CMP = 'DX',
                    VALE = 5.18686E-03,
                    PRECISION = 0.04)  
          )

#
TEST_RESU(   RESU=_F( RESULTAT = REP_NLIN,
                    NOM_CHAM = 'DEPL',
                    NUME_ORDRE = 900,
                    GROUP_NO = 'P3',
                    NOM_CMP = 'DX',
                    VALE = 5.16234E-03,
                    PRECISION = 0.035)
          )

#
TEST_RESU(   RESU=_F( RESULTAT = REP_NLIN,
                    NOM_CHAM = 'DEPL',
                    NUME_ORDRE = 1000,
                    GROUP_NO = 'P3',
                    NOM_CMP = 'DX',
                    VALE = -1.02191E-02,
                    PRECISION = 0.02)
          )

#
# DEPLACEMENT SUIVANT Y
#
TEST_RESU(   RESU=_F( RESULTAT = REP_NLIN,
                    NOM_CHAM = 'DEPL',
                    NUME_ORDRE = 100,
                    GROUP_NO = 'P3',
                    NOM_CMP = 'DY',
                    VALE = -4.47989E-04,
                    PRECISION = 0.005)
          )

#
TEST_RESU(   RESU=_F( RESULTAT = REP_NLIN,
                    NOM_CHAM = 'DEPL',
                    NUME_ORDRE = 200,
                    GROUP_NO = 'P3',
                    NOM_CMP = 'DY',
                    VALE = -1.43194E-03,
                    PRECISION = 0.015)
          )

#
TEST_RESU(   RESU=_F( RESULTAT = REP_NLIN,
                    NOM_CHAM = 'DEPL',
                    NUME_ORDRE = 300,
                    GROUP_NO = 'P3',
                    NOM_CMP = 'DY',
                    VALE = 3.73825E-04,
                    PRECISION = 0.04)
          )

#
TEST_RESU(   RESU=_F( RESULTAT = REP_NLIN,
                    NOM_CHAM = 'DEPL',
                    NUME_ORDRE = 400,
                    GROUP_NO = 'P3',
                    NOM_CMP = 'DY',
                    VALE = 1.60590E-03,
                    PRECISION = 0.025)
          )

#
TEST_RESU(   RESU=_F( RESULTAT = REP_NLIN,
                    NOM_CHAM = 'DEPL',
                    NUME_ORDRE = 500,
                    GROUP_NO = 'P3',
                    NOM_CMP = 'DY',
                    VALE = 1.41142E-03,
                    PRECISION = 0.02)
          )

#
TEST_RESU(   RESU=_F( RESULTAT = REP_NLIN,
                    NOM_CHAM = 'DEPL',
                    NUME_ORDRE = 600,
                    GROUP_NO = 'P3',
                    NOM_CMP = 'DY',
                    VALE = -1.02949E-03,
                    PRECISION = 0.005)
          )

#
TEST_RESU(   RESU=_F( RESULTAT = REP_NLIN,
                    NOM_CHAM = 'DEPL',
                    NUME_ORDRE = 700,
                    GROUP_NO = 'P3',
                    NOM_CMP = 'DY',
                    VALE = -1.74656E-03,
                    PRECISION = 0.035)
          )

#
TEST_RESU(   RESU=_F( RESULTAT = REP_NLIN,
                    NOM_CHAM = 'DEPL',
                    NUME_ORDRE = 800,
                    GROUP_NO = 'P3',
                    NOM_CMP = 'DY',
                    VALE = -8.74337E-04,
                    PRECISION = 0.02)
          )

#
TEST_RESU(   RESU=_F( RESULTAT = REP_NLIN,
                    NOM_CHAM = 'DEPL',
                    NUME_ORDRE = 900,
                    GROUP_NO = 'P3',
                    NOM_CMP = 'DY',
                    VALE = 1.51801E-03,
                    PRECISION = 0.005)
          )

#
TEST_RESU(   RESU=_F( RESULTAT = REP_NLIN,
                    NOM_CHAM = 'DEPL',
                    NUME_ORDRE = 1000,
                    GROUP_NO = 'P3',
                    NOM_CMP = 'DY',
                    VALE = 2.70666E-03,
                    PRECISION = 0.04)
          )

#
# DEPLACEMENT SUIVANT Z
#
TEST_RESU(   RESU=_F( RESULTAT = REP_NLIN,
                    NOM_CHAM = 'DEPL',
                    NUME_ORDRE = 100,
                    GROUP_NO = 'P3',
                    NOM_CMP = 'DZ',
                    VALE = -1.10664E-03,
                    PRECISION = 0.015)
          )

#
TEST_RESU(   RESU=_F( RESULTAT = REP_NLIN,
                    NOM_CHAM = 'DEPL',
                    NUME_ORDRE = 200,
                    GROUP_NO = 'P3',
                    NOM_CMP = 'DZ',
                    VALE = -1.61578E-03,
                    PRECISION = 0.015)
          )

#
TEST_RESU(   RESU=_F( RESULTAT = REP_NLIN,
                    NOM_CHAM = 'DEPL',
                    NUME_ORDRE = 300,
                    GROUP_NO = 'P3',
                    NOM_CMP = 'DZ',
                    VALE = 6.13795E-04,
                    PRECISION = 0.03)
          )

#
TEST_RESU(   RESU=_F( RESULTAT = REP_NLIN,
                    NOM_CHAM = 'DEPL',
                    NUME_ORDRE = 400,
                    GROUP_NO = 'P3',
                    NOM_CMP = 'DZ',
                    VALE = 2.69731E-03,
                    PRECISION = 0.02)
          )

#
TEST_RESU(   RESU=_F( RESULTAT = REP_NLIN,
                    NOM_CHAM = 'DEPL',
                    NUME_ORDRE = 500,
                    GROUP_NO = 'P3',
                    NOM_CMP = 'DZ',
                    VALE = 7.82845E-04,
                    PRECISION = 0.005)
          )

#
TEST_RESU(   RESU=_F( RESULTAT = REP_NLIN,
                    NOM_CHAM = 'DEPL',
                    NUME_ORDRE = 600,
                    GROUP_NO = 'P3',
                    NOM_CMP = 'DZ',
                    VALE = -1.53300E-03,
                    PRECISION = 0.035)
          )

#
TEST_RESU(   RESU=_F( RESULTAT = REP_NLIN,
                    NOM_CHAM = 'DEPL',
                    NUME_ORDRE = 700,
                    GROUP_NO = 'P3',
                    NOM_CMP = 'DZ',
                    VALE = -1.73051E-03,
                    PRECISION = 0.005)
          )

#
TEST_RESU(   RESU=_F( RESULTAT = REP_NLIN,
                    NOM_CHAM = 'DEPL',
                    NUME_ORDRE = 800,
                    GROUP_NO = 'P3',
                    NOM_CMP = 'DZ',
                    VALE = -2.16718E-04,
                    PRECISION = 0.07)
          )

#
TEST_RESU(   RESU=_F( RESULTAT = REP_NLIN,
                    NOM_CHAM = 'DEPL',
                    NUME_ORDRE = 900,
                    GROUP_NO = 'P3',
                    NOM_CMP = 'DZ',
                    VALE = 1.54963E-03,
                    PRECISION = 0.005)
          )

#
TEST_RESU(   RESU=_F( RESULTAT = REP_NLIN,
                    NOM_CHAM = 'DEPL',
                    NUME_ORDRE = 1000,
                    GROUP_NO = 'P3',
                    NOM_CMP = 'DZ',
                    VALE = 1.92476E-03,
                    PRECISION = 0.01)
          )

#
# DEPLACEMENT DU POINT P4
#
# DEPLACEMENT SUIVANT X
#
TEST_RESU(   RESU=_F( RESULTAT = REP_NLIN,
                    NOM_CHAM = 'DEPL',
                    NUME_ORDRE = 100,
                    GROUP_NO = 'P4',
                    NOM_CMP = 'DX',
                    VALE = -1.38976E-02,
                    PRECISION = 0.01)
          )

#
TEST_RESU(   RESU=_F( RESULTAT = REP_NLIN,
                    NOM_CHAM = 'DEPL',
                    NUME_ORDRE = 200,
                    GROUP_NO = 'P4',
                    NOM_CMP = 'DX',
                    VALE = 7.89716E-03,
                    PRECISION = 0.01)
          )

#
TEST_RESU(   RESU=_F( RESULTAT = REP_NLIN,
                    NOM_CHAM = 'DEPL',
                    NUME_ORDRE = 300,
                    GROUP_NO = 'P4',
                    NOM_CMP = 'DX',
                    VALE = 8.98916E-03,
                    PRECISION = 0.015)
          )

#
TEST_RESU(   RESU=_F( RESULTAT = REP_NLIN,
                    NOM_CHAM = 'DEPL',
                    NUME_ORDRE = 400,
                    GROUP_NO = 'P4',
                    NOM_CMP = 'DX',
                    VALE = -1.57267E-02,
                    PRECISION = 0.005)
          )

#
TEST_RESU(   RESU=_F( RESULTAT = REP_NLIN,
                    NOM_CHAM = 'DEPL',
                    NUME_ORDRE = 500,
                    GROUP_NO = 'P4',
                    NOM_CMP = 'DX',
                    VALE = 6.67276E-03,
                    PRECISION = 0.03)
          )

#
TEST_RESU(   RESU=_F( RESULTAT = REP_NLIN,
                    NOM_CHAM = 'DEPL',
                    NUME_ORDRE = 600,
                    GROUP_NO = 'P4',
                    NOM_CMP = 'DX',
                    VALE = 8.34365E-03,
                    PRECISION = 0.025)
          )

#
TEST_RESU(   RESU=_F( RESULTAT = REP_NLIN,
                    NOM_CHAM = 'DEPL',
                    NUME_ORDRE = 700,
                    GROUP_NO = 'P4',
                    NOM_CMP = 'DX',
                    VALE = -1.64711E-02,
                    PRECISION = 0.005)
          )

#
TEST_RESU(   RESU=_F( RESULTAT = REP_NLIN,
                    NOM_CHAM = 'DEPL',
                    NUME_ORDRE = 800,
                    GROUP_NO = 'P4',
                    NOM_CMP = 'DX',
                    VALE = 7.33717E-03,
                    PRECISION = 0.045)
          )

#
TEST_RESU(   RESU=_F( RESULTAT = REP_NLIN,
                    NOM_CHAM = 'DEPL',
                    NUME_ORDRE = 900,
                    GROUP_NO = 'P4',
                    NOM_CMP = 'DX',
                    VALE = 7.74856E-03,
                    PRECISION = 0.04)
          )

#
TEST_RESU(   RESU=_F( RESULTAT = REP_NLIN,
                    NOM_CHAM = 'DEPL',
                    NUME_ORDRE = 1000,
                    GROUP_NO = 'P4',
                    NOM_CMP = 'DX',
                    VALE = -1.55743E-02,
                    PRECISION = 0.01)
          )

#
# DEPLACEMENT SUIVANT Y
#
TEST_RESU(   RESU=_F( RESULTAT = REP_NLIN,
                    NOM_CHAM = 'DEPL',
                    NUME_ORDRE = 100,
                    GROUP_NO = 'P4',
                    NOM_CMP = 'DY',
                    VALE = -1.88776E-04,
                    PRECISION = 0.015)
          )

#
TEST_RESU(   RESU=_F( RESULTAT = REP_NLIN,
                    NOM_CHAM = 'DEPL',
                    NUME_ORDRE = 200,
                    GROUP_NO = 'P4',
                    NOM_CMP = 'DY',
                    VALE = -1.34041E-03,
                    PRECISION = 0.015)
          )

#
TEST_RESU(   RESU=_F( RESULTAT = REP_NLIN,
                    NOM_CHAM = 'DEPL',
                    NUME_ORDRE = 300,
                    GROUP_NO = 'P4',
                    NOM_CMP = 'DY',
                    VALE = 5.79652E-04,
                    PRECISION = 0.02)
          )

#
TEST_RESU(   RESU=_F( RESULTAT = REP_NLIN,
                    NOM_CHAM = 'DEPL',
                    NUME_ORDRE = 400,
                    GROUP_NO = 'P4',
                    NOM_CMP = 'DY',
                    VALE = 1.06961E-03,
                    PRECISION = 0.03)
          )

#
TEST_RESU(   RESU=_F( RESULTAT = REP_NLIN,
                    NOM_CHAM = 'DEPL',
                    NUME_ORDRE = 500,
                    GROUP_NO = 'P4',
                    NOM_CMP = 'DY',
                    VALE = 1.25907E-03,
                    PRECISION = 0.015)
          )

#
TEST_RESU(   RESU=_F( RESULTAT = REP_NLIN,
                    NOM_CHAM = 'DEPL',
                    NUME_ORDRE = 600,
                    GROUP_NO = 'P4',
                    NOM_CMP = 'DY',
                    VALE = -1.02938E-03,
                    PRECISION = 0.005)
          )

#
TEST_RESU(   RESU=_F( RESULTAT = REP_NLIN,
                    NOM_CHAM = 'DEPL',
                    NUME_ORDRE = 700,
                    GROUP_NO = 'P4',
                    NOM_CMP = 'DY',
                    VALE = -1.16188E-03,
                    PRECISION = 0.045)
          )

#
TEST_RESU(   RESU=_F( RESULTAT = REP_NLIN,
                    NOM_CHAM = 'DEPL',
                    NUME_ORDRE = 800,
                    GROUP_NO = 'P4',
                    NOM_CMP = 'DY',
                    VALE = -6.25818E-04,
                    PRECISION = 0.015)
          )

#
TEST_RESU(   RESU=_F( RESULTAT = REP_NLIN,
                    NOM_CHAM = 'DEPL',
                    NUME_ORDRE = 900,
                    GROUP_NO = 'P4',
                    NOM_CMP = 'DY',
                    VALE = 1.11525E-03,
                    PRECISION = 0.02)
          )

#
TEST_RESU(   RESU=_F( RESULTAT = REP_NLIN,
                    NOM_CHAM = 'DEPL',
                    NUME_ORDRE = 1000,
                    GROUP_NO = 'P4',
                    NOM_CMP = 'DY',
                    VALE = 2.18585E-03,
                    PRECISION = 0.045)
          )

#
# DEPLACEMENT SUIVANT Z
#
TEST_RESU(   RESU=_F( RESULTAT = REP_NLIN,
                    NOM_CHAM = 'DEPL',
                    NUME_ORDRE = 100,
                    GROUP_NO = 'P4',
                    NOM_CMP = 'DZ',
                    VALE = -1.10602E-03,
                    PRECISION = 0.015)
          )

#
TEST_RESU(   RESU=_F( RESULTAT = REP_NLIN,
                    NOM_CHAM = 'DEPL',
                    NUME_ORDRE = 200,
                    GROUP_NO = 'P4',
                    NOM_CMP = 'DZ',
                    VALE = -1.61636E-03,
                    PRECISION = 0.015)
          )

#
TEST_RESU(   RESU=_F( RESULTAT = REP_NLIN,
                    NOM_CHAM = 'DEPL',
                    NUME_ORDRE = 300,
                    GROUP_NO = 'P4',
                    NOM_CMP = 'DZ',
                    VALE = 6.13758E-04,
                    PRECISION = 0.03)
          )

#
TEST_RESU(   RESU=_F( RESULTAT = REP_NLIN,
                    NOM_CHAM = 'DEPL',
                    NUME_ORDRE = 400,
                    GROUP_NO = 'P4',
                    NOM_CMP = 'DZ',
                    VALE = 2.69823E-03,
                    PRECISION = 0.02)
          )

#
TEST_RESU(   RESU=_F( RESULTAT = REP_NLIN,
                    NOM_CHAM = 'DEPL',
                    NUME_ORDRE = 500,
                    GROUP_NO = 'P4',
                    NOM_CMP = 'DZ',
                    VALE = 7.82773E-04,
                    PRECISION = 0.005)
          )

#
TEST_RESU(   RESU=_F( RESULTAT = REP_NLIN,
                    NOM_CHAM = 'DEPL',
                    NUME_ORDRE = 600,
                    GROUP_NO = 'P4',
                    NOM_CMP = 'DZ',
                    VALE = -1.53328E-03,
                    PRECISION = 0.035)
          )

#
TEST_RESU(   RESU=_F( RESULTAT = REP_NLIN,
                    NOM_CHAM = 'DEPL',
                    NUME_ORDRE = 700,
                    GROUP_NO = 'P4',
                    NOM_CMP = 'DZ',
                    VALE = -1.73018E-03,
                    PRECISION = 0.005)
          )

#
TEST_RESU(   RESU=_F( RESULTAT = REP_NLIN,
                    NOM_CHAM = 'DEPL',
                    NUME_ORDRE = 800,
                    GROUP_NO = 'P4',
                    NOM_CMP = 'DZ',
                    VALE = -2.16767E-04,
                    PRECISION = 0.07)
          )

#
TEST_RESU(   RESU=_F( RESULTAT = REP_NLIN,
                    NOM_CHAM = 'DEPL',
                    NUME_ORDRE = 900,
                    GROUP_NO = 'P4',
                    NOM_CMP = 'DZ',
                    VALE = 1.54950E-03,
                    PRECISION = 0.005)
          )

#
TEST_RESU(   RESU=_F( RESULTAT = REP_NLIN,
                    NOM_CHAM = 'DEPL',
                    NUME_ORDRE = 1000,
                    GROUP_NO = 'P4',
                    NOM_CMP = 'DZ',
                    VALE = 1.92573E-03,
                    PRECISION = 0.01)
          )

#
# DEPLACEMENT DU POINT P5
#
# DEPLACEMENT SUIVANT X
#
TEST_RESU(   RESU=_F( RESULTAT = REP_NLIN,
                    NOM_CHAM = 'DEPL',
                    NUME_ORDRE = 100,
                    GROUP_NO = 'P5',
                    NOM_CMP = 'DX',
                    VALE = -1.78056E-02,
                    PRECISION = 0.01)
          )

#
TEST_RESU(   RESU=_F( RESULTAT = REP_NLIN,
                    NOM_CHAM = 'DEPL',
                    NUME_ORDRE = 200,
                    GROUP_NO = 'P5',
                    NOM_CMP = 'DX',
                    VALE = 1.00352E-02,
                    PRECISION = 0.01)
          )

#
TEST_RESU(   RESU=_F( RESULTAT = REP_NLIN,
                    NOM_CHAM = 'DEPL',
                    NUME_ORDRE = 300,
                    GROUP_NO = 'P5',
                    NOM_CMP = 'DX',
                    VALE = 1.05918E-02,
                    PRECISION = 0.01)
          )

#
TEST_RESU(   RESU=_F( RESULTAT = REP_NLIN,
                    NOM_CHAM = 'DEPL',
                    NUME_ORDRE = 400,
                    GROUP_NO = 'P5',
                    NOM_CMP = 'DX',
                    VALE = -1.96535E-02,
                    PRECISION = 0.005)
          )

#
TEST_RESU(   RESU=_F( RESULTAT = REP_NLIN,
                    NOM_CHAM = 'DEPL',
                    NUME_ORDRE = 500,
                    GROUP_NO = 'P5',
                    NOM_CMP = 'DX',
                    VALE = 8.15345E-03,
                    PRECISION = 0.04)
          )

#
TEST_RESU(   RESU=_F( RESULTAT = REP_NLIN,
                    NOM_CHAM = 'DEPL',
                    NUME_ORDRE = 600,
                    GROUP_NO = 'P5',
                    NOM_CMP = 'DX',
                    VALE = 9.80564E-03,
                    PRECISION = 0.03)
          )

#
TEST_RESU(   RESU=_F( RESULTAT = REP_NLIN,
                    NOM_CHAM = 'DEPL',
                    NUME_ORDRE = 700,
                    GROUP_NO = 'P5',
                    NOM_CMP = 'DX',
                    VALE = -2.02336E-02,
                    PRECISION = 0.005)
          )

#
TEST_RESU(   RESU=_F( RESULTAT = REP_NLIN,
                    NOM_CHAM = 'DEPL',
                    NUME_ORDRE = 800,
                    GROUP_NO = 'P5',
                    NOM_CMP = 'DX',
                    VALE = 8.39767E-03,
                    PRECISION = 0.05)
          )

#
TEST_RESU(   RESU=_F( RESULTAT = REP_NLIN,
                    NOM_CHAM = 'DEPL',
                    NUME_ORDRE = 900,
                    GROUP_NO = 'P5',
                    NOM_CMP = 'DX',
                    VALE = 9.69779E-03,
                    PRECISION = 0.045)
          )

#
TEST_RESU(   RESU=_F( RESULTAT = REP_NLIN,
                    NOM_CHAM = 'DEPL',
                    NUME_ORDRE = 1000,
                    GROUP_NO = 'P5',
                    NOM_CMP = 'DX',
                    VALE = -1.96671E-02,
                    PRECISION = 0.01)
          )

#
# DEPLACEMENT SUIVANT Y
#
TEST_RESU(   RESU=_F( RESULTAT = REP_NLIN,
                    NOM_CHAM = 'DEPL',
                    NUME_ORDRE = 100,
                    GROUP_NO = 'P5',
                    NOM_CMP = 'DY',
                    VALE = -8.73279E-05,
                    PRECISION = 0.045)
          )

#
TEST_RESU(   RESU=_F( RESULTAT = REP_NLIN,
                    NOM_CHAM = 'DEPL',
                    NUME_ORDRE = 200,
                    GROUP_NO = 'P5',
                    NOM_CMP = 'DY',
                    VALE = -1.01096E-03,
                    PRECISION = 0.01)
          )

#
TEST_RESU(   RESU=_F( RESULTAT = REP_NLIN,
                    NOM_CHAM = 'DEPL',
                    NUME_ORDRE = 300,
                    GROUP_NO = 'P5',
                    NOM_CMP = 'DY',
                    VALE = 5.26964E-04,
                    PRECISION = 0.015)
          )

#
TEST_RESU(   RESU=_F( RESULTAT = REP_NLIN,
                    NOM_CHAM = 'DEPL',
                    NUME_ORDRE = 400,
                    GROUP_NO = 'P5',
                    NOM_CMP = 'DY',
                    VALE = 6.78490E-04,
                    PRECISION = 0.04)
          )

#
TEST_RESU(   RESU=_F( RESULTAT = REP_NLIN,
                    NOM_CHAM = 'DEPL',
                    NUME_ORDRE = 500,
                    GROUP_NO = 'P5',
                    NOM_CMP = 'DY',
                    VALE = 9.08654E-04,
                    PRECISION = 0.005)
          )

#
TEST_RESU(   RESU=_F( RESULTAT = REP_NLIN,
                    NOM_CHAM = 'DEPL',
                    NUME_ORDRE = 600,
                    GROUP_NO = 'P5',
                    NOM_CMP = 'DY',
                    VALE = -8.11898E-04,
                    PRECISION = 0.005)
          )

#
TEST_RESU(   RESU=_F( RESULTAT = REP_NLIN,
                    NOM_CHAM = 'DEPL',
                    NUME_ORDRE = 700,
                    GROUP_NO = 'P5',
                    NOM_CMP = 'DY',
                    VALE = -7.12083E-04,
                    PRECISION = 0.05)
          )

#
TEST_RESU(   RESU=_F( RESULTAT = REP_NLIN,
                    NOM_CHAM = 'DEPL',
                    NUME_ORDRE = 800,
                    GROUP_NO = 'P5',
                    NOM_CMP = 'DY',
                    VALE = -3.81821E-04,
                    PRECISION = 0.04)
          )

#
TEST_RESU(   RESU=_F( RESULTAT = REP_NLIN,
                    NOM_CHAM = 'DEPL',
                    NUME_ORDRE = 900,
                    GROUP_NO = 'P5',
                    NOM_CMP = 'DY',
                    VALE = 7.35235E-04,
                    PRECISION = 0.035)
          )

#
TEST_RESU(   RESU=_F( RESULTAT = REP_NLIN,
                    NOM_CHAM = 'DEPL',
                    NUME_ORDRE = 1000,
                    GROUP_NO = 'P5',
                    NOM_CMP = 'DY',
                    VALE = 1.49131E-03,
                    PRECISION = 0.045)
          )

#
# DEPLACEMENT SUIVANT Z
#
TEST_RESU(   RESU=_F( RESULTAT = REP_NLIN,
                    NOM_CHAM = 'DEPL',
                    NUME_ORDRE = 100,
                    GROUP_NO = 'P5',
                    NOM_CMP = 'DZ',
                    VALE = -1.10555E-03,
                    PRECISION = 0.015)
          )

#
TEST_RESU(   RESU=_F( RESULTAT = REP_NLIN,
                    NOM_CHAM = 'DEPL',
                    NUME_ORDRE = 200,
                    GROUP_NO = 'P5',
                    NOM_CMP = 'DZ',
                    VALE = -1.61628E-03,
                    PRECISION = 0.015)
          )

#
TEST_RESU(   RESU=_F( RESULTAT = REP_NLIN,
                    NOM_CHAM = 'DEPL',
                    NUME_ORDRE = 300,
                    GROUP_NO = 'P5',
                    NOM_CMP = 'DZ',
                    VALE = 6.13644E-04,
                    PRECISION = 0.03)
          )

#
TEST_RESU(   RESU=_F( RESULTAT = REP_NLIN,
                    NOM_CHAM = 'DEPL',
                    NUME_ORDRE = 400,
                    GROUP_NO = 'P5',
                    NOM_CMP = 'DZ',
                    VALE = 2.69796E-03,
                    PRECISION = 0.02)
          )

#
TEST_RESU(   RESU=_F( RESULTAT = REP_NLIN,
                    NOM_CHAM = 'DEPL',
                    NUME_ORDRE = 500,
                    GROUP_NO = 'P5',
                    NOM_CMP = 'DZ',
                    VALE = 7.82672E-04,
                    PRECISION = 0.005)
          )

#
TEST_RESU(   RESU=_F( RESULTAT = REP_NLIN,
                    NOM_CHAM = 'DEPL',
                    NUME_ORDRE = 600,
                    GROUP_NO = 'P5',
                    NOM_CMP = 'DZ',
                    VALE = -1.53309E-03,
                    PRECISION = 0.035)
          )

#
TEST_RESU(   RESU=_F( RESULTAT = REP_NLIN,
                    NOM_CHAM = 'DEPL',
                    NUME_ORDRE = 700,
                    GROUP_NO = 'P5',
                    NOM_CMP = 'DZ',
                    VALE = -1.72975E-03,
                    PRECISION = 0.005)
          )

#
TEST_RESU(   RESU=_F( RESULTAT = REP_NLIN,
                    NOM_CHAM = 'DEPL',
                    NUME_ORDRE = 800,
                    GROUP_NO = 'P5',
                    NOM_CMP = 'DZ',
                    VALE = -2.16791E-04,
                    PRECISION = 0.07)
          )

#
TEST_RESU(   RESU=_F( RESULTAT = REP_NLIN,
                    NOM_CHAM = 'DEPL',
                    NUME_ORDRE = 900,
                    GROUP_NO = 'P5',
                    NOM_CMP = 'DZ',
                    VALE = 1.54917E-03,
                    PRECISION = 0.005)
          )

#
TEST_RESU(   RESU=_F( RESULTAT = REP_NLIN,
                    NOM_CHAM = 'DEPL',
                    NUME_ORDRE = 1000,
                    GROUP_NO = 'P5',
                    NOM_CMP = 'DZ',
                    VALE = 1.92578E-03,
                    PRECISION = 0.01)
          )

#
# DEPLACEMENT AU POINT P6
#
#
# DEPLACEMENT SUIVANT X
#
TEST_RESU(   RESU=_F( RESULTAT = REP_NLIN,
                    NOM_CHAM = 'DEPL',
                    NUME_ORDRE = 100,
                    GROUP_NO = 'P6',
                    NOM_CMP = 'DX',
                    VALE = -1.26720E-02,
                    PRECISION = 0.005)
          )

#
TEST_RESU(   RESU=_F( RESULTAT = REP_NLIN,
                    NOM_CHAM = 'DEPL',
                    NUME_ORDRE = 200,
                    GROUP_NO = 'P6',
                    NOM_CMP = 'DX',
                    VALE = 6.97946E-03,
                    PRECISION = 0.01)
          )

#
TEST_RESU(   RESU=_F( RESULTAT = REP_NLIN,
                    NOM_CHAM = 'DEPL',
                    NUME_ORDRE = 300,
                    GROUP_NO = 'P6',
                    NOM_CMP = 'DX',
                    VALE = 5.77900E-03,
                    PRECISION = 0.01)
          )

#
TEST_RESU(   RESU=_F( RESULTAT = REP_NLIN,
                    NOM_CHAM = 'DEPL',
                    NUME_ORDRE = 400,
                    GROUP_NO = 'P6',
                    NOM_CMP = 'DX',
                    VALE = -1.29759E-02,
                    PRECISION = 0.01)
          )

#
TEST_RESU(   RESU=_F( RESULTAT = REP_NLIN,
                    NOM_CHAM = 'DEPL',
                    NUME_ORDRE = 500,
                    GROUP_NO = 'P6',
                    NOM_CMP = 'DX',
                    VALE = 5.00579E-03,
                    PRECISION = 0.05)
          )

#
TEST_RESU(   RESU=_F( RESULTAT = REP_NLIN,
                    NOM_CHAM = 'DEPL',
                    NUME_ORDRE = 600,
                    GROUP_NO = 'P6',
                    NOM_CMP = 'DX',
                    VALE = 5.30055E-03,
                    PRECISION = 0.04)
          )

#
#
TEST_RESU(   RESU=_F( RESULTAT = REP_NLIN,
                    NOM_CHAM = 'DEPL',
                    NUME_ORDRE = 700,
                    GROUP_NO = 'P6',
                    NOM_CMP = 'DX',
                    VALE = -1.27362E-02,
                    PRECISION = 0.005)
          )

#
TEST_RESU(   RESU=_F( RESULTAT = REP_NLIN,
                    NOM_CHAM = 'DEPL',
                    NUME_ORDRE = 800,
                    GROUP_NO = 'P6',
                    NOM_CMP = 'DX',
                    VALE = 4.11147E-03,
                    PRECISION = 0.08)
          )

#
TEST_RESU(   RESU=_F( RESULTAT = REP_NLIN,
                    NOM_CHAM = 'DEPL',
                    NUME_ORDRE = 900,
                    GROUP_NO = 'P6',
                    NOM_CMP = 'DX',
                    VALE = 6.45127E-03,
                    PRECISION = 0.065)
          )

#
TEST_RESU(   RESU=_F( RESULTAT = REP_NLIN,
                    NOM_CHAM = 'DEPL',
                    NUME_ORDRE = 1000,
                    GROUP_NO = 'P6',
                    NOM_CMP = 'DX',
                    VALE = -1.34722E-02,
                    PRECISION = 0.01)
          )

#
# DEPLACEMENT SUIVANT Y
#
TEST_RESU(   RESU=_F( RESULTAT = REP_NLIN,
                    NOM_CHAM = 'DEPL',
                    NUME_ORDRE = 100,
                    GROUP_NO = 'P6',
                    NOM_CMP = 'DY',
                    VALE = 1.86420E-06,
                    PRECISION = 0.01)
          )

#
TEST_RESU(   RESU=_F( RESULTAT = REP_NLIN,
                    NOM_CHAM = 'DEPL',
                    NUME_ORDRE = 200,
                    GROUP_NO = 'P6',
                    NOM_CMP = 'DY',
                    VALE = -1.80108E-06,
                    PRECISION = 0.005)
          )

#
TEST_RESU(   RESU=_F( RESULTAT = REP_NLIN,
                    NOM_CHAM = 'DEPL',
                    NUME_ORDRE = 300,
                    GROUP_NO = 'P6',
                    NOM_CMP = 'DY',
                    VALE = 2.00401E-06,
                    PRECISION = 0.02)
          )

#
TEST_RESU(   RESU=_F( RESULTAT = REP_NLIN,
                    NOM_CHAM = 'DEPL',
                    NUME_ORDRE = 400,
                    GROUP_NO = 'P6',
                    NOM_CMP = 'DY',
                    VALE = -2.01190E-06,
                    PRECISION = 0.015)
          )

#
TEST_RESU(   RESU=_F( RESULTAT = REP_NLIN,
                    NOM_CHAM = 'DEPL',
                    NUME_ORDRE = 500,
                    GROUP_NO = 'P6',
                    NOM_CMP = 'DY',
                    VALE = 1.94548E-06,
                    PRECISION = 0.015)
          )

#
TEST_RESU(   RESU=_F( RESULTAT = REP_NLIN,
                    NOM_CHAM = 'DEPL',
                    NUME_ORDRE = 600,
                    GROUP_NO = 'P6',
                    NOM_CMP = 'DY',
                    VALE = -1.40688E-06,
                    PRECISION = 0.045)
          )

#
TEST_RESU(   RESU=_F( RESULTAT = REP_NLIN,
                    NOM_CHAM = 'DEPL',
                    NUME_ORDRE = 700,
                    GROUP_NO = 'P6',
                    NOM_CMP = 'DY',
                    VALE = 1.30371E-06,
                    PRECISION = 0.08)
          )

#
TEST_RESU(   RESU=_F( RESULTAT = REP_NLIN,
                    NOM_CHAM = 'DEPL',
                    NUME_ORDRE = 800,
                    GROUP_NO = 'P6',
                    NOM_CMP = 'DY',
                    VALE = -2.86429E-07,
                    PRECISION = 0.37)
          )

#
TEST_RESU(   RESU=_F( RESULTAT = REP_NLIN,
                    NOM_CHAM = 'DEPL',
                    NUME_ORDRE = 900,
                    GROUP_NO = 'P6',
                    NOM_CMP = 'DY',
                    VALE = -3.65853E-07,
                    PRECISION = 0.45)
          )

#
TEST_RESU(   RESU=_F( RESULTAT = REP_NLIN,
                    NOM_CHAM = 'DEPL',
                    NUME_ORDRE = 1000,
                    GROUP_NO = 'P6',
                    NOM_CMP = 'DY',
                    VALE = 1.80271E-06,
                    PRECISION = 0.14)
          )

#
# DEPLACEMENT SUIVANT Z
#
TEST_RESU(   RESU=_F( RESULTAT = REP_NLIN,
                    NOM_CHAM = 'DEPL',
                    NUME_ORDRE = 100,
                    GROUP_NO = 'P6',
                    NOM_CMP = 'DZ',
                    VALE = -7.41136E-04,
                    PRECISION = 0.015)
          )

#
TEST_RESU(   RESU=_F( RESULTAT = REP_NLIN,
                    NOM_CHAM = 'DEPL',
                    NUME_ORDRE = 200,
                    GROUP_NO = 'P6',
                    NOM_CMP = 'DZ',
                    VALE = -7.05431E-04,
                    PRECISION = 0.02)
          )

#
TEST_RESU(   RESU=_F( RESULTAT = REP_NLIN,
                    NOM_CHAM = 'DEPL',
                    NUME_ORDRE = 300,
                    GROUP_NO = 'P6',
                    NOM_CMP = 'DZ',
                    VALE = 1.55715E-04,
                    PRECISION = 0.08)
          )

#
TEST_RESU(   RESU=_F( RESULTAT = REP_NLIN,
                    NOM_CHAM = 'DEPL',
                    NUME_ORDRE = 400,
                    GROUP_NO = 'P6',
                    NOM_CMP = 'DZ',
                    VALE = 1.68831E-03,
                    PRECISION = 0.02)
          )

#
TEST_RESU(   RESU=_F( RESULTAT = REP_NLIN,
                    NOM_CHAM = 'DEPL',
                    NUME_ORDRE = 500,
                    GROUP_NO = 'P6',
                    NOM_CMP = 'DZ',
                    VALE = 1.52785E-04,
                    PRECISION = 0.025)
          )

#
TEST_RESU(   RESU=_F( RESULTAT = REP_NLIN,
                    NOM_CHAM = 'DEPL',
                    NUME_ORDRE = 600,
                    GROUP_NO = 'P6',
                    NOM_CMP = 'DZ',
                    VALE = -7.11565E-04,
                    PRECISION = 0.055)
          )

#
TEST_RESU(   RESU=_F( RESULTAT = REP_NLIN,
                    NOM_CHAM = 'DEPL',
                    NUME_ORDRE = 700,
                    GROUP_NO = 'P6',
                    NOM_CMP = 'DZ',
                    VALE = -9.53120E-04,
                    PRECISION = 0.02)
          )

#
TEST_RESU(   RESU=_F( RESULTAT = REP_NLIN,
                    NOM_CHAM = 'DEPL',
                    NUME_ORDRE = 800,
                    GROUP_NO = 'P6',
                    NOM_CMP = 'DZ',
                    VALE = -1.78420E-05,
                    PRECISION = 0.22)
          )

#
TEST_RESU(   RESU=_F( RESULTAT = REP_NLIN,
                    NOM_CHAM = 'DEPL',
                    NUME_ORDRE = 900,
                    GROUP_NO = 'P6',
                    NOM_CMP = 'DZ',
                    VALE = 7.98840E-04,
                    PRECISION = 0.015)
          )

#
TEST_RESU(   RESU=_F( RESULTAT = REP_NLIN,
                    NOM_CHAM = 'DEPL',
                    NUME_ORDRE = 1000,
                    GROUP_NO = 'P6',
                    NOM_CMP = 'DZ',
                    VALE = 7.84024E-04,
                    PRECISION = 0.03)
          )

FIN()
#
