# MODIF  DATE 12/05/2009   AUTEUR PELLET J.PELLET 
# TITRE PLAQUE CIRCULAIRE ENCASTREE SOUMISE A UNE PRESSION UNIFORME
# sensm15b.para = tps_job 60 mem_job 128Mo ncpus 1 liste_test R
#            CONFIGURATION MANAGEMENT OF EDF VERSION
# ======================================================================
# COPYRIGHT (C) 1991 - 2007  EDF R&D                  WWW.CODE-ASTER.ORG
# THIS PROGRAM IS FREE SOFTWARE; YOU CAN REDISTRIBUTE IT AND/OR MODIFY  
# IT UNDER THE TERMS OF THE GNU GENERAL PUBLIC LICENSE AS PUBLISHED BY  
# THE FREE SOFTWARE FOUNDATION; EITHER VERSION 2 OF THE LICENSE, OR     
# (AT YOUR OPTION) ANY LATER VERSION.                                                    
#                                                                       
# THIS PROGRAM IS DISTRIBUTED IN THE HOPE THAT IT WILL BE USEFUL, BUT   
# WITHOUT ANY WARRANTY; WITHOUT EVEN THE IMPLIED WARRANTY OF            
# MERCHANTABILITY OR FITNESS FOR A PARTICULAR PURPOSE. SEE THE GNU      
# GENERAL PUBLIC LICENSE FOR MORE DETAILS.                              
#                                                                       
# YOU SHOULD HAVE RECEIVED A COPY OF THE GNU GENERAL PUBLIC LICENSE     
# ALONG WITH THIS PROGRAM; IF NOT, WRITE TO EDF R&D CODE_ASTER,         
#    1 AVENUE DU GENERAL DE GAULLE, 92141 CLAMART CEDEX, FRANCE.        
# ======================================================================

DEBUT(    CODE=_F(  NOM = 'SENSM15B',NIV_PUB_WEB='INTERNET') )

# PLAQUE CIRCULAIRE ENCASTREE SOUMISE A UNE PRESSION UNIFORME
# MAILLAGE 1/4 DE PLAQUE
#
# MODELISATION MEC3QU9H:  65 NOEUDS --  16 MAILLES QUAD9
#
PRESS = DEFI_PARA_SENSI (VALE=1.00,)
YOUNG = DEFI_PARA_SENSI (VALE=1.,)
POISSON = DEFI_PARA_SENSI (VALE=0.3,)
EPAI = DEFI_PARA_SENSI (VALE=0.1,)


MATERI_1=DEFI_MATERIAU(  ELAS_FO=_F(  E = YOUNG,      NU = POISSON) )

MAILLA_1=LIRE_MAILLAGE(   )

MAILLA_1=DEFI_GROUP( reuse=MAILLA_1,   MAILLAGE=MAILLA_1,
  CREA_GROUP_MA=_F(  NOM = 'TOUT', TOUT = 'OUI'))

CH_MAT_1=AFFE_MATERIAU(  MAILLAGE=MAILLA_1,
                            AFFE=_F(  TOUT = 'OUI',   MATER = MATERI_1) )

MODELE_1=AFFE_MODELE(  MAILLAGE=MAILLA_1, VERIF='MAILLE',
                     AFFE=_F( TOUT = 'OUI', MODELISATION = 'COQUE_3D',
                                PHENOMENE = 'MECANIQUE') )

CINE=AFFE_CHAR_MECA(MODELE=MODELE_1,DDL_IMPO=(
                  _F( GROUP_NO = 'ABC',      DX = 0.,  DY = 0.,  DZ = 0.,
                                              DRX = 0., DRY = 0., DRZ = 0.),
                           _F( GROUP_NO = 'OA',       DY = 0.,  DRX = 0., DRZ = 0.),
                           _F( GROUP_NO = 'OC',       DX = 0.,  DRY = 0., DRZ = 0.),
                           _F( NOEUD = 'O',        DX = 0.,  DY = 0.,
                                              DRX = 0., DRY = 0., DRZ = 0.)))

CHPR=AFFE_CHAR_MECA_F(MODELE=MODELE_1,
                   FORCE_COQUE=_F(  TOUT = 'OUI',   PRES = PRESS) )

CHF3=AFFE_CHAR_MECA(MODELE=MODELE_1,
                   FORCE_COQUE=_F(  TOUT = 'OUI',   F3 = -1.) )


CARAC__1=AFFE_CARA_ELEM(   MODELE=MODELE_1,
                               COQUE=_F( EPAIS_F = EPAI,
                                        GROUP_MA = 'TOUT', 
                                  A_CIS = 0.83333333333333) )

list=DEFI_LIST_REEL(DEBUT=0.,
                    INTERVALLE=_F(JUSQU_A=1.,
                                  NOMBRE=1,),);

DEP=STAT_NON_LINE(MODELE=MODELE_1,
                   CHAM_MATER=CH_MAT_1,
                   CARA_ELEM=CARAC__1,
                   EXCIT=(_F(CHARGE=CHPR,),_F(CHARGE=CINE,),),
                   COMP_INCR=_F(RELATION='ELAS',),
                   INCREMENT=_F(LIST_INST=list,),
                   SENSIBILITE=(YOUNG,POISSON,PRESS,EPAI,),
                   )

#DEP=CALC_ELEM( reuse= DEP ,RESULTAT= DEP ,
#                           NUME_ORDRE=1,
#                           OPTION=('EFGE_ELNO_DEPL',),
#                )

TEST_RESU(RESU=(
     # DEPLACEMENTS 

          _F(  RESULTAT = DEP, NUME_ORDRE=1, NOM_CHAM='DEPL',
            CRITERE = 'RELATIF',  PRECISION = 0.5E-2,  # O
REFERENCE='ANALYTIQUE', NOEUD = 'O', NOM_CMP = 'DZ', VALE = -178.4190),
          _F(  RESULTAT = DEP, NUME_ORDRE=1, NOM_CHAM='DEPL',
            CRITERE = 'RELATIF',  PRECISION = 0.5E-2,  # D
REFERENCE='ANALYTIQUE', NOEUD = 'D', NOM_CMP = 'DZ', VALE = -101.820),
          _F(  RESULTAT = DEP, NUME_ORDRE=1, NOM_CHAM='DEPL',
REFERENCE='ANALYTIQUE',
            CRITERE = 'RELATIF',  PRECISION = 0.5E-2,  # E
            NOEUD = 'E',          NOM_CMP = 'DZ',        VALE = -101.820),

           ))

TEST_RESU(RESU=(
     # DEPLACEMENTS SENSIBLES PAR RAPPORT A YOUNG

          _F(  RESULTAT = DEP, NUME_ORDRE=1, NOM_CHAM='DEPL',
                 SENSIBILITE=(YOUNG,),
            CRITERE = 'RELATIF',  PRECISION = 0.5E-2,  # O
REFERENCE='ANALYTIQUE', NOEUD = 'O', NOM_CMP = 'DZ', VALE = 178.4190),
          _F(  RESULTAT = DEP, NUME_ORDRE=1, NOM_CHAM='DEPL',
                 SENSIBILITE=(YOUNG,),
            CRITERE = 'RELATIF',  PRECISION = 0.5E-2,  # D
REFERENCE='ANALYTIQUE', NOEUD = 'D', NOM_CMP = 'DZ', VALE = 101.820),
          _F(  RESULTAT = DEP, NUME_ORDRE=1, NOM_CHAM='DEPL',
                 SENSIBILITE=(YOUNG,),REFERENCE='ANALYTIQUE',
            CRITERE = 'RELATIF',  PRECISION = 0.5E-2,  # E
            NOEUD = 'E',          NOM_CMP = 'DZ',        VALE = 101.820),

           ))

TEST_RESU(RESU=(
     # DEPLACEMENTS SENSIBLES PAR RAPPORT A POISSON

          _F(  RESULTAT = DEP, NUME_ORDRE=1, NOM_CHAM='DEPL',
                 SENSIBILITE=(POISSON,),
            CRITERE = 'RELATIF',  PRECISION = 0.5E-2,  # O
REFERENCE='ANALYTIQUE', NOEUD = 'O', NOM_CMP = 'DZ', VALE = 106.5),
          _F(  RESULTAT = DEP, NUME_ORDRE=1, NOM_CHAM='DEPL',
                   SENSIBILITE=(POISSON,),
            CRITERE = 'RELATIF',  PRECISION = 0.5E-2,  # D
REFERENCE='ANALYTIQUE', NOEUD = 'D', NOM_CMP = 'DZ', VALE = 58.73),
          _F(  RESULTAT = DEP, NUME_ORDRE=1, NOM_CHAM='DEPL',
                   SENSIBILITE=(POISSON,),REFERENCE='ANALYTIQUE',
            CRITERE = 'RELATIF',  PRECISION = 0.5E-2,  # E
            NOEUD = 'E',          NOM_CMP = 'DZ',        VALE = 58.73),

           ))


TEST_RESU(RESU=(
     # DEPLACEMENTS SENSIBLES PAR RAPPORT A PRESS

          _F(  RESULTAT = DEP, NUME_ORDRE=1, NOM_CHAM='DEPL',
                 SENSIBILITE=(PRESS,),
            CRITERE = 'RELATIF',  PRECISION = 0.5E-2,  # O
REFERENCE='ANALYTIQUE', NOEUD = 'O', NOM_CMP = 'DZ', VALE = -178.4190),
          _F(  RESULTAT = DEP, NUME_ORDRE=1, NOM_CHAM='DEPL',
                  SENSIBILITE=(PRESS,),
            CRITERE = 'RELATIF',  PRECISION = 0.5E-2,  # D
REFERENCE='ANALYTIQUE', NOEUD = 'D', NOM_CMP = 'DZ', VALE = -101.820),
          _F(  RESULTAT = DEP, NUME_ORDRE=1, NOM_CHAM='DEPL',
                   SENSIBILITE=(PRESS,),REFERENCE='ANALYTIQUE',
            CRITERE = 'RELATIF',  PRECISION = 0.5E-2,  # E
            NOEUD = 'E',          NOM_CMP = 'DZ',        VALE = -101.820),

           ))

TEST_RESU(RESU=(
     # DEPLACEMENTS SENSIBLES PAR RAPPORT A EPAI

          _F(  RESULTAT = DEP, NUME_ORDRE=1, NOM_CHAM='DEPL',
                  SENSIBILITE=(EPAI,),
            CRITERE = 'RELATIF',  PRECISION = 0.5E-2,  # O
#REFERENCE='ANALYTIQUE', NOEUD = 'O', NOM_CMP = 'DZ', VALE = 5190.),
REFERENCE='ANALYTIQUE', NOEUD = 'O', NOM_CMP = 'DZ', VALE = 11600.),
          _F(  RESULTAT = DEP, NUME_ORDRE=1, NOM_CHAM='DEPL',
                SENSIBILITE=(EPAI,),
            CRITERE = 'RELATIF',  PRECISION = 0.5E-2,  # D
#REFERENCE='ANALYTIQUE', NOEUD = 'D', NOM_CMP = 'DZ', VALE = 2930.),
REFERENCE='ANALYTIQUE', NOEUD = 'D', NOM_CMP = 'DZ', VALE = 6700.),
          _F(  RESULTAT = DEP, NUME_ORDRE=1, NOM_CHAM='DEPL',
                 SENSIBILITE=(EPAI,),REFERENCE='ANALYTIQUE',
            CRITERE = 'RELATIF',  PRECISION = 0.5E-2,  # E
#            NOEUD = 'E',          NOM_CMP = 'DZ',        VALE = 2930.),
            NOEUD = 'E',          NOM_CMP = 'DZ',        VALE = 6600.),

           ))

TEST_RESU(RESU=(
          # CONTRAINTES

            _F(  RESULTAT = DEP,       NUME_ORDRE = 1, NOM_CHAM = 'SIEF_ELGA',
CRITERE = 'RELATIF',  PRECISION = 1.E-2,MAILLE = 'MA000001',POINT = 1,
SOUS_POINT = 1,REFERENCE='ANALYTIQUE',  NOM_CMP = 'SIXX', VALE = 46.8233),

            _F(  RESULTAT = DEP,       NUME_ORDRE = 1, NOM_CHAM = 'SIEF_ELGA',
CRITERE = 'RELATIF',  PRECISION = 1.E-2,MAILLE = 'MA000001',POINT = 2,
SOUS_POINT = 1,REFERENCE='ANALYTIQUE',  NOM_CMP = 'SIYY', VALE = 44.3191),

            _F(  RESULTAT = DEP,       NUME_ORDRE = 1, NOM_CHAM = 'SIEF_ELGA',
CRITERE = 'RELATIF',  PRECISION = 1.E-2,      MAILLE = 'MA000001',POINT = 3,
SOUS_POINT = 1,REFERENCE='ANALYTIQUE',  NOM_CMP = 'SIXY', VALE = 1.6746),

            _F(  RESULTAT = DEP,       NUME_ORDRE = 1, NOM_CHAM = 'SIEF_ELGA',
CRITERE = 'RELATIF',  PRECISION = 1.E-2,      MAILLE = 'MA000001',POINT = 3,
SOUS_POINT = 1,REFERENCE='ANALYTIQUE',  NOM_CMP = 'SIXZ', VALE = 0.8953),

           ))

TEST_RESU(RESU=(
          # CONTRAINTES SENSIBLES PAR RAPPORT A YOUNG

            _F(  RESULTAT = DEP,       NUME_ORDRE = 1, NOM_CHAM = 'SIEF_ELGA',
CRITERE = 'ABSOLU',  PRECISION = 1.E-2,MAILLE = 'MA000001',POINT = 1,
                   SENSIBILITE=(YOUNG,),
SOUS_POINT = 1,REFERENCE='ANALYTIQUE',  NOM_CMP = 'SIXX', VALE = 0.),

            _F(  RESULTAT = DEP,       NUME_ORDRE = 1, NOM_CHAM = 'SIEF_ELGA',
CRITERE = 'ABSOLU',  PRECISION = 1.E-2,MAILLE = 'MA000001',POINT = 2,
                   SENSIBILITE=(YOUNG,),
SOUS_POINT = 1,REFERENCE='ANALYTIQUE',  NOM_CMP = 'SIYY', VALE = 0.),

            _F(  RESULTAT = DEP,       NUME_ORDRE = 1, NOM_CHAM = 'SIEF_ELGA',
CRITERE = 'ABSOLU',  PRECISION = 1.E-2,      MAILLE = 'MA000001',POINT = 3,
                  SENSIBILITE=(YOUNG,),
SOUS_POINT = 1,REFERENCE='ANALYTIQUE',  NOM_CMP = 'SIXY', VALE = 0.),

            _F(  RESULTAT = DEP,       NUME_ORDRE = 1, NOM_CHAM = 'SIEF_ELGA',
CRITERE = 'ABSOLU',  PRECISION = 1.E-2,      MAILLE = 'MA000001',POINT = 3,
                   SENSIBILITE=(YOUNG,),
SOUS_POINT = 1,REFERENCE='ANALYTIQUE',  NOM_CMP = 'SIXZ', VALE = 0.),

           ))


TEST_RESU(RESU=(
          # CONTRAINTES SENSIBLES PAR RAPPORT A POISSON

            _F(  RESULTAT = DEP,       NUME_ORDRE = 1, NOM_CHAM = 'SIEF_ELGA',
CRITERE = 'RELATIF',  PRECISION = 1.E-2,MAILLE = 'MA000001',POINT = 1,
                   SENSIBILITE=(POISSON,),
SOUS_POINT = 1,REFERENCE='ANALYTIQUE',  NOM_CMP = 'SIXX', VALE = 34.238),

            _F(  RESULTAT = DEP,       NUME_ORDRE = 1, NOM_CHAM = 'SIEF_ELGA',
CRITERE = 'RELATIF',  PRECISION = 1.E-2,MAILLE = 'MA000001',POINT = 2,
                 SENSIBILITE=(POISSON,),
SOUS_POINT = 1,REFERENCE='ANALYTIQUE',  NOM_CMP = 'SIYY', VALE = 34.8),

            _F(  RESULTAT = DEP,       NUME_ORDRE = 1, NOM_CHAM = 'SIEF_ELGA',
CRITERE = 'RELATIF',  PRECISION = 1.E-2,      MAILLE = 'MA000001',POINT = 3,
                   SENSIBILITE=(POISSON,),
SOUS_POINT = 1,REFERENCE='ANALYTIQUE',  NOM_CMP = 'SIXY', VALE = -2.384),

            _F(  RESULTAT = DEP,       NUME_ORDRE = 1, NOM_CHAM = 'SIEF_ELGA',
CRITERE = 'RELATIF',  PRECISION = 1.E-2,      MAILLE = 'MA000001',POINT = 3,
                   SENSIBILITE=(POISSON,),
SOUS_POINT = 1,REFERENCE='ANALYTIQUE',  NOM_CMP = 'SIXZ', VALE = -0.0053),

           ))


TEST_RESU(RESU=(
          # CONTRAINTES SENSIBLES PAR RAPPORT A PRESSION

            _F(  RESULTAT = DEP,       NUME_ORDRE = 1, NOM_CHAM = 'SIEF_ELGA',
CRITERE = 'RELATIF',  PRECISION = 1.E-2,MAILLE = 'MA000001',POINT = 1,
                   SENSIBILITE=(PRESS,),
SOUS_POINT = 1,REFERENCE='ANALYTIQUE',  NOM_CMP = 'SIXX', VALE = 46.8233),

            _F(  RESULTAT = DEP,       NUME_ORDRE = 1, NOM_CHAM = 'SIEF_ELGA',
CRITERE = 'RELATIF',  PRECISION = 1.E-2,MAILLE = 'MA000001',POINT = 2,
                    SENSIBILITE=(PRESS,),
SOUS_POINT = 1,REFERENCE='ANALYTIQUE',  NOM_CMP = 'SIYY', VALE = 44.3191),

            _F(  RESULTAT = DEP,       NUME_ORDRE = 1, NOM_CHAM = 'SIEF_ELGA',
CRITERE = 'RELATIF',  PRECISION = 1.E-2,      MAILLE = 'MA000001',POINT = 3,
                      SENSIBILITE=(PRESS,),
SOUS_POINT = 1,REFERENCE='ANALYTIQUE',  NOM_CMP = 'SIXY', VALE = 1.6746),

            _F(  RESULTAT = DEP,       NUME_ORDRE = 1, NOM_CHAM = 'SIEF_ELGA',
CRITERE = 'RELATIF',  PRECISION = 1.E-2,      MAILLE = 'MA000001',POINT = 3,
                     SENSIBILITE=(PRESS,),
SOUS_POINT = 1,REFERENCE='ANALYTIQUE',  NOM_CMP = 'SIXZ', VALE = 0.8953),

           ))


DEP1=MECA_STATIQUE(MODELE=MODELE_1,
                   CHAM_MATER=CH_MAT_1,
                   CARA_ELEM=CARAC__1,
                   EXCIT=(_F(CHARGE=CHPR,),_F(CHARGE=CINE,),),
                   SENSIBILITE=(PRESS,),
                   )
TEST_RESU(RESU=(
     # DEPLACEMENTS 

          _F(  RESULTAT = DEP1, NUME_ORDRE=1, NOM_CHAM='DEPL',
            CRITERE = 'RELATIF',  PRECISION = 0.5E-2,  # O
REFERENCE='ANALYTIQUE', NOEUD = 'O', NOM_CMP = 'DZ', VALE = -178.4190),
          _F(  RESULTAT = DEP1, NUME_ORDRE=1, NOM_CHAM='DEPL',
            CRITERE = 'RELATIF',  PRECISION = 0.5E-2,  # D
REFERENCE='ANALYTIQUE', NOEUD = 'D', NOM_CMP = 'DZ', VALE = -101.820),
          _F(  RESULTAT = DEP1, NUME_ORDRE=1, NOM_CHAM='DEPL',
            CRITERE = 'RELATIF',  PRECISION = 0.5E-2,  # E
REFERENCE='ANALYTIQUE',
           NOEUD = 'E',          NOM_CMP = 'DZ',        VALE = -101.820),

           ))

TEST_RESU(RESU=(
     # DEPLACEMENTS SENSIBLES

          _F(  RESULTAT = DEP1, NUME_ORDRE=1, NOM_CHAM='DEPL',
            CRITERE = 'RELATIF',  PRECISION = 0.5E-2,  # O
                  SENSIBILITE=(PRESS,),
REFERENCE='ANALYTIQUE', NOEUD = 'O', NOM_CMP = 'DZ', VALE = -178.4190),
          _F(  RESULTAT = DEP1, NUME_ORDRE=1, NOM_CHAM='DEPL',
            CRITERE = 'RELATIF',  PRECISION = 0.5E-2,  # D
                  SENSIBILITE=(PRESS,),
REFERENCE='ANALYTIQUE', NOEUD = 'D', NOM_CMP = 'DZ', VALE = -101.820),
          _F(  RESULTAT = DEP1, NUME_ORDRE=1, NOM_CHAM='DEPL',
            CRITERE = 'RELATIF',  PRECISION = 0.5E-2,  # E
                  SENSIBILITE=(PRESS,),REFERENCE='ANALYTIQUE',
            NOEUD = 'E',          NOM_CMP = 'DZ',        VALE = -101.820),

           ))

DEP2=MECA_STATIQUE(MODELE=MODELE_1,
                   CHAM_MATER=CH_MAT_1,
                   CARA_ELEM=CARAC__1,
                   EXCIT=(_F(CHARGE=CHPR,),_F(CHARGE=CINE,),),
                   SENSIBILITE=(YOUNG,),
                    )
TEST_RESU(RESU=(
     # DEPLACEMENTS SENSIBLES

          _F(  RESULTAT = DEP2, NUME_ORDRE=1, NOM_CHAM='DEPL',
                   SENSIBILITE=(YOUNG,),
            CRITERE = 'RELATIF',  PRECISION = 0.5E-2,  # O
REFERENCE='ANALYTIQUE', NOEUD = 'O', NOM_CMP = 'DZ', VALE = 178.4190),
          _F(  RESULTAT = DEP2, NUME_ORDRE=1, NOM_CHAM='DEPL',
                   SENSIBILITE=(YOUNG,),
            CRITERE = 'RELATIF',  PRECISION = 0.5E-2,  # D
REFERENCE='ANALYTIQUE', NOEUD = 'D', NOM_CMP = 'DZ', VALE = 101.820),
          _F(  RESULTAT = DEP2, NUME_ORDRE=1, NOM_CHAM='DEPL',
                    SENSIBILITE=(YOUNG,),REFERENCE='ANALYTIQUE',
            CRITERE = 'RELATIF',  PRECISION = 0.5E-2,  # E
            NOEUD = 'E',          NOM_CMP = 'DZ',        VALE = 101.820),

           ))

DEP3=MECA_STATIQUE(MODELE=MODELE_1,
                   CHAM_MATER=CH_MAT_1,
                   CARA_ELEM=CARAC__1,
                   EXCIT=(_F(CHARGE=CHPR,),_F(CHARGE=CINE,),),
                   SENSIBILITE=(POISSON,),
                   )
#
TEST_RESU(RESU=(
     # DEPLACEMENTS SENSIBLES

          _F(  RESULTAT = DEP3, NUME_ORDRE=1, NOM_CHAM='DEPL',
                 SENSIBILITE=(POISSON,),
            CRITERE = 'RELATIF',  PRECISION = 0.5E-2,  # O
REFERENCE='ANALYTIQUE', NOEUD = 'O', NOM_CMP = 'DZ', VALE = 106.5),
          _F(  RESULTAT = DEP3, NUME_ORDRE=1, NOM_CHAM='DEPL',
                 SENSIBILITE=(POISSON,),
            CRITERE = 'RELATIF',  PRECISION = 0.5E-2,  # D
REFERENCE='ANALYTIQUE', NOEUD = 'D', NOM_CMP = 'DZ', VALE = 58.73),
          _F(  RESULTAT = DEP3, NUME_ORDRE=1, NOM_CHAM='DEPL',
                  SENSIBILITE=(POISSON,),REFERENCE='ANALYTIQUE',
            CRITERE = 'RELATIF',  PRECISION = 0.5E-2,  # E
            NOEUD = 'E',          NOM_CMP = 'DZ',        VALE = 58.73),

           ))
FIN()

IMPR_RESU(RESU=_F(RESULTAT=DEP,NUME_ORDRE = 1, NOM_CHAM = 'SIEF_ELGA',))
IMPR_RESU(RESU=_F(RESULTAT=DEP,SENSIBILITE = YOUNG,
           NUME_ORDRE = 1, NOM_CHAM = 'SIEF_ELGA',))
TEST_RESU(RESU=(

          # CONTRAINTES SENSIBLES PAR RAPPORT A YOUNG

            _F(  RESULTAT = DEP,       NUME_ORDRE = 1, NOM_CHAM = 'SIEF_ELGA',
              CRITERE = 'ABSOLU',  PRECISION = 1.E-2,      MAILLE = 'M1',POINT = 1,
SOUS_POINT = 1,SENSIBILITE = YOUNG, REFERENCE='ANALYTIQUE',  NOM_CMP = 'SIXX',
 VALE = 0.),

            _F(  RESULTAT = DEP,       NUME_ORDRE = 1, NOM_CHAM = 'SIEF_ELGA',
              CRITERE = 'ABSOLU',  PRECISION = 1.E-2,      MAILLE = 'M1',POINT = 2,
SOUS_POINT = 1,SENSIBILITE = YOUNG, REFERENCE='ANALYTIQUE',  NOM_CMP = 'SIYY',
 VALE = 0.),

            _F(  RESULTAT = DEP,       NUME_ORDRE = 1, NOM_CHAM = 'SIEF_ELGA',
              CRITERE = 'ABSOLU',  PRECISION = 1.E-2,      MAILLE = 'M1',POINT = 3,
SOUS_POINT = 1,SENSIBILITE = YOUNG, REFERENCE='ANALYTIQUE',  NOM_CMP = 'SIXY',
 VALE = 0.),
               ))

IMPR_RESU(RESU=_F(RESULTAT=DEP,SENSIBILITE = YOUNG,
           NUME_ORDRE = 1, NOM_CHAM = 'DEPL',))
#
