# MODIF  DATE 28/05/2004   AUTEUR LEBOUVIE F.LEBOUVIER 
# RESPONSABLE F6BHHBO P.DEBONNIERES
# TITRE CYLINDRE INFINI SOUS PRESSION (PLAST VON-MISES ISOT LINEAIRE)
#            CONFIGURATION MANAGEMENT OF EDF VERSION
# ======================================================================
# COPYRIGHT (C) 1991 - 2003  EDF R&D                  WWW.CODE-ASTER.ORG
# THIS PROGRAM IS FREE SOFTWARE; YOU CAN REDISTRIBUTE IT AND/OR MODIFY  
# IT UNDER THE TERMS OF THE GNU GENERAL PUBLIC LICENSE AS PUBLISHED BY  
# THE FREE SOFTWARE FOUNDATION; EITHER VERSION 2 OF THE LICENSE, OR     
# (AT YOUR OPTION) ANY LATER VERSION.                                                    
#                                                                       
# THIS PROGRAM IS DISTRIBUTED IN THE HOPE THAT IT WILL BE USEFUL, BUT   
# WITHOUT ANY WARRANTY; WITHOUT EVEN THE IMPLIED WARRANTY OF            
# MERCHANTABILITY OR FITNESS FOR A PARTICULAR PURPOSE. SEE THE GNU      
# GENERAL PUBLIC LICENSE FOR MORE DETAILS.                              
#                                                                       
# YOU SHOULD HAVE RECEIVED A COPY OF THE GNU GENERAL PUBLIC LICENSE     
# ALONG WITH THIS PROGRAM; IF NOT, WRITE TO EDF R&D CODE_ASTER,         
#    1 AVENUE DU GENERAL DE GAULLE, 92141 CLAMART CEDEX, FRANCE.        
# ======================================================================
#            CONFIGURATION MANAGEMENT OF EDF VERSION
#
DEBUT(CODE=_F( NOM = 'SENSM09A',NIV_PUB_WEB='INTERNET'),
          BASE=_F( FICHIER = 'GLOBALE',LONG_REPE = 15000),  
       PAR_LOT='OUI' ,
       )
#
#......................................................................
# CYLINDRE INFINI SOUS PRESSION CALCUL 2D AXI
# PLASTICITE VON-MISES A ECROUISSAGE ISOTROPE LINEAIRE
# SENSIBILITE AUX PARAMETRES MATERIAU
# ON EFFECTUE DEUX STAT_NON_LINE DE SUITE POUR TESTER LA "REPRISE"
#......................................................................
#

M=LIRE_MAILLAGE( )

MO=AFFE_MODELE( 
            MAILLAGE=M,    VERIF='MAILLE',
           AFFE=_F( TOUT = 'OUI',PHENOMENE = 'MECANIQUE',MODELISATION = 'AXIS')
           )

PS_E=DEFI_PARA_SENSI(VALE=210000.,);
PS_DSDE=DEFI_PARA_SENSI(VALE=2000.,);
PS_SIGY=DEFI_PARA_SENSI(VALE=50.,);
NU=DEFI_CONSTANTE(VALE=0.3,);


ACIER=DEFI_MATERIAU(ELAS_FO=_F(E=PS_E,
                             NU=NU,),
                    ECRO_LINE_FO=_F(D_SIGM_EPSI=PS_DSDE,
                                 SY=PS_SIGY,),
                                );

CM=AFFE_MATERIAU( 
            MAILLAGE=M,   
           AFFE=_F( TOUT = 'OUI',MATER = ACIER) )

P100=DEFI_FONCTION( 
           NOM_PARA='INST',PROL_DROITE='CONSTANT',PROL_GAUCHE='LINEAIRE',
           VALE=(0.0, 0.0, 60.0, 100.0,)
           )

CH1=AFFE_CHAR_MECA( 
            MODELE=MO,
           DDL_IMPO=_F( GROUP_NO = 'NOEHGFE', DY = 0.),LIAISON_DDL=(
           _F( NOEUD = ('N1', 'N2',  ), DDL = ('DY','DY',),
                        COEF_MULT = (1.,-1.,),COEF_IMPO = 0.),
           _F( NOEUD = ('N1', 'N9',  ), DDL = ('DY','DY',),
                        COEF_MULT = (1.,-1.,),COEF_IMPO = 0.),
           _F( NOEUD = ('N1', 'N10', ), DDL = ('DY','DY',),
                        COEF_MULT = (1.,-1.,),COEF_IMPO = 0.),
           _F( NOEUD = ('N1', 'N17', ), DDL = ('DY','DY',),
                        COEF_MULT = (1.,-1.,),COEF_IMPO = 0.),
           _F( NOEUD = ('N1', 'N18', ), DDL = ('DY','DY',),
                        COEF_MULT = (1.,-1.,),COEF_IMPO = 0.),
           _F( NOEUD = ('N1', 'N25', ), DDL = ('DY','DY',),
                        COEF_MULT = (1.,-1.,),COEF_IMPO = 0.),
           _F( NOEUD = ('N1', 'N26', ), DDL = ('DY','DY',),
                        COEF_MULT = (1.,-1.,),COEF_IMPO = 0.),
           _F( NOEUD = ('N1', 'N33', ), DDL = ('DY','DY',),
                        COEF_MULT = (1.,-1.,),COEF_IMPO = 0.),
           _F( NOEUD = ('N1', 'N34', ), DDL = ('DY','DY',),
                        COEF_MULT = (1.,-1.,),COEF_IMPO = 0.),
           _F( NOEUD = ('N1', 'N41', ), DDL = ('DY','DY',),
                        COEF_MULT = (1.,-1.,),COEF_IMPO = 0.),
           _F( NOEUD = ('N1', 'N42', ), DDL = ('DY','DY',),
                        COEF_MULT = (1.,-1.,),COEF_IMPO = 0.),
           _F( NOEUD = ('N1', 'N49', ), DDL = ('DY','DY',),
                        COEF_MULT = (1.,-1.,),COEF_IMPO = 0.),
           _F( NOEUD = ('N1', 'N50', ), DDL = ('DY','DY',),
                        COEF_MULT = (1.,-1.,),COEF_IMPO = 0.),
           _F( NOEUD = ('N1', 'N57', ), DDL = ('DY','DY',),
                        COEF_MULT = (1.,-1.,),COEF_IMPO = 0.),
           _F( NOEUD = ('N1', 'N58', ), DDL = ('DY','DY',),
                        COEF_MULT = (1.,-1.,),COEF_IMPO = 0.),
           _F( NOEUD = ('N1', 'N65', ), DDL = ('DY','DY',),
                        COEF_MULT = (1.,-1.,),COEF_IMPO = 0.),
           _F( NOEUD = ('N1', 'N66', ), DDL = ('DY','DY',),
                        COEF_MULT = (1.,-1.,),COEF_IMPO = 0.),
           _F( NOEUD = ('N1', 'N73', ), DDL = ('DY','DY',),
                        COEF_MULT = (1.,-1.,),COEF_IMPO = 0.),
           _F( NOEUD = ('N1', 'N74', ), DDL = ('DY','DY',),
                        COEF_MULT = (1.,-1.,),COEF_IMPO = 0.),
           _F( NOEUD = ('N1', 'N81', ), DDL = ('DY','DY',),
                        COEF_MULT = (1.,-1.,),COEF_IMPO = 0.),
# ... 147 like lines cut
                        COEF_MULT = (1.,-1.,),COEF_IMPO = 0.))
           )

CH2=AFFE_CHAR_MECA_F( 
            MODELE=MO,
#          FORCE_NODALE:(NOEUD:(N372 N373 N377 N378 N381) FX:P20)
           PRES_REP=_F( GROUP_MA = 'AH',PRES = P100)
                          )

L_INST=DEFI_LIST_REEL(  DEBUT=0.0,
             INTERVALLE=_F( JUSQU_A = 40.0,       NOMBRE = 10)
#             INTERVALLE=_F( JUSQU_A = 60.0,       NOMBRE = 15)
          )

U= STAT_NON_LINE ( MODELE=MO,
                   CHAM_MATER=CM,
                   EXCIT=(_F(CHARGE=CH1),_F(CHARGE=CH2)),
                   COMP_INCR=_F(RELATION='VMIS_ISOT_LINE'),
                   INCREMENT=_F(LIST_INST=L_INST,
#                                INST_FIN=60.,
                                INST_FIN=40.,
                                SUBD_PAS=4,
                                SUBD_PAS_MINI=1.E-4,
                                COEF_SUBD_PAS_1=1.0,),
                   NEWTON=_F(MATRICE='TANGENTE',
                             PREDICTION='ELASTIQUE',
                             REAC_ITER=1,),
                   CONVERGENCE=_F(
                            RESI_GLOB_RELA = 1.E-8,
                            RESI_INTE_RELA = 1.E-8),
                   ARCHIVAGE=_F(LIST_INST=L_INST,
                                ARCH_ETAT_INIT='OUI',),
                   SENSIBILITE=(PS_E,PS_DSDE,PS_SIGY),
                   INFO=1);

L_INST2=DEFI_LIST_REEL(  DEBUT=40.0,
             INTERVALLE=_F( JUSQU_A = 60.0,       NOMBRE = 5)
           )

# LE STAT_NON_LINE QUI SUIT EST EFFECTUE DANS LE BUT DE TESTER LA
# FONCTIONNALITE DE REPRISE
U= STAT_NON_LINE ( reuse=U,
                   MODELE=MO,
                   CHAM_MATER=CM,
                   EXCIT=(_F(CHARGE=CH1),_F(CHARGE=CH2)),
                   COMP_INCR=_F(RELATION='VMIS_ISOT_LINE'),
                   INCREMENT=_F(LIST_INST=L_INST2,
                                INST_FIN=60.,
                                SUBD_PAS=4,
                                SUBD_PAS_MINI=1.E-4,
                                COEF_SUBD_PAS_1=1.0,),
                   NEWTON=_F(MATRICE='TANGENTE',
                             PREDICTION='ELASTIQUE',
                             REAC_ITER=1,),
                   CONVERGENCE=_F(
                            RESI_GLOB_RELA = 1.E-8,
                            RESI_INTE_RELA = 1.E-8),
                   ARCHIVAGE=_F(LIST_INST=L_INST2,
#                                ARCH_ETAT_INIT='OUI',
                                ),
                   ETAT_INIT=_F(EVOL_NOLI=U),
                   SENSIBILITE=(PS_E,PS_DSDE,PS_SIGY),
                   INFO=1);


U=CALC_ELEM( reuse=U,
                            OPTION=(
                  'SIEF_ELNO_ELGA',  'VARI_ELNO_ELGA',),
                          RESULTAT=U,
              )


U=CALC_ELEM(reuse=U,         RESULTAT=U,
                OPTION='EPSI_ELNO_DEPL')

U=CALC_ELEM(reuse=U,         RESULTAT=U,
                OPTION='EPSP_ELNO')

# SENSIBILITE PAR RAPPORT A E

TEST_RESU(RESU=(
   _F(RESULTAT = U,
      INST = 60.,
      NOEUD = 'N213',MAILLE = 'M75',
      NOM_CHAM = 'DEPL',
      CRITERE = 'RELATIF', PRECISION = 1.E-4,
      NOM_CMP = 'DX',   SENSIBILITE = PS_E,
      VALE = -2.28851E-8, REFERENCE = 'AUTRE_ASTER' ),
   _F(RESULTAT = U,
      INST = 60.,
      NOEUD = 'N213',MAILLE = 'M75',
      NOM_CHAM = 'DEPL',
      CRITERE = 'RELATIF', PRECISION = 1.E-3,
      NOM_CMP = 'DY',   SENSIBILITE = PS_E,
      VALE = 4.746E-12, REFERENCE = 'AUTRE_ASTER' ),
      ));

TEST_RESU(RESU=(
   _F(RESULTAT = U,
      INST = 60.,
      MAILLE = 'M75',POINT = 1,
      NOM_CHAM = 'SIEF_ELGA',
      CRITERE = 'RELATIF', PRECISION = 1.E-4,
      NOM_CMP = 'SIXX',   SENSIBILITE = PS_E,
      VALE = 7.4146E-7, REFERENCE = 'AUTRE_ASTER' ),
   _F(RESULTAT = U,
      INST = 60.,
      MAILLE = 'M75',POINT = 1,
      NOM_CHAM = 'SIEF_ELGA',
      CRITERE = 'RELATIF', PRECISION = 1.E-4,
      NOM_CMP = 'SIZZ',   SENSIBILITE = PS_E,
      VALE = 1.08096E-6, REFERENCE = 'AUTRE_ASTER' ),
      ));

# SENSIBILITE PAR RAPPORT A E_T (D_SIGM_EPSI)

TEST_RESU(RESU=(
   _F(RESULTAT = U,
      INST = 60.,
      MAILLE = 'M75',POINT = 5,
      NOM_CHAM = 'SIEF_ELGA',
      CRITERE = 'RELATIF', PRECISION = 1.E-4,
      NOM_CMP = 'SIYY',   SENSIBILITE = PS_DSDE,
      VALE = 1.3384E-4, REFERENCE = 'AUTRE_ASTER' ),
   _F(RESULTAT = U,
      INST = 60.,
      MAILLE = 'M75',POINT = 5,
      NOM_CHAM = 'VARI_ELGA',
      CRITERE = 'RELATIF', PRECISION = 1.E-4,
      NOM_CMP = 'V1',   SENSIBILITE = PS_DSDE,
      VALE = -1.78363E-5, REFERENCE = 'AUTRE_ASTER' ),
      ));

# SENSIBILITE PAR RAPPORT A SIGMA_Y

TEST_RESU(RESU=(
   _F(RESULTAT = U,
      INST = 60.,
      MAILLE = 'M75',POINT = 1,
      NOM_CHAM = 'VARI_ELGA',
      CRITERE = 'RELATIF', PRECISION = 1.E-4,
      NOM_CMP = 'V1',   SENSIBILITE = PS_SIGY,
      VALE = -4.54865E-4, REFERENCE = 'AUTRE_ASTER' ),
   _F(RESULTAT = U,
      INST = 60.,
      MAILLE = 'M75',POINT = 5,
      NOM_CHAM = 'VARI_ELGA',
      CRITERE = 'RELATIF', PRECISION = 1.E-4,
      NOM_CMP = 'V1',   SENSIBILITE = PS_SIGY,
      VALE = -4.50133E-4, REFERENCE = 'AUTRE_ASTER' ),
      ));


FIN( )
#
