# TITRE MODELE PROBABILISTE NONPARAMETRIQUE EN HARMONIQUE SOUS-STRUCTURE
# ======================================================================
# COPYRIGHT (C) 1991 - 2012  EDF R&D                  WWW.CODE-ASTER.ORG
# THIS PROGRAM IS FREE SOFTWARE; YOU CAN REDISTRIBUTE IT AND/OR MODIFY
# IT UNDER THE TERMS OF THE GNU GENERAL PUBLIC LICENSE AS PUBLISHED BY
# THE FREE SOFTWARE FOUNDATION; EITHER VERSION 2 OF THE LICENSE, OR
# (AT YOUR OPTION) ANY LATER VERSION.
#
# THIS PROGRAM IS DISTRIBUTED IN THE HOPE THAT IT WILL BE USEFUL, BUT
# WITHOUT ANY WARRANTY; WITHOUT EVEN THE IMPLIED WARRANTY OF
# MERCHANTABILITY OR FITNESS FOR A PARTICULAR PURPOSE. SEE THE GNU
# GENERAL PUBLIC LICENSE FOR MORE DETAILS.
#
# YOU SHOULD HAVE RECEIVED A COPY OF THE GNU GENERAL PUBLIC LICENSE
# ALONG WITH THIS PROGRAM; IF NOT, WRITE TO EDF R&D CODE_ASTER,
#    1 AVENUE DU GENERAL DE GAULLE, 92141 CLAMART CEDEX, FRANCE.
# ======================================================================
##############################################################################
#                                                                            #
# PLAQUE RECTANGULAIRE EN APPPUI  SIMPLE SUR QUATRE BORDS, AVEC MASSES ET    #
# RAIDEURS LOCALISEES. LE CHARGEMENT EST HARMONIQUE ET LOCALISE              #
#                                                                            #
##############################################################################

DEBUT(CODE=_F(NIV_PUB_WEB='INTERNET',VISU_EFICAS='NON'),DEBUG=_F(SDVERI='OUI'))

##############################################################################
#                                                                            #
# CONSTRUCTION DU MODELE MOYEN ELEMENTS FINIS SOUS STRUCUTRE ET REDUCTION    #
# SUR LES MODES                                                              #
#                                                                            #
##############################################################################

# MODELE MECANIQUE
M1=3.
M2=4.
K=2.388E+7

AC=LIRE_MAILLAGE(FORMAT='MED',);

MAT=DEFI_MATERIAU( ELAS=_F( E   = 2.1E+11,
                            NU  = 0.29,
                            RHO = 7800.)
                           )
CHMAT1=AFFE_MATERIAU(MAILLAGE=AC,
                       AFFE=(_F(GROUP_MA='SURF1',
                                MATER=MAT,),),);
CHMAT2=AFFE_MATERIAU(MAILLAGE=AC,
                       AFFE=(_F(GROUP_MA='SURF2',
                                MATER=MAT,),),);

MO1=AFFE_MODELE(MAILLAGE=AC,
                   AFFE=( _F( GROUP_MA = 'SURF1',
                           PHENOMENE = 'MECANIQUE',
                           MODELISATION = 'DKT'),
                          _F(GROUP_MA='MASS1',
                            PHENOMENE='MECANIQUE',
                            MODELISATION='DIS_T',),
                          _F(GROUP_MA = ('RESSO1','RESSO2'),
                           PHENOMENE = 'MECANIQUE',
                           MODELISATION = 'DIS_TR'),
                           ),);

MO2=AFFE_MODELE(MAILLAGE=AC,
                   AFFE=( _F( GROUP_MA = 'SURF2',
                           PHENOMENE = 'MECANIQUE',
                           MODELISATION = 'DKT'),
                          _F(GROUP_MA='MASS2',
                            PHENOMENE='MECANIQUE',
                            MODELISATION='DIS_T',),
                          _F(GROUP_MA = ('RESSO3'),
                           PHENOMENE = 'MECANIQUE',
                           MODELISATION = 'DIS_TR'),
                           ),);

CA1=AFFE_CARA_ELEM( MODELE=MO1,
                   COQUE=_F( GROUP_MA = 'SURF1',
                               EPAIS = 4.0E-4),
                   DISCRET=( _F( GROUP_MA = ('RESSO1','RESSO2'),
                                 CARA = 'K_TR_D_L',
                                 VALE = ( K,K,K,0.,0.,0.,),),
                             _F( GROUP_MA = ('RESSO1','RESSO2'),
                                 CARA = 'M_TR_L',
                                 VALE = ( 0.,0.,0.,0.,0.,0.,0.,0.,0.,0.,0.,0.,0.,0.,0.,0.,0.,0.,0.,0.,
                                 0.,0.,0.,0.,0.,0.,0.,0.,0.,0.,0.,0.,0.,0.,0.,0.,0.,0.,0.,0.,
                                 0.,0.,0.,0.,0.,0.,0.,0.,0.,0.,0.,0.,0.,0.,0.,0.,0.,0.,0.,0.,
                                 0.,0.,0.,0.,0.,0.,0.,0.,0.,0.,0.,0.,0.,0.,0.,0.,0.,0.,),),
                             _F( GROUP_MA = 'MASS1',
                                 CARA = 'M_T_D_N',
                                 VALE = M1)),
                                 )
CA2=AFFE_CARA_ELEM( MODELE=MO2,
                   COQUE=_F( GROUP_MA = 'SURF2',
                               EPAIS = 4.0E-4),
                   DISCRET=( _F( GROUP_MA = ('RESSO3'),
                                 CARA = 'K_TR_D_L',
                                 VALE = ( K,K,K,0.,0.,0.,)),
                             _F( GROUP_MA = ('RESSO3'),
                                 CARA = 'M_TR_L',
                                 VALE = ( 0.,0.,0.,0.,0.,0.,0.,0.,0.,0.,0.,0.,0.,0.,0.,0.,0.,0.,0.,0.,
                                 0.,0.,0.,0.,0.,0.,0.,0.,0.,0.,0.,0.,0.,0.,0.,0.,0.,0.,0.,0.,
                                 0.,0.,0.,0.,0.,0.,0.,0.,0.,0.,0.,0.,0.,0.,0.,0.,0.,0.,0.,0.,
                                 0.,0.,0.,0.,0.,0.,0.,0.,0.,0.,0.,0.,0.,0.,0.,0.,0.,0.,),),
                             _F( GROUP_MA = 'MASS2',
                                 CARA = 'M_T_D_N',
                                 VALE = M2)),
                                 )

CH1=AFFE_CHAR_MECA( MODELE=MO1,
                   DDL_IMPO=( _F( GROUP_MA=('SURF1','RESSO1','RESSO2',),
                                   DX=0.,
                                   DY=0.,
                                   DRZ=0.
                                 ),
                              _F(  GROUP_MA='PI1',
                                   DZ=0.,
                                   DRY=0.
                                 ),
                              _F(  GROUP_NO=('PY1','PY2','PY3','PY4','PY5','PY6',
                              'PY7','PY8','PY9','PY10',
     'PY11','PY12','PY13','PY14','PY15','PY16','PY17','PY18','PY19','PY20',
     'PY21','PY22','PY23','PY24','PY25','PY26','PY27','PY28','PY29','PY30',
     'PY31','PY32','PY33','PY34','PY35','PY36','PY37','PY38','PY39','PY40',
     'PY41','PY42','PY43','PY44','PY45','PY46','PY47','PY48','PY49','PY50',
     'PY51',),
                                   DZ=0.,
                                   DRX=0.,
                                   DRY=0.,
                                 ),
                              _F(  GROUP_NO=('PRES01','PRES02',),
                                   DZ=0.,
                                   DRX=0.,
                                   DRY=0.,
                                 ),
                              _F(  GROUP_MA='CONT4',
                                   DZ=0.,
                                   DRX=0.,
                                 ),
                              _F(  GROUP_MA='PI4',
                                   DZ=0.,
                                   DRY=0.
                                 ),
                           ),
                  )
CH2=AFFE_CHAR_MECA( MODELE=MO2,
                   DDL_IMPO=( _F( GROUP_MA=('SURF2','RESSO3',),
                                   DX=0.,
                                   DY=0.,
                                   DRZ=0.
                                 ),
                              _F(  GROUP_MA='PI2',
                                   DZ=0.,
                                   DRY=0.
                                 ),
                              _F(  GROUP_NO=('PRES03',),
                                   DZ=0.,
                                   DRX=0.,
                                   DRY=0.,
                                 ),
                              _F(  GROUP_NO=('PY1','PY2','PY3','PY4','PY5',
                              'PY6','PY7','PY8','PY9','PY10',
     'PY11','PY12','PY13','PY14','PY15','PY16','PY17','PY18','PY19','PY20',
     'PY21','PY22','PY23','PY24','PY25','PY26','PY27','PY28','PY29','PY30',
     'PY31','PY32','PY33','PY34','PY35','PY36','PY37','PY38','PY39','PY40',
     'PY41','PY42','PY43','PY44','PY45','PY46','PY47','PY48','PY49','PY50',
     'PY51',),
                                   DZ=0.,
                                   DRX=0.,
                                   DRY=0.
                                 ),
                              _F(  GROUP_MA='CONT2',
                                   DZ=0.,
                                   DRX=0.
                                 ),
                              _F(  GROUP_MA='PI3',
                                   DZ=0.,
                                   DRY=0.
                                 ),
                           ),
                  )

CHARGE=AFFE_CHAR_MECA( MODELE=MO1, FORCE_NODALE=_F(GROUP_NO= 'PCHAR1',FZ = 1),);

ASSEMBLAGE(MODELE=MO1,
                CHAM_MATER=CHMAT1,
                CARA_ELEM=CA1,
                CHARGE=CH1,
                NUME_DDL=CO('NUMDDL1'),
                MATR_ASSE=(_F(MATRICE=CO('MATR1'),
                              OPTION='RIGI_MECA',),
                           _F(MATRICE=CO('MATM1'),
                              OPTION='MASS_MECA',),),
                VECT_ASSE=(_F(VECTEUR=CO("VECTASS"),
                              OPTION='CHAR_MECA',
                              CHARGE=CHARGE),),);
ASSEMBLAGE(MODELE=MO2,
                CHAM_MATER=CHMAT2,
                CARA_ELEM=CA2,
                CHARGE=CH2,
                NUME_DDL=CO('NUMDDL2'),
                MATR_ASSE=(_F(MATRICE=CO('MATR2'),
                              OPTION='RIGI_MECA',),
                           _F(MATRICE=CO('MATM2'),
                              OPTION='MASS_MECA',),),);


MODE1_1=CALC_MODES(MATR_RIGI=MATR1,
                   VERI_MODE=_F(SEUIL=1.E-5,
                                ),
                   OPTION='PLUS_PETITE',
                   CALC_FREQ=_F(NMAX_FREQ=4,
                                ),
                   MATR_MASS=MATM1,
                   )
MODE1_2=CALC_MODES(MATR_RIGI=MATR1,
                   VERI_MODE=_F(SEUIL=1.E-5,
                                ),
                   OPTION='BANDE',
                   CALC_FREQ=_F(FREQ=(25.,60.),
                                ),
                   MATR_MASS=MATM1,
                   )
MODE1_3=CALC_MODES(MATR_RIGI=MATR1,
                   VERI_MODE=_F(SEUIL=1.E-5,
                                ),
                   OPTION='BANDE',
                   CALC_FREQ=_F(FREQ=(60.,100.),
                                ),
                   MATR_MASS=MATM1,
                   )

MODE2=CALC_MODES(MATR_RIGI=MATR2,
                 VERI_MODE=_F(SEUIL=1.E-5,
                              ),
                 OPTION='PLUS_PETITE',
                 CALC_FREQ=_F(NMAX_FREQ=6,
                              ),
                 MATR_MASS=MATM2,
                 )

# COEFFICIENT DE RAYLEIGH

amred=0.03
Omin=5.2*pi
Omax=212.8*pi
a= 2*amred*Omax*Omin/(Omax+Omin)
b=2*amred/(Omax+Omin)

MATD1=COMB_MATR_ASSE( COMB_R=( _F( MATR_ASSE=MATM1,
                                  COEF_R = a ),
                              _F( MATR_ASSE=MATR1,
                                  COEF_R = b ),
                             )
                    )
MATD2=COMB_MATR_ASSE( COMB_R=( _F( MATR_ASSE=MATM2,
                                  COEF_R = a ),
                              _F( MATR_ASSE=MATR2,
                                  COEF_R = b ),
                             )
                    )

INTERF1=DEFI_INTERF_DYNA(   NUME_DDL=NUMDDL1,
                             INTERFACE=_F( NOM = 'LIAI1',
                                        TYPE = 'CB_HARMO',
                                        MASQUE = ('DRZ','DX','DY'),
                                        GROUP_NO = ('PY1','PY2','PY3','PY4',
                                        'PY5','PY6','PY7','PY8','PY9','PY10',
     'PY11','PY12','PY13','PY14','PY15','PY16','PY17','PY18','PY19','PY20',
     'PY21','PY22','PY23','PY24','PY25','PY26','PY27','PY28','PY29','PY30',
     'PY31','PY32','PY33','PY34','PY35','PY36','PY37','PY38','PY39','PY40',
     'PY41','PY42','PY43','PY44','PY45','PY46','PY47','PY48','PY49','PY50',
                                         'PY51',),
                                     ),
                                  )


BAMO1=DEFI_BASE_MODALE( CLASSIQUE=_F(INTERF_DYNA = INTERF1,
                                     MODE_MECA = (MODE1_1,MODE1_2,MODE1_3),
                                     NMAX_MODE = (3,      8,      2),),
                        INFO=2
                      )
# BAMO1 doit contenir les 3 premiers modes de MODE1_1 (sur 4)
#                         7 premiers modes de MODE1_2 (sur 7)
#                         2 premiers modes de MODE1_2 (sur 7)

INTERF2=DEFI_INTERF_DYNA( NUME_DDL=NUMDDL2,
                          INTERFACE=_F( NOM = 'LIAI2',
                                        TYPE = 'CB_HARMO',
                                        MASQUE = ('DRZ','DX','DY'),
                                        GROUP_NO = ('PY1','PY2','PY3','PY4',
                                        'PY5','PY6','PY7','PY8','PY9','PY10',
     'PY11','PY12','PY13','PY14','PY15','PY16','PY17','PY18','PY19','PY20',
     'PY21','PY22','PY23','PY24','PY25','PY26','PY27','PY28','PY29','PY30',
     'PY31','PY32','PY33','PY34','PY35','PY36','PY37','PY38','PY39','PY40',
     'PY41','PY42','PY43','PY44','PY45','PY46','PY47','PY48','PY49','PY50',
                              'PY51',),
                                     ),
                        )


BAMO2=DEFI_BASE_MODALE( CLASSIQUE=_F(INTERF_DYNA = INTERF2,
                                     MODE_MECA = MODE2,
                                     NMAX_MODE=100 ),)

MACRO1M=MACR_ELEM_DYNA(  BASE_MODALE=BAMO1,
                         MATR_AMOR =  MATD1,)
MACRO2M=MACR_ELEM_DYNA(  BASE_MODALE=BAMO2,
                         MATR_AMOR =  MATD2, )

LFREQ=DEFI_LIST_REEL(DEBUT=30.,
                          INTERVALLE=_F(JUSQU_A=60.,
                                        PAS=10.),   )
#LFREQ=DEFI_LIST_REEL(DEBUT=0.5,
#                          INTERVALLE=_F(JUSQU_A=100.,
#                                        PAS=0.5),  )

##############################################################################
#                                                                            #
# CALCUL PAR MONTE-CARLO DE LA MOYENNE ET DU "DOMAINE DE CONFIANCE" DE LA    #
# REPONSE HARMONIQUE                                                         #
#                                                                            #
##############################################################################

# PREPARATION POST-TRAITEMENT
DYNHAR=[None]*2
ss_struct=['PLQ1','PLQ2']
pt_obs=['POBS1','POBS2']
num_ss_struct=[0,1]
n_obs=len(pt_obs)
SUPOBS=[None]*n_obs
INFOBS=[None]*n_obs
M1_OBS=[None]*n_obs
M2_OBS=[None]*n_obs

# COEFFICIENT DE VARIATION PAR SOUS STRUCTURE
DELTA_M1 = 0.1
DELTA_K1 = 0.1
DELTA_D1 = 0.1

DELTA_M2 = 0.1
DELTA_K2 = 0.1
DELTA_D2 = 0.1

ns=3
# 3 REALISATIONS DES PROCESSUS STOCHASTIQUES ( 3 TIRAGES)

for k in range(1,ns+1):

   MACRO1=GENE_MATR_ALEA( MATR_MOYEN=MACRO1M,
                           COEF_VAR_RIGI=DELTA_K1,
                           COEF_VAR_MASS=DELTA_M1,
                           COEF_VAR_AMOR=DELTA_D1,
                          )

#
   MACRO2=GENE_MATR_ALEA( MATR_MOYEN=MACRO2M,
                           COEF_VAR_RIGI=DELTA_K2,
                           COEF_VAR_MASS=DELTA_M2,
                           COEF_VAR_AMOR=DELTA_D2,
                          )



#
###
###### MODELE GENERALISE :
###
#


   MODEGE=DEFI_MODELE_GENE( SOUS_STRUC=(_F( NOM = 'PLQ1',
                                         MACR_ELEM_DYNA = MACRO1,
                                         ANGL_NAUT = (0., 0., 0.,),
                                         TRANS=(0.,0.,0.),),
                             _F( NOM = 'PLQ2',
                                         MACR_ELEM_DYNA = MACRO2,
                                         ANGL_NAUT = (0., 0., 0.,),
                                         TRANS=(0.,0.,0.),)),
                             LIAISON=(
                                _F( SOUS_STRUC_1 = 'PLQ1',
                                         SOUS_STRUC_2 = 'PLQ2',
                                         INTERFACE_1 = 'LIAI1',
                                         INTERFACE_2 = 'LIAI2',),
                                         ),
                                 VERIF=_F(STOP_ERREUR='NON',),
                                 )

   NUMEGE=NUME_DDL_GENE(  MODELE_GENE=MODEGE)

#
   K_GENE=ASSE_MATR_GENE(  NUME_DDL_GENE=NUMEGE,
                                  OPTION='RIGI_GENE')

#
   M_GENE=ASSE_MATR_GENE(  NUME_DDL_GENE=NUMEGE,
                                  OPTION='MASS_GENE')

   A_GENE=ASSE_MATR_GENE(  NUME_DDL_GENE=NUMEGE,
                                  OPTION='AMOR_GENE')

   EFFO1 = ASSE_VECT_GENE(NUME_DDL_GENE= NUMEGE,
                           CHAR_SOUS_STRUC=_F( SOUS_STRUC = 'PLQ1',
                           VECT_ASSE= VECTASS ),

                      )

# CALCUL HARMONIQUE

   HARM=DYNA_VIBRA(TYPE_CALCUL='HARM',BASE_CALCUL='GENE',
                            MATR_MASS=M_GENE,
                            MATR_RIGI=K_GENE,
                            MATR_AMOR=A_GENE,
                            SOLVEUR=_F( METHODE='LDLT', ),
                            LIST_FREQ=LFREQ,
                            EXCIT=_F( VECT_ASSE_GENE = EFFO1,
                            COEF_MULT = 1.,
                                    ),
                         )
# BOUCLE SUR SOUS STRUCTURES
   for i in range(2):
     DYNHAR[i]=REST_SOUS_STRUC(  RESU_GENE=HARM,
                          SOUS_STRUC=ss_struct[i],
                          NOM_CHAM='DEPL',)

# POST-TRAITEMENT
# BOUCLE SUR POINTS D'OBSERVATION
   for i in range(n_obs):

     DZOBS=RECU_FONCTION(RESULTAT = DYNHAR[num_ss_struct[i]],
                          NOM_CHAM='DEPL',
                          GROUP_NO=pt_obs[i],
                          NOM_CMP='DZ',
#                          INTERPOL='LIN',
#                          PROL_DROITE='LINEAIRE',
#                          PROL_GAUCHE='LINEAIRE',
                          )
     SPOBS=  CALC_FONCTION(EXTRACTION=_F(FONCTION=DZOBS,
                                        PARTIE='MODULE',),
                               )

# CONSTRCTION DES ESTIMATIONS STATISTIQUES
     if k==1:
    #  ON INITIALISE LES ESTIMATEURS
        SUPOBS[i]=  CALC_FONCTION(COMB=_F(FONCTION=SPOBS,
                                        COEF=1.,),
                               )
        INFOBS[i]=  CALC_FONCTION(COMB=_F(FONCTION=SPOBS,
                                        COEF=1.,),
                                )
        M1_OBS[i]=  CALC_FONCTION(COMB=_F(FONCTION=SPOBS,
                                        COEF=1.),
                                )
        M2_OBS[i]=  CALC_FONCTION(PUISSANCE=_F(FONCTION=SPOBS,
                                             EXPOSANT=2),)

     else:
    #  ON CALCULE LES NOUVEAUX ESTIMATEURS EN PRENANT EN COMPTE LE
    #  DERNIER TIRAGE.

    # VARIABLES TEMPORAIRES INTERMEDIAIRES (CAR PAS DE CONCEPT REENTRANT)
        SUP=CALC_FONCTION(ENVELOPPE=_F(
                                         FONCTION=(SUPOBS[i],SPOBS),
                                         CRITERE='SUP'
                                         ),
                              )
        INF=CALC_FONCTION(ENVELOPPE=_F(
                                         FONCTION=(INFOBS[i],SPOBS),
                                         CRITERE='INF'
                                         ),
                              )
        M1 =  CALC_FONCTION( COMB=(_F(FONCTION=SPOBS,COEF=1.),
                                    _F(FONCTION=M1_OBS[i],COEF=1.))
                             )
        S2 = CALC_FONCTION(PUISSANCE=_F(FONCTION=SPOBS,
                                       EXPOSANT=2), )

        M2 =  CALC_FONCTION( COMB=(_F(FONCTION=S2,COEF=1.),
                                    _F(FONCTION=M2_OBS[i],COEF=1.))
                             )
        DETRUIRE(CONCEPT=_F(NOM=(SUPOBS[i],INFOBS[i],M1_OBS[i] ,M2_OBS[i],S2,)),INFO=1)

   # STOCKAGE DES ESTIMATEURS ET DESTRUCTION DES VARIABLES INTERMEDIAIRES
        SUPOBS[i]=  CALC_FONCTION(COMB=_F(FONCTION=SUP,
                                        COEF=1.),
                               )
        INFOBS[i]= CALC_FONCTION(COMB=_F(FONCTION=INF,
                                        COEF=1.),
                               )
        M1_OBS[i]=  CALC_FONCTION(COMB=_F(FONCTION=M1,
                                        COEF=1.),
                               )
        M2_OBS[i]=  CALC_FONCTION(COMB=_F(FONCTION=M2,
                                        COEF=1.),
                               )
        DETRUIRE(CONCEPT=_F(NOM=(M1,M2,INF,SUP)),INFO=1)

     DETRUIRE(CONCEPT=_F(NOM=(DZOBS,SPOBS)),INFO=1)

   DETRUIRE(CONCEPT=_F(NOM=(HARM,MACRO1,MACRO2,DYNHAR[0],DYNHAR[1],
    MODEGE,NUMEGE,K_GENE,M_GENE,A_GENE,EFFO1,)),INFO=1)

# CALCUL DES ESTIMATEURS FINAUX
M1OBS=[None]*n_obs
M2OBS=[None]*n_obs
for i in range(n_obs):
   M1OBS[i]=  CALC_FONCTION(COMB=_F(   FONCTION=M1_OBS[i], COEF=1./ns),)
   M2OBS[i]=  CALC_FONCTION(COMB=_F(   FONCTION=M2_OBS[i], COEF=1./ns),)

#################################
#                               #
#     TESTS DE VALIDATION       #
#                               #
#################################
# LA VALIDATION A ETE EFFECTUEE SUR CE CAS A PARTIR DE RESULTATS PUBLIES SOUS
# FORME DE COURBE (CF. DOC. V)
# ICI TESTS DE NON REGRESSION

# LES REFERENCES CI-DESSOUS NE SONT PAS CONVERGES STATISTIQUEMENT CAR LE NOMBRE
# ns DE SIMULATIONS EST TROP PETIT (AFIN DE NE PAS AUGMENTER LE TEMPS CPU NECESSAIRE
# POUR LE CAS TEST).
# CES RESULTATS NE SONT DONC VALABLES QUE POUR LA SUITE DE NOMBRES PSEUDO-ALEATOIRES
# UTILISEE (I.E. CELLE DE PYTHON v2.3).

TEST_FONCTION(VALEUR=(_F(VALE_CALC= 4.558721E-05,
                         VALE_PARA=30.0,
                         NOM_PARA='FREQ',
                         FONCTION=M1OBS_0,
                         ),
                      _F(VALE_CALC= 2.132502E-09,
                         VALE_PARA=30.0,
                         NOM_PARA='FREQ',
                         FONCTION=M2OBS_0,
                         ),
                      _F(VALE_CALC= 3.614431E-05,
                         VALE_PARA=30.0,
                         NOM_PARA='FREQ',
                         FONCTION=INFOBS_0,
                         ),
                      _F(VALE_CALC= 5.412786E-05,
                         VALE_PARA=30.0,
                         NOM_PARA='FREQ',
                         FONCTION=SUPOBS_0,
                         ),
                      _F(VALE_CALC= 4.408871E-04,
                         VALE_PARA=50.0,
                         NOM_PARA='FREQ',
                         FONCTION=M1OBS_1,
                         ),
                      _F(VALE_CALC= 1.970453E-07,
                         VALE_PARA=50.0,
                         NOM_PARA='FREQ',
                         FONCTION=M2OBS_1,
                         ),
                      _F(VALE_CALC= 3.729098E-04,
                         VALE_PARA=50.0,
                         NOM_PARA='FREQ',
                         FONCTION=INFOBS_1,
                         ),
                      _F(VALE_CALC= 4.978985E-04,
                         VALE_PARA=50.0,
                         NOM_PARA='FREQ',
                         FONCTION=SUPOBS_1,
                         ),
                      ),
              )

FIN();
