# TITRE REPONSE HARMONIQUE CYLINDRE EN D.P. (TRIA3 QUAD4)
#            CONFIGURATION MANAGEMENT OF EDF VERSION
# ======================================================================
# COPYRIGHT (C) 1991 - 2012  EDF R&D                  WWW.CODE-ASTER.ORG
# THIS PROGRAM IS FREE SOFTWARE; YOU CAN REDISTRIBUTE IT AND/OR MODIFY
# IT UNDER THE TERMS OF THE GNU GENERAL PUBLIC LICENSE AS PUBLISHED BY
# THE FREE SOFTWARE FOUNDATION; EITHER VERSION 2 OF THE LICENSE, OR
# (AT YOUR OPTION) ANY LATER VERSION.
#
# THIS PROGRAM IS DISTRIBUTED IN THE HOPE THAT IT WILL BE USEFUL, BUT
# WITHOUT ANY WARRANTY; WITHOUT EVEN THE IMPLIED WARRANTY OF
# MERCHANTABILITY OR FITNESS FOR A PARTICULAR PURPOSE. SEE THE GNU
# GENERAL PUBLIC LICENSE FOR MORE DETAILS.
#
# YOU SHOULD HAVE RECEIVED A COPY OF THE GNU GENERAL PUBLIC LICENSE
# ALONG WITH THIS PROGRAM; IF NOT, WRITE TO EDF R&D CODE_ASTER,
#    1 AVENUE DU GENERAL DE GAULLE, 92141 CLAMART CEDEX, FRANCE.
# ======================================================================
#CAS_TEST__: SHLV100E
# ----------------------------------------------------------------------
# SHLV100 E               COMMANDES                            23/05/91
# CYLINDRE SOUS PRESSION INTERNE HARMONIQUE AVEC EXTREMITES BLOQUEES
# SOLUTION ANALYTIQUE EN DEFORMATIONS PLANES
#
#         ..                      JWT                JWT
# K X + M X   = P    AVEC  P = P E        ET  X = X E
#       2
# (K - W M) X = P    AVEC  W = 0.2 RD/S   ET  P = 1 MPA
#
# MODELISATION : ELEMENTS MECANIQUE D_PLAN (TRIA3+QUAD4)
# MAILLAGE     : ALIBABA > ASTER
#
# ----------------------------------------------------------------------
# GROUPES DE NOEUDS ET MAILLES:
# A=GRNO1  B=GRNO2  C=GRNO3  D=GRNO4  E=GRNO5  F=GRNO6
# NOEUDS(AB)=GRNM11          SEG(EF)=GRMA12    SEG(AE)=GRMA13
# ----------------------------------------------------------------------
#

DEBUT(CODE=_F(NOM='SHLV100E',NIV_PUB_WEB='INTERNET'),DEBUG=_F(SDVERI='OUI'))

M=LIRE_MAILLAGE(FORMAT='MED',   )

MO=AFFE_MODELE(        MAILLAGE=M,
                                AFFE=_F(  TOUT = 'OUI',
                                       PHENOMENE = 'MECANIQUE',
                                       MODELISATION = 'D_PLAN'))

MA=DEFI_MATERIAU(          ELAS=_F(  E = 26.,
                                       NU = 0.3,
                                       RHO = 35.,
                                       ALPHA = 0.))

CM=AFFE_MATERIAU(      MAILLAGE=M,
                                AFFE=_F(  TOUT = 'OUI',
                                       MATER = MA))

CH=AFFE_CHAR_MECA(       MODELE=MO,
                           FACE_IMPO=_F(  GROUP_MA = 'GRMA12', DNOR = 0.),
                            DDL_IMPO=_F(  GROUP_NO = 'GRNM11', DY = 0.),
                            PRES_REP=_F(  GROUP_MA = 'GRMA13', PRES = 1.))

KE=CALC_MATR_ELEM(       MODELE=MO,
                              CHARGE=CH,
                          CHAM_MATER=CM,
                              OPTION='RIGI_MECA'                      )

ME=CALC_MATR_ELEM(       MODELE=MO,
                              CHARGE=CH,
                          CHAM_MATER=CM,
                              OPTION='MASS_MECA'                      )

VE=CALC_VECT_ELEM(       CHARGE=CH,
                          CHAM_MATER=CM,
                              OPTION='CHAR_MECA'                      )

NU=NUME_DDL(          MATR_RIGI=KE                               )

KAS=ASSE_MATRICE(      MATR_ELEM=KE,
                            NUME_DDL=NU                               )

MAS=ASSE_MATRICE(      MATR_ELEM=ME,
                             NUME_DDL=NU                  )

VAS=ASSE_VECTEUR(      VECT_ELEM=VE,
                            NUME_DDL=NU                               )

DYNA=DYNA_VIBRA(TYPE_CALCUL='HARM',BASE_CALCUL='PHYS',
                    MODELE=MO,
                    CHAM_MATER=CM,
                    MATR_MASS=MAS,
                    MATR_RIGI=KAS,
                    FREQ=0.031830988618379,
                    EXCIT=_F(VECT_ASSE=VAS,
                             COEF_MULT=1,),);

DYNA=CALC_CHAMP(reuse=DYNA,RESULTAT=DYNA,NUME_ORDRE=1,CONTRAINTE=('SIGM_ELNO'))


TEST_RESU(RESU=(_F(NUME_ORDRE=1,
                   GROUP_NO='A',
                   VALE_CALC_C=7.3243098417745E-03+0.0E+00j,
                   VALE_REFE_C=(0.0073397999999999996+0j),
                   REFERENCE='NON_DEFINI',
                   RESULTAT=DYNA,
                   NOM_CHAM='DEPL',
                   NOM_CMP='DX',
                   CRITERE='RELATIF',
                   PRECISION=1.E-2,),
                _F(NUME_ORDRE=1,
                   GROUP_NO='A',
                   VALE_CALC_C=-3.3881317890172E-20+0.0E+00j,
                   RESULTAT=DYNA,
                   NOM_CHAM='DEPL',
                   NOM_CMP='DY',
                   CRITERE='ABSOLU',
                   ),
                _F(NUME_ORDRE=1,
                   GROUP_NO='B',
                   VALE_CALC_C=4.6641144846315E-03+0.0E+00j,
                   VALE_REFE_C=(0.0046715999999999997+0j),
                   REFERENCE='NON_DEFINI',
                   RESULTAT=DYNA,
                   NOM_CHAM='DEPL',
                   NOM_CMP='DX',
                   CRITERE='RELATIF',
                   PRECISION=1.E-2,),
                _F(NUME_ORDRE=1,
                   GROUP_NO='B',
                   VALE_CALC_C=-3.3881317890172E-20+0.0E+00j,
                   VALE_REFE_C=0j,
                   REFERENCE='NON_DEFINI',
                   RESULTAT=DYNA,
                   NOM_CHAM='DEPL',
                   NOM_CMP='DY',
                   CRITERE='ABSOLU',
                   PRECISION=1.E-2,),
                _F(NUME_ORDRE=1,
                   GROUP_NO='C',
                   VALE_CALC_C=6.7669746387945E-03+0.0E+00j,
                   VALE_REFE_C=(0.00678109+0j),
                   REFERENCE='NON_DEFINI',
                   RESULTAT=DYNA,
                   NOM_CHAM='DEPL',
                   NOM_CMP='DX',
                   CRITERE='RELATIF',
                   PRECISION=1.E-2,),
                _F(NUME_ORDRE=1,
                   GROUP_NO='C',
                   VALE_CALC_C=2.8012256305326E-03+0.0E+00j,
                   VALE_REFE_C=(0.0028088200000000001+0j),
                   REFERENCE='NON_DEFINI',
                   RESULTAT=DYNA,
                   NOM_CHAM='DEPL',
                   NOM_CMP='DY',
                   CRITERE='RELATIF',
                   PRECISION=1.E-2,),
                _F(NUME_ORDRE=1,
                   GROUP_NO='D',
                   VALE_CALC_C=4.3083905456556E-03+0.0E+00j,
                   VALE_REFE_C=(0.0043252300000000002+0j),
                   REFERENCE='NON_DEFINI',
                   RESULTAT=DYNA,
                   NOM_CHAM='DEPL',
                   NOM_CMP='DX',
                   CRITERE='RELATIF',
                   PRECISION=1.E-2,),
                _F(NUME_ORDRE=1,
                   GROUP_NO='D',
                   VALE_CALC_C=1.7853924042581E-03+0.0E+00j,
                   VALE_REFE_C=(0.0017915699999999999+0j),
                   REFERENCE='NON_DEFINI',
                   RESULTAT=DYNA,
                   NOM_CHAM='DEPL',
                   NOM_CMP='DY',
                   CRITERE='RELATIF',
                   PRECISION=1.E-2,),
                _F(NUME_ORDRE=1,
                   GROUP_NO='E',
                   VALE_CALC_C=5.1784300638991E-03+0.0E+00j,
                   VALE_REFE_C=(0.00519002+0j),
                   REFERENCE='NON_DEFINI',
                   RESULTAT=DYNA,
                   NOM_CHAM='DEPL',
                   NOM_CMP='DX',
                   CRITERE='RELATIF',
                   PRECISION=1.E-2,),
                _F(NUME_ORDRE=1,
                   GROUP_NO='E',
                   VALE_CALC_C=5.1784300638991E-03+0.0E+00j,
                   VALE_REFE_C=(0.00519002+0j),
                   REFERENCE='NON_DEFINI',
                   RESULTAT=DYNA,
                   NOM_CHAM='DEPL',
                   NOM_CMP='DY',
                   CRITERE='RELATIF',
                   PRECISION=1.E-2,),
                _F(NUME_ORDRE=1,
                   GROUP_NO='F',
                   VALE_CALC_C=3.2974070970862E-03+0.0E+00j,
                   VALE_REFE_C=(0.0033103899999999999+0j),
                   REFERENCE='NON_DEFINI',
                   RESULTAT=DYNA,
                   NOM_CHAM='DEPL',
                   NOM_CMP='DX',
                   CRITERE='RELATIF',
                   PRECISION=1.E-2,),
                _F(NUME_ORDRE=1,
                   GROUP_NO='F',
                   VALE_CALC_C=3.2974070970862E-03+0.0E+00j,
                   VALE_REFE_C=(0.0033103899999999999+0j),
                   REFERENCE='NON_DEFINI',
                   RESULTAT=DYNA,
                   NOM_CHAM='DEPL',
                   NOM_CMP='DY',
                   CRITERE='RELATIF',
                   PRECISION=1.E-2,),
                _F(NUME_ORDRE=1,
                   GROUP_NO='A',
                   VALE_CALC_C=-0.87675238918953+0.0E+00j,
                   VALE_REFE_C=(-1+0j),
                   REFERENCE='NON_DEFINI',
                   RESULTAT=DYNA,
                   NOM_CHAM='SIGM_ELNO',
                   NOM_CMP='SIXX',
                   CRITERE='RELATIF',
                   PRECISION=0.13,
                   MAILLE='M1',),
                _F(NUME_ORDRE=1,
                   GROUP_NO='A',
                   VALE_CALC_C=1.5395744103213+0.0E+00j,
                   VALE_REFE_C=(1.6685000000000001+0j),
                   REFERENCE='NON_DEFINI',
                   RESULTAT=DYNA,
                   NOM_CHAM='SIGM_ELNO',
                   NOM_CMP='SIYY',
                   CRITERE='RELATIF',
                   PRECISION=0.080000000000000002,
                   MAILLE='M1',),
                _F(NUME_ORDRE=1,
                   GROUP_NO='A',
                   VALE_CALC_C=0.19884660633954+0.0E+00j,
                   VALE_REFE_C=(0.20055000000000001+0j),
                   REFERENCE='NON_DEFINI',
                   RESULTAT=DYNA,
                   NOM_CHAM='SIGM_ELNO',
                   NOM_CMP='SIZZ',
                   CRITERE='RELATIF',
                   PRECISION=1.E-2,
                   MAILLE='M1',),
                _F(NUME_ORDRE=1,
                   GROUP_NO='A',
                   VALE_CALC_C=-0.082572964472858+0.0E+00j,
                   VALE_REFE_C=0j,
                   REFERENCE='NON_DEFINI',
                   RESULTAT=DYNA,
                   NOM_CHAM='SIGM_ELNO',
                   NOM_CMP='SIXY',
                   CRITERE='ABSOLU',
                   PRECISION=0.10000000000000001,
                   MAILLE='M1',),
                _F(NUME_ORDRE=1,
                   GROUP_NO='B',
                   VALE_CALC_C=-0.017250705845705+0.0E+00j,
                   VALE_REFE_C=0j,
                   REFERENCE='NON_DEFINI',
                   RESULTAT=DYNA,
                   NOM_CHAM='SIGM_ELNO',
                   NOM_CMP='SIXX',
                   CRITERE='ABSOLU',
                   PRECISION=0.02,
                   MAILLE='M173',),
                _F(NUME_ORDRE=1,
                   GROUP_NO='B',
                   VALE_CALC_C=0.68366017016969+0.0E+00j,
                   VALE_REFE_C=(0.66737999999999997+0j),
                   REFERENCE='NON_DEFINI',
                   RESULTAT=DYNA,
                   NOM_CHAM='SIGM_ELNO',
                   NOM_CMP='SIYY',
                   CRITERE='RELATIF',
                   PRECISION=0.029999999999999999,
                   MAILLE='M173',),
                _F(NUME_ORDRE=1,
                   GROUP_NO='B',
                   VALE_CALC_C=0.19992283929719+0.0E+00j,
                   VALE_REFE_C=(0.20021+0j),
                   REFERENCE='NON_DEFINI',
                   RESULTAT=DYNA,
                   NOM_CHAM='SIGM_ELNO',
                   NOM_CMP='SIZZ',
                   CRITERE='RELATIF',
                   PRECISION=1.E-2,
                   MAILLE='M173',),
                _F(NUME_ORDRE=1,
                   GROUP_NO='B',
                   VALE_CALC_C=-0.017514694700843+0.0E+00j,
                   VALE_REFE_C=0j,
                   REFERENCE='NON_DEFINI',
                   RESULTAT=DYNA,
                   NOM_CHAM='SIGM_ELNO',
                   NOM_CMP='SIXY',
                   CRITERE='ABSOLU',
                   PRECISION=0.02,
                   MAILLE='M173',),
                _F(NUME_ORDRE=1,
                   GROUP_NO='C',
                   VALE_CALC_C=-0.57488933074222+0.0E+00j,
                   VALE_REFE_C=(-0.60921000000000003+0j),
                   REFERENCE='NON_DEFINI',
                   RESULTAT=DYNA,
                   NOM_CHAM='SIGM_ELNO',
                   NOM_CMP='SIXX',
                   CRITERE='RELATIF',
                   PRECISION=0.059999999999999998,
                   MAILLE='M50',),
                _F(NUME_ORDRE=1,
                   GROUP_NO='C',
                   VALE_CALC_C=1.400172844352+0.0E+00j,
                   VALE_REFE_C=(1.2777099999999999+0j),
                   REFERENCE='NON_DEFINI',
                   RESULTAT=DYNA,
                   NOM_CHAM='SIGM_ELNO',
                   NOM_CMP='SIYY',
                   CRITERE='RELATIF',
                   PRECISION=0.10000000000000001,
                   MAILLE='M50',),
                _F(NUME_ORDRE=1,
                   GROUP_NO='C',
                   VALE_CALC_C=0.24758505408293+0.0E+00j,
                   VALE_REFE_C=(0.20055000000000001+0j),
                   REFERENCE='NON_DEFINI',
                   RESULTAT=DYNA,
                   NOM_CHAM='SIGM_ELNO',
                   NOM_CMP='SIZZ',
                   CRITERE='RELATIF',
                   PRECISION=0.23999999999999999,
                   MAILLE='M50',),
                _F(NUME_ORDRE=1,
                   GROUP_NO='C',
                   VALE_CALC_C=-0.84261766834724+0.0E+00j,
                   VALE_REFE_C=(-0.94345999999999997+0j),
                   REFERENCE='NON_DEFINI',
                   RESULTAT=DYNA,
                   NOM_CHAM='SIGM_ELNO',
                   NOM_CMP='SIXY',
                   CRITERE='RELATIF',
                   PRECISION=0.11,
                   MAILLE='M50',),
                _F(NUME_ORDRE=1,
                   GROUP_NO='D',
                   VALE_CALC_C=0.078520791333873+0.0E+00j,
                   VALE_REFE_C=(0.097739999999999994+0j),
                   REFERENCE='NON_DEFINI',
                   RESULTAT=DYNA,
                   NOM_CHAM='SIGM_ELNO',
                   NOM_CMP='SIXX',
                   CRITERE='RELATIF',
                   PRECISION=0.20000000000000001,
                   MAILLE='M244',),
                _F(NUME_ORDRE=1,
                   GROUP_NO='D',
                   VALE_CALC_C=0.54280951121115+0.0E+00j,
                   VALE_REFE_C=(0.56964000000000004+0j),
                   REFERENCE='NON_DEFINI',
                   RESULTAT=DYNA,
                   NOM_CHAM='SIGM_ELNO',
                   NOM_CMP='SIYY',
                   CRITERE='RELATIF',
                   PRECISION=0.050000000000000003,
                   MAILLE='M244',),
                _F(NUME_ORDRE=1,
                   GROUP_NO='D',
                   VALE_CALC_C=0.18639909076351+0.0E+00j,
                   VALE_REFE_C=(0.20021+0j),
                   REFERENCE='NON_DEFINI',
                   RESULTAT=DYNA,
                   NOM_CHAM='SIGM_ELNO',
                   NOM_CMP='SIZZ',
                   CRITERE='RELATIF',
                   PRECISION=0.070000000000000007,
                   MAILLE='M244',),
                _F(NUME_ORDRE=1,
                   GROUP_NO='D',
                   VALE_CALC_C=-0.25065410103664+0.0E+00j,
                   VALE_REFE_C=(-0.23594999999999999+0j),
                   REFERENCE='NON_DEFINI',
                   RESULTAT=DYNA,
                   NOM_CHAM='SIGM_ELNO',
                   NOM_CMP='SIXY',
                   CRITERE='RELATIF',
                   PRECISION=0.070000000000000007,
                   MAILLE='M244',),
                _F(NUME_ORDRE=1,
                   GROUP_NO='E',
                   VALE_CALC_C=0.43185411763835+0.0E+00j,
                   VALE_REFE_C=(0.33424999999999999+0j),
                   REFERENCE='NON_DEFINI',
                   RESULTAT=DYNA,
                   NOM_CHAM='SIGM_ELNO',
                   NOM_CMP='SIXX',
                   CRITERE='RELATIF',
                   PRECISION=0.29999999999999999,
                   MAILLE='M75',),
                _F(NUME_ORDRE=1,
                   GROUP_NO='E',
                   VALE_CALC_C=0.53153687725159+0.0E+00j,
                   VALE_REFE_C=(0.33424999999999999+0j),
                   REFERENCE='NON_DEFINI',
                   RESULTAT=DYNA,
                   NOM_CHAM='SIGM_ELNO',
                   NOM_CMP='SIYY',
                   CRITERE='RELATIF',
                   PRECISION=0.59999999999999998,
                   MAILLE='M75',),
                _F(NUME_ORDRE=1,
                   GROUP_NO='E',
                   VALE_CALC_C=0.28901729846698+0.0E+00j,
                   VALE_REFE_C=(0.20055000000000001+0j),
                   REFERENCE='NON_DEFINI',
                   RESULTAT=DYNA,
                   NOM_CHAM='SIGM_ELNO',
                   NOM_CMP='SIZZ',
                   CRITERE='RELATIF',
                   PRECISION=0.5,
                   MAILLE='M75',),
                _F(NUME_ORDRE=1,
                   GROUP_NO='E',
                   VALE_CALC_C=-1.2686256877341+0.0E+00j,
                   VALE_REFE_C=(-1.3342499999999999+0j),
                   REFERENCE='NON_DEFINI',
                   RESULTAT=DYNA,
                   NOM_CHAM='SIGM_ELNO',
                   NOM_CMP='SIXY',
                   CRITERE='RELATIF',
                   PRECISION=0.050000000000000003,
                   MAILLE='M75',),
                _F(NUME_ORDRE=1,
                   GROUP_NO='F',
                   VALE_CALC_C=0.29765195069364+0.0E+00j,
                   VALE_REFE_C=(0.33368999999999999+0j),
                   REFERENCE='NON_DEFINI',
                   RESULTAT=DYNA,
                   NOM_CHAM='SIGM_ELNO',
                   NOM_CMP='SIXX',
                   CRITERE='RELATIF',
                   PRECISION=0.11,
                   MAILLE='M249',),
                _F(NUME_ORDRE=1,
                   GROUP_NO='F',
                   VALE_CALC_C=0.32446142727740+0.0E+00j,
                   VALE_REFE_C=(0.33368999999999999+0j),
                   REFERENCE='NON_DEFINI',
                   RESULTAT=DYNA,
                   NOM_CHAM='SIGM_ELNO',
                   NOM_CMP='SIYY',
                   CRITERE='RELATIF',
                   PRECISION=0.029999999999999999,
                   MAILLE='M249',),
                _F(NUME_ORDRE=1,
                   GROUP_NO='F',
                   VALE_CALC_C=0.18663401339131+0.0E+00j,
                   VALE_REFE_C=(0.20021+0j),
                   REFERENCE='NON_DEFINI',
                   RESULTAT=DYNA,
                   NOM_CHAM='SIGM_ELNO',
                   NOM_CMP='SIZZ',
                   CRITERE='RELATIF',
                   PRECISION=0.070000000000000007,
                   MAILLE='M249',),
                _F(NUME_ORDRE=1,
                   GROUP_NO='F',
                   VALE_CALC_C=-0.34149607110191+0.0E+00j,
                   VALE_REFE_C=(-0.33368999999999999+0j),
                   REFERENCE='NON_DEFINI',
                   RESULTAT=DYNA,
                   NOM_CHAM='SIGM_ELNO',
                   NOM_CMP='SIXY',
                   CRITERE='RELATIF',
                   PRECISION=0.029999999999999999,
                   MAILLE='M249',),
                ),
          )

#--------------------------------------------------------------------
FIN()
#
