# MODIF  DATE 17/01/2012   AUTEUR SELLENET N.SELLENET 
# TITRE REPONSE HARMONIQUE CYLINDRE EN D.P. (QUAD9)
#            CONFIGURATION MANAGEMENT OF EDF VERSION
# ======================================================================
# COPYRIGHT (C) 1991 - 2012  EDF R&D                  WWW.CODE-ASTER.ORG
# THIS PROGRAM IS FREE SOFTWARE; YOU CAN REDISTRIBUTE IT AND/OR MODIFY
# IT UNDER THE TERMS OF THE GNU GENERAL PUBLIC LICENSE AS PUBLISHED BY
# THE FREE SOFTWARE FOUNDATION; EITHER VERSION 2 OF THE LICENSE, OR
# (AT YOUR OPTION) ANY LATER VERSION.
#
# THIS PROGRAM IS DISTRIBUTED IN THE HOPE THAT IT WILL BE USEFUL, BUT
# WITHOUT ANY WARRANTY; WITHOUT EVEN THE IMPLIED WARRANTY OF
# MERCHANTABILITY OR FITNESS FOR A PARTICULAR PURPOSE. SEE THE GNU
# GENERAL PUBLIC LICENSE FOR MORE DETAILS.
#
# YOU SHOULD HAVE RECEIVED A COPY OF THE GNU GENERAL PUBLIC LICENSE
# ALONG WITH THIS PROGRAM; IF NOT, WRITE TO EDF R&D CODE_ASTER,
#    1 AVENUE DU GENERAL DE GAULLE, 92141 CLAMART CEDEX, FRANCE.
# ======================================================================
#CAS_TEST__: SHLV100G
# ----------------------------------------------------------------------
# SHLV100 G               COMMANDES                            31/05/91
# CYLINDRE SOUS PRESSION INTERNE HARMONIQUE AVEC EXTREMITES BLOQUEES
# SOLUTION ANALYTIQUE EN DEFORMATIONS PLANES
#
#         ..                      JWT                JWT
# K X + M X   = P    AVEC  P = P E        ET  X = X E
#       2
# (K - W M) X = P    AVEC  W = 0.2 RD/S   ET  P = 1 MPA
#
# MODELISATION : ELEMENTS MECANIQUE D_PLAN (QUAD9)
# MAILLAGE     : ALIBABA > ASTER
#
# ----------------------------------------------------------------------
# GROUPES DE NOEUDS ET MAILLES:
# A=GRNO1  B=GRNO2  C=GRNO3  D=GRNO4  E=GRNO5  F=GRNO6
# NOEUDS(AB)=GRNM11          SEG(EF)=GRMA12    SEG(AE)=GRMA13
# ----------------------------------------------------------------------
#

DEBUT(CODE=_F(NOM='SHLV100G',NIV_PUB_WEB='INTERNET'),DEBUG=_F(SDVERI='OUI'))

M=LIRE_MAILLAGE(FORMAT='MED',   )

MO=AFFE_MODELE(        MAILLAGE=M,
                                AFFE=_F(  TOUT = 'OUI',
                                       PHENOMENE = 'MECANIQUE',
                                       MODELISATION = 'D_PLAN'))

MA=DEFI_MATERIAU(          ELAS=_F(  E = 26.,
                                       NU = 0.3,
                                       RHO = 35.,
                                       ALPHA = 0.))

CM=AFFE_MATERIAU(      MAILLAGE=M,
                                AFFE=_F(  TOUT = 'OUI',
                                       MATER = MA))

CH=AFFE_CHAR_MECA(       MODELE=MO,
                           FACE_IMPO=_F(  GROUP_MA = 'GRMA12', DNOR = 0.),
                            DDL_IMPO=_F(  GROUP_NO = 'GRNM11', DY = 0.),
                            PRES_REP=_F(  GROUP_MA = 'GRMA13', PRES = 1.))

KE=CALC_MATR_ELEM(       MODELE=MO,
                              CHARGE=CH,
                          CHAM_MATER=CM,
                              OPTION='RIGI_MECA'                      )

ME=CALC_MATR_ELEM(       MODELE=MO,
                              CHARGE=CH,
                          CHAM_MATER=CM,
                              OPTION='MASS_MECA'                      )

VE=CALC_VECT_ELEM(       CHARGE=CH,
                          CHAM_MATER=CM,
                              OPTION='CHAR_MECA'                      )

NU=NUME_DDL(          MATR_RIGI=KE                               )

KAS=ASSE_MATRICE(      MATR_ELEM=KE,
                            NUME_DDL=NU                               )

MAS=ASSE_MATRICE(      MATR_ELEM=ME,
                             NUME_DDL=NU                  )

VAS=ASSE_VECTEUR(      VECT_ELEM=VE,
                            NUME_DDL=NU                               )

DYNA=DYNA_VIBRA(TYPE_CALCUL='HARM',BASE_CALCUL='PHYS',
                    MODELE=MO,
                    CHAM_MATER=CM,
                    MATR_MASS=MAS,
                    MATR_RIGI=KAS,
                    FREQ=0.0318309886184,
                    EXCIT=_F(VECT_ASSE=VAS,
                             COEF_MULT=1,),);

DYNA=CALC_ELEM(reuse =DYNA,


               RESULTAT=DYNA,
               NUME_ORDRE=1,
               OPTION='SIGM_ELNO',);

TEST_RESU(RESU=(_F(RESULTAT=DYNA,
                   NUME_ORDRE=1,
                   NOM_CHAM='DEPL',
                   NOM_CMP='DX',
                   GROUP_NO='A',
                   VALE_C=0.0073398+0.0j,
                   CRITERE='RELATIF',
                   PRECISION=0.01,),
                _F(RESULTAT=DYNA,
                   NUME_ORDRE=1,
                   NOM_CHAM='DEPL',
                   NOM_CMP='DY',
                   GROUP_NO='A',
                   VALE_C=0.0+0.0j,
                   CRITERE='ABSOLU',
                   PRECISION=1e-10,),
                _F(RESULTAT=DYNA,
                   NUME_ORDRE=1,
                   NOM_CHAM='DEPL',
                   NOM_CMP='DX',
                   GROUP_NO='B',
                   VALE_C=0.0046716+0.0j,
                   CRITERE='RELATIF',
                   PRECISION=0.01,),
                _F(RESULTAT=DYNA,
                   NUME_ORDRE=1,
                   NOM_CHAM='DEPL',
                   NOM_CMP='DY',
                   GROUP_NO='B',
                   VALE_C=0.0+0.0j,
                   CRITERE='ABSOLU',
                   PRECISION=0.01,),
                _F(RESULTAT=DYNA,
                   NUME_ORDRE=1,
                   NOM_CHAM='DEPL',
                   NOM_CMP='DX',
                   GROUP_NO='C',
                   VALE_C=0.00678109+0.0j,
                   CRITERE='RELATIF',
                   PRECISION=0.01,),
                _F(RESULTAT=DYNA,
                   NUME_ORDRE=1,
                   NOM_CHAM='DEPL',
                   NOM_CMP='DY',
                   GROUP_NO='C',
                   VALE_C=0.00280882+0.0j,
                   CRITERE='RELATIF',
                   PRECISION=0.01,),
                _F(RESULTAT=DYNA,
                   NUME_ORDRE=1,
                   NOM_CHAM='DEPL',
                   NOM_CMP='DX',
                   GROUP_NO='D',
                   VALE_C=0.00432523+0.0j,
                   CRITERE='RELATIF',
                   PRECISION=0.01,),
                _F(RESULTAT=DYNA,
                   NUME_ORDRE=1,
                   NOM_CHAM='DEPL',
                   NOM_CMP='DY',
                   GROUP_NO='D',
                   VALE_C=0.00179157+0.0j,
                   CRITERE='RELATIF',
                   PRECISION=0.01,),
                _F(RESULTAT=DYNA,
                   NUME_ORDRE=1,
                   NOM_CHAM='DEPL',
                   NOM_CMP='DX',
                   GROUP_NO='E',
                   VALE_C=0.00519002+0.0j,
                   CRITERE='RELATIF',
                   PRECISION=0.01,),
                _F(RESULTAT=DYNA,
                   NUME_ORDRE=1,
                   NOM_CHAM='DEPL',
                   NOM_CMP='DY',
                   GROUP_NO='E',
                   VALE_C=0.00519002+0.0j,
                   CRITERE='RELATIF',
                   PRECISION=0.01,),
                _F(RESULTAT=DYNA,
                   NUME_ORDRE=1,
                   NOM_CHAM='DEPL',
                   NOM_CMP='DX',
                   GROUP_NO='F',
                   VALE_C=0.00331039+0.0j,
                   CRITERE='RELATIF',
                   PRECISION=0.01,),
                _F(RESULTAT=DYNA,
                   NUME_ORDRE=1,
                   NOM_CHAM='DEPL',
                   NOM_CMP='DY',
                   GROUP_NO='F',
                   VALE_C=0.00331039+0.0j,
                   CRITERE='RELATIF',
                   PRECISION=0.01,),
                _F(RESULTAT=DYNA,
                   NUME_ORDRE=1,
                   NOM_CHAM='SIGM_ELNO',
                   NOM_CMP='SIXX',
                   MAILLE='M1',
                   GROUP_NO='A',
                   VALE_C=-1.0+0.0j,
                   CRITERE='RELATIF',
                   PRECISION=0.01,),
                _F(RESULTAT=DYNA,
                   NUME_ORDRE=1,
                   NOM_CHAM='SIGM_ELNO',
                   NOM_CMP='SIYY',
                   MAILLE='M1',
                   GROUP_NO='A',
                   VALE_C=1.6685+0.0j,
                   CRITERE='RELATIF',
                   PRECISION=0.01,),
                _F(RESULTAT=DYNA,
                   NUME_ORDRE=1,
                   NOM_CHAM='SIGM_ELNO',
                   NOM_CMP='SIZZ',
                   MAILLE='M1',
                   GROUP_NO='A',
                   VALE_C=0.20055+0.0j,
                   CRITERE='RELATIF',
                   PRECISION=0.01,),
                _F(RESULTAT=DYNA,
                   NUME_ORDRE=1,
                   NOM_CHAM='SIGM_ELNO',
                   NOM_CMP='SIXY',
                   MAILLE='M1',
                   GROUP_NO='A',
                   VALE_C=0.0+0.0j,
                   CRITERE='ABSOLU',
                   PRECISION=0.01,),
                _F(RESULTAT=DYNA,
                   NUME_ORDRE=1,
                   NOM_CHAM='SIGM_ELNO',
                   NOM_CMP='SIXX',
                   MAILLE='M82',
                   GROUP_NO='B',
                   VALE_C=0.0+0.0j,
                   CRITERE='ABSOLU',
                   PRECISION=0.01,),
                _F(RESULTAT=DYNA,
                   NUME_ORDRE=1,
                   NOM_CHAM='SIGM_ELNO',
                   NOM_CMP='SIYY',
                   MAILLE='M82',
                   GROUP_NO='B',
                   VALE_C=0.66738+0.0j,
                   CRITERE='RELATIF',
                   PRECISION=0.01,),
                _F(RESULTAT=DYNA,
                   NUME_ORDRE=1,
                   NOM_CHAM='SIGM_ELNO',
                   NOM_CMP='SIZZ',
                   MAILLE='M82',
                   GROUP_NO='B',
                   VALE_C=0.20021+0.0j,
                   CRITERE='RELATIF',
                   PRECISION=0.01,),
                _F(RESULTAT=DYNA,
                   NUME_ORDRE=1,
                   NOM_CHAM='SIGM_ELNO',
                   NOM_CMP='SIXY',
                   MAILLE='M82',
                   GROUP_NO='B',
                   VALE_C=0.0+0.0j,
                   CRITERE='ABSOLU',
                   PRECISION=0.01,),
                _F(RESULTAT=DYNA,
                   NUME_ORDRE=1,
                   NOM_CHAM='SIGM_ELNO',
                   NOM_CMP='SIXX',
                   MAILLE='M5',
                   GROUP_NO='C',
                   VALE_C=-0.60921+0.0j,
                   CRITERE='RELATIF',
                   PRECISION=0.01,),
                _F(RESULTAT=DYNA,
                   NUME_ORDRE=1,
                   NOM_CHAM='SIGM_ELNO',
                   NOM_CMP='SIYY',
                   MAILLE='M5',
                   GROUP_NO='C',
                   VALE_C=1.27771+0.0j,
                   CRITERE='RELATIF',
                   PRECISION=0.01,),
                _F(RESULTAT=DYNA,
                   NUME_ORDRE=1,
                   NOM_CHAM='SIGM_ELNO',
                   NOM_CMP='SIZZ',
                   MAILLE='M5',
                   GROUP_NO='C',
                   VALE_C=0.20055+0.0j,
                   CRITERE='RELATIF',
                   PRECISION=0.01,),
                _F(RESULTAT=DYNA,
                   NUME_ORDRE=1,
                   NOM_CHAM='SIGM_ELNO',
                   NOM_CMP='SIXY',
                   MAILLE='M5',
                   GROUP_NO='C',
                   VALE_C=-0.94346+0.0j,
                   CRITERE='RELATIF',
                   PRECISION=0.01,),
                _F(RESULTAT=DYNA,
                   NUME_ORDRE=1,
                   NOM_CHAM='SIGM_ELNO',
                   NOM_CMP='SIXX',
                   MAILLE='M97',
                   GROUP_NO='D',
                   VALE_C=0.09774+0.0j,
                   CRITERE='RELATIF',
                   PRECISION=0.01,),
                _F(RESULTAT=DYNA,
                   NUME_ORDRE=1,
                   NOM_CHAM='SIGM_ELNO',
                   NOM_CMP='SIYY',
                   MAILLE='M97',
                   GROUP_NO='D',
                   VALE_C=0.56964+0.0j,
                   CRITERE='RELATIF',
                   PRECISION=0.01,),
                _F(RESULTAT=DYNA,
                   NUME_ORDRE=1,
                   NOM_CHAM='SIGM_ELNO',
                   NOM_CMP='SIZZ',
                   MAILLE='M97',
                   GROUP_NO='D',
                   VALE_C=0.20021+0.0j,
                   CRITERE='RELATIF',
                   PRECISION=0.01,),
                _F(RESULTAT=DYNA,
                   NUME_ORDRE=1,
                   NOM_CHAM='SIGM_ELNO',
                   NOM_CMP='SIXY',
                   MAILLE='M97',
                   GROUP_NO='D',
                   VALE_C=-0.23595+0.0j,
                   CRITERE='RELATIF',
                   PRECISION=0.01,),
                _F(RESULTAT=DYNA,
                   NUME_ORDRE=1,
                   NOM_CHAM='SIGM_ELNO',
                   NOM_CMP='SIXX',
                   MAILLE='M10',
                   GROUP_NO='E',
                   VALE_C=0.33425+0.0j,
                   CRITERE='RELATIF',
                   PRECISION=0.01,),
                _F(RESULTAT=DYNA,
                   NUME_ORDRE=1,
                   NOM_CHAM='SIGM_ELNO',
                   NOM_CMP='SIYY',
                   MAILLE='M10',
                   GROUP_NO='E',
                   VALE_C=0.33425+0.0j,
                   CRITERE='RELATIF',
                   PRECISION=0.01,),
                _F(RESULTAT=DYNA,
                   NUME_ORDRE=1,
                   NOM_CHAM='SIGM_ELNO',
                   NOM_CMP='SIZZ',
                   MAILLE='M10',
                   GROUP_NO='E',
                   VALE_C=0.20055+0.0j,
                   CRITERE='RELATIF',
                   PRECISION=0.01,),
                _F(RESULTAT=DYNA,
                   NUME_ORDRE=1,
                   NOM_CHAM='SIGM_ELNO',
                   NOM_CMP='SIXY',
                   MAILLE='M10',
                   GROUP_NO='E',
                   VALE_C=-1.33425+0.0j,
                   CRITERE='RELATIF',
                   PRECISION=0.01,),
                _F(RESULTAT=DYNA,
                   NUME_ORDRE=1,
                   NOM_CHAM='SIGM_ELNO',
                   NOM_CMP='SIXX',
                   MAILLE='M55',
                   GROUP_NO='F',
                   VALE_C=0.33369+0.0j,
                   CRITERE='RELATIF',
                   PRECISION=0.01,),
                _F(RESULTAT=DYNA,
                   NUME_ORDRE=1,
                   NOM_CHAM='SIGM_ELNO',
                   NOM_CMP='SIYY',
                   MAILLE='M55',
                   GROUP_NO='F',
                   VALE_C=0.33369+0.0j,
                   CRITERE='RELATIF',
                   PRECISION=0.01,),
                _F(RESULTAT=DYNA,
                   NUME_ORDRE=1,
                   NOM_CHAM='SIGM_ELNO',
                   NOM_CMP='SIZZ',
                   MAILLE='M55',
                   GROUP_NO='F',
                   VALE_C=0.20021+0.0j,
                   CRITERE='RELATIF',
                   PRECISION=0.01,),
                _F(RESULTAT=DYNA,
                   NUME_ORDRE=1,
                   NOM_CHAM='SIGM_ELNO',
                   NOM_CMP='SIXY',
                   MAILLE='M55',
                   GROUP_NO='F',
                   VALE_C=-0.33369+0.0j,
                   CRITERE='RELATIF',
                   PRECISION=0.01,),),);

FIN();
#
