# MODIF  DATE 11/06/2012   AUTEUR PELLET J.PELLET 
# TITRE REPONSE HARMONIQUE CYLINDRE EN D.P. (PENTA15 HEXA20)
#            CONFIGURATION MANAGEMENT OF EDF VERSION
# ======================================================================
# COPYRIGHT (C) 1991 - 2012  EDF R&D                  WWW.CODE-ASTER.ORG
# THIS PROGRAM IS FREE SOFTWARE; YOU CAN REDISTRIBUTE IT AND/OR MODIFY
# IT UNDER THE TERMS OF THE GNU GENERAL PUBLIC LICENSE AS PUBLISHED BY
# THE FREE SOFTWARE FOUNDATION; EITHER VERSION 2 OF THE LICENSE, OR
# (AT YOUR OPTION) ANY LATER VERSION.
#
# THIS PROGRAM IS DISTRIBUTED IN THE HOPE THAT IT WILL BE USEFUL, BUT
# WITHOUT ANY WARRANTY; WITHOUT EVEN THE IMPLIED WARRANTY OF
# MERCHANTABILITY OR FITNESS FOR A PARTICULAR PURPOSE. SEE THE GNU
# GENERAL PUBLIC LICENSE FOR MORE DETAILS.
#
# YOU SHOULD HAVE RECEIVED A COPY OF THE GNU GENERAL PUBLIC LICENSE
# ALONG WITH THIS PROGRAM; IF NOT, WRITE TO EDF R&D CODE_ASTER,
#    1 AVENUE DU GENERAL DE GAULLE, 92141 CLAMART CEDEX, FRANCE.
# ======================================================================
#CAS_TEST__: SHLV100B
# ----------------------------------------------------------------------
# SHLV100 B               COMMANDES                             3/05/91
# CYLINDRE SOUS PRESSION INTERNE HARMONIQUE AVEC EXTREMITES BLOQUEES
# SOLUTION ANALYTIQUE EN DEFORMATIONS PLANES
#
#         ..                      JWT                JWT
# K X + M X   = P    AVEC  P = P E        ET  X = X E
#       2
# (K - W M) X = P    AVEC  W = 0.2 RD/S   ET  P = 1 MPA
#
# MODELISATION : ELEMENTS MECANIQUE 3D (PENTA15+HEXA20+QUAD8)
# MAILLAGE     : ALIBABA > ASTER > SUPERTAB
#
# ----------------------------------------------------------------------
# GROUPES DE NOEUDS ET MAILLES DANS PLAN ABEF :
# A=GRNO1  B=GRNO2  C=GRNO3  D=GRNO4  E=GRNO5  F=GRNO6
# NOEUDS(AB)=GRNM11          SEG(EF)=GRMA12    SEG(AE)=GRMA13
# GROUPES DE NOEUDS ET MAILLES EN 3D :
# GRNO: A B C D E F    A2 B2 C2 D2 E2 F2   A3 B3 C3 D3 E3 F3  BORDAB
# GRMA: FACEEF         FACEAE
# ----------------------------------------------------------------------
#

DEBUT(CODE=_F(NOM='SHLV100B',NIV_PUB_WEB='INTERNET'),DEBUG=_F(SDVERI='OUI'))

M=LIRE_MAILLAGE(FORMAT='MED',   )

MO=AFFE_MODELE(        MAILLAGE=M,
                                AFFE=_F(  TOUT = 'OUI',
                                       PHENOMENE = 'MECANIQUE',
                                       MODELISATION = '3D',             ))

M=MODI_MAILLAGE( reuse=M,   MAILLAGE=M,
                        ORIE_PEAU_3D=_F(  GROUP_MA = ( 'FACEEF', 'FACEAE', ),  )
                      )

MA=DEFI_MATERIAU(          ELAS=_F(  E = 26.,
                                       NU = 0.3,
                                       RHO = 35.,
                                       ALPHA = 0.,                      ))

CM=AFFE_MATERIAU(      MAILLAGE=M,
                                AFFE=_F(  TOUT = 'OUI',
                                       MATER = MA,                      ))

CH=AFFE_CHAR_MECA(       MODELE=MO,
                           FACE_IMPO=_F(  GROUP_MA = 'FACEEF',      DNOR = 0., ),DDL_IMPO=(
                            _F(  TOUT = 'OUI',           DZ = 0.,   ),
                                     _F(  GROUP_NO = 'BORDAB',      DX = 0.,   )),
                            PRES_REP=_F(  GROUP_MA = 'FACEAE',      PRES = 1., ))

KE=CALC_MATR_ELEM(       MODELE=MO,
                              CHARGE=CH,
                          CHAM_MATER=CM,
                              OPTION='RIGI_MECA'                      )

ME=CALC_MATR_ELEM(       MODELE=MO,
                              CHARGE=CH,
                          CHAM_MATER=CM,
                              OPTION='MASS_MECA'                      )

VE=CALC_VECT_ELEM(       CHARGE=CH,
                          CHAM_MATER=CM,
                              OPTION='CHAR_MECA'                      )

NU=NUME_DDL(          MATR_RIGI=KE                               )

KAS=ASSE_MATRICE(      MATR_ELEM=KE,
                            NUME_DDL=NU                               )

MAS=ASSE_MATRICE(      MATR_ELEM=ME,
                            NUME_DDL=NU                               )

VAS=ASSE_VECTEUR(      VECT_ELEM=VE,
                            NUME_DDL=NU                               )

FREQ=DEFI_LIST_REEL(VALE=0.03183,);

DYNAH=DYNA_VIBRA(TYPE_CALCUL='HARM',BASE_CALCUL='PHYS',
                     MATR_MASS=MAS,
                     MATR_RIGI=KAS,
                     LIST_FREQ=FREQ,
                     EXCIT=_F(VECT_ASSE=VAS,
                              COEF_MULT=1.0,),);

DYNAH=CALC_CHAMP(reuse=DYNAH,RESULTAT=DYNAH,CONTRAINTE=('SIGM_ELNO'))


TEST_RESU(RESU=(
   # DEPLACEMENTS

            _F(  RESULTAT = DYNAH, NUME_ORDRE=1,NOM_CHAM='DEPL',
                 CRITERE = 'ABSOLU',   PRECISION = 1.E-10,
                 GROUP_NO = 'A',         NOM_CMP = 'DX',
                 VALE_C = 0.+0.j,
              ),

            _F(  RESULTAT = DYNAH,  NUME_ORDRE=1,NOM_CHAM='DEPL',
                 CRITERE = 'RELATIF',  PRECISION = 1.E-2,
                 GROUP_NO = 'A',         NOM_CMP = 'DY',
                 VALE_C = 7.3398E-3+0.j,
              ),

            _F(  RESULTAT = DYNAH,  NUME_ORDRE=1,NOM_CHAM='DEPL',
                 CRITERE = 'ABSOLU',   PRECISION = 1.E-2,
                 GROUP_NO = 'B',         NOM_CMP = 'DX',
                 VALE_C = 0.+0.j,
                 ),

            _F(  RESULTAT = DYNAH,  NUME_ORDRE=1,NOM_CHAM='DEPL',
                 CRITERE = 'RELATIF',  PRECISION = 1.E-2,
                 GROUP_NO = 'B',         NOM_CMP = 'DY',
                 VALE_C = 4.6716E-3+0.j,
                 ),

            _F(  RESULTAT = DYNAH,  NUME_ORDRE=1,NOM_CHAM='DEPL',
                 CRITERE = 'RELATIF',  PRECISION = 1.E-2,
                 GROUP_NO = 'C',         NOM_CMP = 'DX',
                 VALE_C = -2.80882E-3+0.j, ),

            _F(  RESULTAT = DYNAH,  NUME_ORDRE=1,NOM_CHAM='DEPL',
                 CRITERE = 'RELATIF',  PRECISION = 1.E-2,
                 GROUP_NO = 'C',         NOM_CMP = 'DY',
                 VALE_C = 6.78109E-3+0.j,  ),

            _F(  RESULTAT = DYNAH,  NUME_ORDRE=1,NOM_CHAM='DEPL',
                 CRITERE = 'RELATIF',  PRECISION = 1.E-2,
                 GROUP_NO = 'D',         NOM_CMP = 'DX',
                 VALE_C = -1.79157E-3+0.j, ),

            _F(  RESULTAT = DYNAH,  NUME_ORDRE=1,NOM_CHAM='DEPL',
                 CRITERE = 'RELATIF',  PRECISION = 1.E-2,
                 GROUP_NO = 'D',         NOM_CMP = 'DY',
                 VALE_C = 4.32523E-3+0.j,  ),

            _F(  RESULTAT = DYNAH,  NUME_ORDRE=1,NOM_CHAM='DEPL',
                 CRITERE = 'RELATIF',  PRECISION = 1.E-2,
                 GROUP_NO = 'E',         NOM_CMP = 'DX',
                 VALE_C = -5.19002E-3+0.j, ),

            _F(  RESULTAT = DYNAH,  NUME_ORDRE=1,NOM_CHAM='DEPL',
                 CRITERE = 'RELATIF',  PRECISION = 1.E-2,
                 GROUP_NO = 'E',         NOM_CMP = 'DY',
                 VALE_C = 5.19002E-3+0.j,  ),

            _F(  RESULTAT = DYNAH,  NUME_ORDRE=1,NOM_CHAM='DEPL',
                 CRITERE = 'RELATIF',  PRECISION = 1.E-2,
                 GROUP_NO = 'F',         NOM_CMP = 'DX',
                 VALE_C = -3.31039E-3+0.j, ),

            _F(  RESULTAT = DYNAH,  NUME_ORDRE=1,NOM_CHAM='DEPL',
                 CRITERE = 'RELATIF',  PRECISION = 1.E-2,
                 GROUP_NO = 'F',         NOM_CMP = 'DY',
                 VALE_C = 3.31039E-3+0.j,  ),



   # CONTRAINTES

            _F(  RESULTAT = DYNAH, NUME_ORDRE=1,NOM_CHAM='SIGM_ELNO',
                 CRITERE = 'RELATIF',  PRECISION = 1.E-2,
                 MAILLE = 'MA251',    GROUP_NO = 'A',         NOM_CMP = 'SIXX',
                 VALE_C = 1.6685+0.j,  ),

            _F(  RESULTAT = DYNAH, NUME_ORDRE=1,NOM_CHAM='SIGM_ELNO',
                 CRITERE = 'RELATIF',  PRECISION = 1.E-2,
                 MAILLE = 'MA251',    GROUP_NO = 'A',         NOM_CMP = 'SIYY',
                 VALE_C = -1.+0.j,     ),

            _F(  RESULTAT = DYNAH, NUME_ORDRE=1,NOM_CHAM='SIGM_ELNO',
                 CRITERE = 'RELATIF',  PRECISION = 1.E-2,
                 MAILLE = 'MA251',    GROUP_NO = 'A',         NOM_CMP = 'SIZZ',
                 VALE_C = 0.20055+0.j, ),

            _F(  RESULTAT = DYNAH, NUME_ORDRE=1,NOM_CHAM='SIGM_ELNO',
                 CRITERE = 'ABSOLU',   PRECISION = 1.E-2,
                 MAILLE = 'MA251',    GROUP_NO = 'A',         NOM_CMP = 'SIXY',
                 VALE_C = 0.+0.j,      ),
#
            _F(  RESULTAT = DYNAH, NUME_ORDRE=1,NOM_CHAM='SIGM_ELNO',
                 CRITERE = 'RELATIF',  PRECISION = 1.E-2,
                 MAILLE = 'MA551',    GROUP_NO = 'B',         NOM_CMP = 'SIXX',
                 VALE_C = 0.66738+0.j, ),

            _F(  RESULTAT = DYNAH, NUME_ORDRE=1,NOM_CHAM='SIGM_ELNO',
                 CRITERE = 'ABSOLU',   PRECISION = 1.E-2,
                 MAILLE = 'MA551',    GROUP_NO = 'B',         NOM_CMP = 'SIYY',
                 VALE_C = 0.+0.j,      ),

            _F(  RESULTAT = DYNAH, NUME_ORDRE=1,NOM_CHAM='SIGM_ELNO',
                 CRITERE = 'RELATIF',  PRECISION = 1.E-2,
                 MAILLE = 'MA551',    GROUP_NO = 'B',         NOM_CMP = 'SIZZ',
                 VALE_C = 0.20021+0.j, ),

            _F(  RESULTAT = DYNAH, NUME_ORDRE=1,NOM_CHAM='SIGM_ELNO',
                 CRITERE = 'ABSOLU',   PRECISION = 1.E-2,
                 MAILLE = 'MA551',    GROUP_NO = 'B',         NOM_CMP = 'SIXY',
                 VALE_C = 0.+0.j,      ),
#
            _F(  RESULTAT = DYNAH, NUME_ORDRE=1,NOM_CHAM='SIGM_ELNO',
                 CRITERE = 'RELATIF',  PRECISION = 1.E-2,
                 MAILLE = 'MA391',    GROUP_NO = 'C',         NOM_CMP = 'SIXX',
                 VALE_C = 1.27771+0.j, ),

            _F(  RESULTAT = DYNAH, NUME_ORDRE=1,NOM_CHAM='SIGM_ELNO',
                 CRITERE = 'RELATIF',  PRECISION = 1.E-2,
                 MAILLE = 'MA391',    GROUP_NO = 'C',         NOM_CMP = 'SIYY',
                 VALE_C = -0.60921+0.j,),

            _F(  RESULTAT = DYNAH, NUME_ORDRE=1,NOM_CHAM='SIGM_ELNO',
                 CRITERE = 'RELATIF',  PRECISION = 1.E-2,
                 MAILLE = 'MA391',    GROUP_NO = 'C',         NOM_CMP = 'SIZZ',
                 VALE_C = 0.20055+0.j, ),

            _F(  RESULTAT = DYNAH, NUME_ORDRE=1,NOM_CHAM='SIGM_ELNO',
                 CRITERE = 'RELATIF',  PRECISION = 1.E-2,
                 MAILLE = 'MA391',    GROUP_NO = 'C',         NOM_CMP = 'SIXY',
                 VALE_C = 0.94346+0.j, ),
#
            _F(  RESULTAT = DYNAH, NUME_ORDRE=1,NOM_CHAM='SIGM_ELNO',
                 CRITERE = 'RELATIF',  PRECISION = 1.E-2,
                 MAILLE = 'MA747',    GROUP_NO = 'D',         NOM_CMP = 'SIXX',
                 VALE_C = 0.56964+0.j, ),

            _F(  RESULTAT = DYNAH, NUME_ORDRE=1,NOM_CHAM='SIGM_ELNO',
                 CRITERE = 'RELATIF',  PRECISION = 1.E-2,
                 MAILLE = 'MA747',    GROUP_NO = 'D',         NOM_CMP = 'SIYY',
                 VALE_C = 0.09774+0.j, ),

            _F(  RESULTAT = DYNAH, NUME_ORDRE=1,NOM_CHAM='SIGM_ELNO',
                 CRITERE = 'RELATIF',  PRECISION = 1.E-2,
                 MAILLE = 'MA747',    GROUP_NO = 'D',         NOM_CMP = 'SIZZ',
                 VALE_C = 0.20021+0.j, ),

            _F(  RESULTAT = DYNAH, NUME_ORDRE=1,NOM_CHAM='SIGM_ELNO',
                 CRITERE = 'RELATIF',  PRECISION = 1.E-2,
                 MAILLE = 'MA747',    GROUP_NO = 'D',         NOM_CMP = 'SIXY',
                 VALE_C = 0.23595+0.j, ),

            _F(  RESULTAT = DYNAH, NUME_ORDRE=1,NOM_CHAM='SIGM_ELNO',
                 CRITERE = 'RELATIF',  PRECISION = 1.E-2,
                 MAILLE = 'MA399',    GROUP_NO = 'E',         NOM_CMP = 'SIXX',
                 VALE_C = 0.33425+0.j, ),

            _F(  RESULTAT = DYNAH, NUME_ORDRE=1,NOM_CHAM='SIGM_ELNO',
                 CRITERE = 'RELATIF',  PRECISION = 1.E-2,
                 MAILLE = 'MA399',    GROUP_NO = 'E',         NOM_CMP = 'SIYY',
                 VALE_C = 0.33425+0.j, ),

            _F(  RESULTAT = DYNAH, NUME_ORDRE=1,NOM_CHAM='SIGM_ELNO',
                 CRITERE = 'RELATIF',  PRECISION = 1.E-2,
                 MAILLE = 'MA399',    GROUP_NO = 'E',         NOM_CMP = 'SIZZ',
                 VALE_C = 0.20055+0.j, ),

            _F(  RESULTAT = DYNAH, NUME_ORDRE=1,NOM_CHAM='SIGM_ELNO',
                 CRITERE = 'RELATIF',  PRECISION = 1.E-2,
                 MAILLE = 'MA399',    GROUP_NO = 'E',         NOM_CMP = 'SIXY',
                 VALE_C = 1.33425+0.j, ),
#
            _F(  RESULTAT = DYNAH, NUME_ORDRE=1,NOM_CHAM='SIGM_ELNO',
                 CRITERE = 'RELATIF',  PRECISION = 1.E-3,
                 MAILLE = 'MA695',    GROUP_NO = 'F',         NOM_CMP = 'SIXX',
                 VALE_C = 0.33369+0.j, ),

            _F(  RESULTAT = DYNAH, NUME_ORDRE=1,NOM_CHAM='SIGM_ELNO',
                 CRITERE = 'RELATIF',  PRECISION = 1.E-3,
                 MAILLE = 'MA695',    GROUP_NO = 'F',         NOM_CMP = 'SIYY',
                 VALE_C = 0.33369+0.j, ),

            _F(  RESULTAT = DYNAH, NUME_ORDRE=1,NOM_CHAM='SIGM_ELNO',
                 CRITERE = 'RELATIF',  PRECISION = 1.E-3,
                 MAILLE = 'MA695',    GROUP_NO = 'F',         NOM_CMP = 'SIZZ',
                 VALE_C = 0.20021+0.j, ),

            _F(  RESULTAT = DYNAH, NUME_ORDRE=1,NOM_CHAM='SIGM_ELNO',
                 CRITERE = 'RELATIF',  PRECISION = 1.E-3,
                 MAILLE = 'MA695',    GROUP_NO = 'F',         NOM_CMP = 'SIXY',
                 VALE_C = 0.33369+0.j, ))

            )

#--------------------------------------------------------------------
FIN()
#
