# MODIF  DATE 11/06/2012   AUTEUR PELLET J.PELLET 
# TITRE REPONSE HARMONIQUE CYLINDRE EN D.P. (TETRA10)
#            CONFIGURATION MANAGEMENT OF EDF VERSION
# ======================================================================
# COPYRIGHT (C) 1991 - 2012  EDF R&D                  WWW.CODE-ASTER.ORG
# THIS PROGRAM IS FREE SOFTWARE; YOU CAN REDISTRIBUTE IT AND/OR MODIFY
# IT UNDER THE TERMS OF THE GNU GENERAL PUBLIC LICENSE AS PUBLISHED BY
# THE FREE SOFTWARE FOUNDATION; EITHER VERSION 2 OF THE LICENSE, OR
# (AT YOUR OPTION) ANY LATER VERSION.
#
# THIS PROGRAM IS DISTRIBUTED IN THE HOPE THAT IT WILL BE USEFUL, BUT
# WITHOUT ANY WARRANTY; WITHOUT EVEN THE IMPLIED WARRANTY OF
# MERCHANTABILITY OR FITNESS FOR A PARTICULAR PURPOSE. SEE THE GNU
# GENERAL PUBLIC LICENSE FOR MORE DETAILS.
#
# YOU SHOULD HAVE RECEIVED A COPY OF THE GNU GENERAL PUBLIC LICENSE
# ALONG WITH THIS PROGRAM; IF NOT, WRITE TO EDF R&D CODE_ASTER,
#    1 AVENUE DU GENERAL DE GAULLE, 92141 CLAMART CEDEX, FRANCE.
# ======================================================================
#CAS_TEST__: SHLV100D
# ----------------------------------------------------------------------
# SHLV100 D               COMMANDES                            23/05/91
# CYLINDRE SOUS PRESSION INTERNE HARMONIQUE AVEC EXTREMITES BLOQUEES
# SOLUTION ANALYTIQUE EN DEFORMATIONS PLANES
#
#         ..                      JWT                JWT
# K X + M X   = P    AVEC  P = P E        ET  X = X E
#       2
# (K - W M) X = P    AVEC  W = 0.2 RD/S   ET  P = 1 MPA
#
# MODELISATION : ELEMENTS MECANIQUE 3D (TRETRA10)
# MAILLAGE     : SUPERTAB > ASTER
#
# ----------------------------------------------------------------------
# GROUPES DE NOEUDS ET MAILLES DANS PLAN ABEF :
# A=GRNO1  B=GRNO2  C=GRNO3  D=GRNO4  E=GRNO5  F=GRNO6
# NOEUDS(AB)=GRNM11          SEG(EF)=GRMA12    SEG(AE)=GRMA13
# GROUPES DE NOEUDS ET MAILLES EN 3D :
# GRNO: A B C D E F    A2 B2 C2 D2 E2 F2   A3 B3 C3 D3 E3 F3  BORDAB
# GRMA: FACEEF         FACEAE
# ----------------------------------------------------------------------

DEBUT(CODE=_F(NOM='SHLV100D',
              NIV_PUB_WEB='INTERNET',),
      DEBUG=_F(SDVERI='OUI',),);

M=LIRE_MAILLAGE(FORMAT='MED',);

MO=AFFE_MODELE(MAILLAGE=M,
               AFFE=_F(TOUT='OUI',
                       PHENOMENE='MECANIQUE',
                       MODELISATION='3D',),);

MA=DEFI_MATERIAU(ELAS=_F(E=26.,
                         NU=0.3,
                         RHO=35.,
                         ALPHA=0.,),);

M=MODI_MAILLAGE(reuse =M,
                MAILLAGE=M,
                ORIE_PEAU_3D=_F(GROUP_MA=('FACEEF','FACEAE',),),);

CM=AFFE_MATERIAU(MAILLAGE=M,
                 AFFE=_F(TOUT='OUI',
                         MATER=MA,),);

CH=AFFE_CHAR_MECA(MODELE=MO,
                  DDL_IMPO=(_F(TOUT='OUI',
                               DZ=0.,),
                            _F(GROUP_NO='BORDAB',
                               DY=0.,),),
                  FACE_IMPO=_F(GROUP_MA='FACEEF',
                               DNOR=0.,),
                  PRES_REP=_F(GROUP_MA='FACEAE',
                              PRES=1.,),);

KE=CALC_MATR_ELEM(OPTION='RIGI_MECA',
                  MODELE=MO,
                  CHAM_MATER=CM,
                  CHARGE=CH,);

ME=CALC_MATR_ELEM(OPTION='MASS_MECA',
                  MODELE=MO,
                  CHAM_MATER=CM,
                  CHARGE=CH,);

VE=CALC_VECT_ELEM(OPTION='CHAR_MECA',
                  CHARGE=CH,
                  CHAM_MATER=CM,);

NU=NUME_DDL(MATR_RIGI=KE,);

KAS=ASSE_MATRICE(MATR_ELEM=KE,
                 NUME_DDL=NU,);

MAS=ASSE_MATRICE(MATR_ELEM=ME,
                 NUME_DDL=NU,);

VAS=ASSE_VECTEUR(VECT_ELEM=VE,
                 NUME_DDL=NU,);

FREQ=DEFI_LIST_REEL(VALE=0.03183,);

DYNAH=DYNA_VIBRA(BASE_CALCUL='PHYS',
                 TYPE_CALCUL='HARM',
                 MATR_MASS=MAS,
                 MATR_RIGI=KAS,
                 LIST_FREQ=FREQ,
                 EXCIT=_F(VECT_ASSE=VAS,
                          COEF_MULT=1.0,),);

DYNAH=CALC_CHAMP(reuse=DYNAH,RESULTAT=DYNAH,CONTRAINTE=('SIGM_ELNO'))


TEST_RESU(RESU=(_F(RESULTAT=DYNAH,
                   NUME_ORDRE=1,
                   NOM_CHAM='DEPL',
                   NOM_CMP='DX',
                   GROUP_NO='A',
                   VALE_C=(0.0073397999999999996+0j),
                   CRITERE='RELATIF',
                   PRECISION=0.01,),
                _F(RESULTAT=DYNAH,
                   NUME_ORDRE=1,
                   NOM_CHAM='DEPL',
                   NOM_CMP='DY',
                   GROUP_NO='A',
                   VALE_C=0j,
                   CRITERE='ABSOLU',
                   PRECISION=1e-10,),
                _F(RESULTAT=DYNAH,
                   NUME_ORDRE=1,
                   NOM_CHAM='DEPL',
                   NOM_CMP='DX',
                   GROUP_NO='B',
                   VALE_C=(0.0046715999999999997+0j),
                   CRITERE='RELATIF',
                   PRECISION=0.01,),
                _F(RESULTAT=DYNAH,
                   NUME_ORDRE=1,
                   NOM_CHAM='DEPL',
                   NOM_CMP='DY',
                   GROUP_NO='B',
                   VALE_C=0j,
                   CRITERE='ABSOLU',
                   PRECISION=1e-10,),
                _F(RESULTAT=DYNAH,
                   NUME_ORDRE=1,
                   NOM_CHAM='DEPL',
                   NOM_CMP='DX',
                   GROUP_NO='C',
                   VALE_C=(0.00678109+0j),
                   CRITERE='RELATIF',
                   PRECISION=0.01,),
                _F(RESULTAT=DYNAH,
                   NUME_ORDRE=1,
                   NOM_CHAM='DEPL',
                   NOM_CMP='DY',
                   GROUP_NO='C',
                   VALE_C=(0.0028088200000000001+0j),
                   CRITERE='RELATIF',
                   PRECISION=0.01,),
                _F(RESULTAT=DYNAH,
                   NUME_ORDRE=1,
                   NOM_CHAM='DEPL',
                   NOM_CMP='DX',
                   GROUP_NO='D',
                   VALE_C=(0.0043252300000000002+0j),
                   CRITERE='RELATIF',
                   PRECISION=0.01,),
                _F(RESULTAT=DYNAH,
                   NUME_ORDRE=1,
                   NOM_CHAM='DEPL',
                   NOM_CMP='DY',
                   GROUP_NO='D',
                   VALE_C=(0.0017915699999999999+0j),
                   CRITERE='RELATIF',
                   PRECISION=0.01,),
                _F(RESULTAT=DYNAH,
                   NUME_ORDRE=1,
                   NOM_CHAM='DEPL',
                   NOM_CMP='DX',
                   GROUP_NO='E',
                   VALE_C=(0.00519002+0j),
                   CRITERE='RELATIF',
                   PRECISION=0.01,),
                _F(RESULTAT=DYNAH,
                   NUME_ORDRE=1,
                   NOM_CHAM='DEPL',
                   NOM_CMP='DY',
                   GROUP_NO='E',
                   VALE_C=(0.00519002+0j),
                   CRITERE='RELATIF',
                   PRECISION=0.01,),
                _F(RESULTAT=DYNAH,
                   NUME_ORDRE=1,
                   NOM_CHAM='DEPL',
                   NOM_CMP='DX',
                   GROUP_NO='F',
                   VALE_C=(0.0033103899999999999+0j),
                   CRITERE='RELATIF',
                   PRECISION=0.01,),
                _F(RESULTAT=DYNAH,
                   NUME_ORDRE=1,
                   NOM_CHAM='DEPL',
                   NOM_CMP='DY',
                   GROUP_NO='F',
                   VALE_C=(0.0033103899999999999+0j),
                   CRITERE='RELATIF',
                   PRECISION=0.01,),
                _F(RESULTAT=DYNAH,
                   NUME_ORDRE=1,
                   NOM_CHAM='SIGM_ELNO',
                   NOM_CMP='SIXX',
                   MAILLE='MA4',
                   GROUP_NO='A',
                   VALE_C=(-1+0j),
                   CRITERE='RELATIF',
                   PRECISION=0.05,),
                _F(RESULTAT=DYNAH,
                   NUME_ORDRE=1,
                   NOM_CHAM='SIGM_ELNO',
                   NOM_CMP='SIYY',
                   MAILLE='MA4',
                   GROUP_NO='A',
                   VALE_C=(1.6685000000000001+0j),
                   CRITERE='RELATIF',
                   PRECISION=0.05,),
                _F(RESULTAT=DYNAH,
                   NUME_ORDRE=1,
                   NOM_CHAM='SIGM_ELNO',
                   NOM_CMP='SIZZ',
                   MAILLE='MA4',
                   GROUP_NO='A',
                   VALE_C=(0.20055000000000001+0j),
                   CRITERE='RELATIF',
                   PRECISION=0.05,),
                _F(RESULTAT=DYNAH,
                   NUME_ORDRE=1,
                   NOM_CHAM='SIGM_ELNO',
                   NOM_CMP='SIXY',
                   MAILLE='MA4',
                   GROUP_NO='A',
                   VALE_C=0j,
                   CRITERE='ABSOLU',
                   PRECISION=0.05,),
                _F(RESULTAT=DYNAH,
                   NUME_ORDRE=1,
                   NOM_CHAM='SIGM_ELNO',
                   NOM_CMP='SIXX',
                   MAILLE='MA2',
                   GROUP_NO='B',
                   VALE_C=0j,
                   CRITERE='ABSOLU',
                   PRECISION=0.01,),
                _F(RESULTAT=DYNAH,
                   NUME_ORDRE=1,
                   NOM_CHAM='SIGM_ELNO',
                   NOM_CMP='SIYY',
                   MAILLE='MA2',
                   GROUP_NO='B',
                   VALE_C=(0.66737999999999997+0j),
                   CRITERE='RELATIF',
                   PRECISION=0.01,),
                _F(RESULTAT=DYNAH,
                   NUME_ORDRE=1,
                   NOM_CHAM='SIGM_ELNO',
                   NOM_CMP='SIZZ',
                   MAILLE='MA2',
                   GROUP_NO='B',
                   VALE_C=(0.20021+0j),
                   CRITERE='RELATIF',
                   PRECISION=0.01,),
                _F(RESULTAT=DYNAH,
                   NUME_ORDRE=1,
                   NOM_CHAM='SIGM_ELNO',
                   NOM_CMP='SIXY',
                   MAILLE='MA2',
                   GROUP_NO='B',
                   VALE_C=0j,
                   CRITERE='ABSOLU',
                   PRECISION=0.01,),
                _F(RESULTAT=DYNAH,
                   NUME_ORDRE=1,
                   NOM_CHAM='SIGM_ELNO',
                   NOM_CMP='SIXX',
                   MAILLE='MA1',
                   GROUP_NO='C',
                   VALE_C=(-0.60921000000000003+0j),
                   CRITERE='RELATIF',
                   PRECISION=0.05,),
                _F(RESULTAT=DYNAH,
                   NUME_ORDRE=1,
                   NOM_CHAM='SIGM_ELNO',
                   NOM_CMP='SIYY',
                   MAILLE='MA1',
                   GROUP_NO='C',
                   VALE_C=(1.2777099999999999+0j),
                   CRITERE='RELATIF',
                   PRECISION=0.05,),
                _F(RESULTAT=DYNAH,
                   NUME_ORDRE=1,
                   NOM_CHAM='SIGM_ELNO',
                   NOM_CMP='SIZZ',
                   MAILLE='MA1',
                   GROUP_NO='C',
                   VALE_C=(0.20055000000000001+0j),
                   CRITERE='RELATIF',
                   PRECISION=0.05,),
                _F(RESULTAT=DYNAH,
                   NUME_ORDRE=1,
                   NOM_CHAM='SIGM_ELNO',
                   NOM_CMP='SIXY',
                   MAILLE='MA1',
                   GROUP_NO='C',
                   VALE_C=(-0.94345999999999997+0j),
                   CRITERE='RELATIF',
                   PRECISION=0.05,),
                _F(RESULTAT=DYNAH,
                   NUME_ORDRE=1,
                   NOM_CHAM='SIGM_ELNO',
                   NOM_CMP='SIXX',
                   MAILLE='MA3',
                   GROUP_NO='D',
                   VALE_C=(0.097739999999999994+0j),
                   CRITERE='RELATIF',
                   PRECISION=0.05,),
                _F(RESULTAT=DYNAH,
                   NUME_ORDRE=1,
                   NOM_CHAM='SIGM_ELNO',
                   NOM_CMP='SIYY',
                   MAILLE='MA3',
                   GROUP_NO='D',
                   VALE_C=(0.56964000000000004+0j),
                   CRITERE='RELATIF',
                   PRECISION=0.05,),
                _F(RESULTAT=DYNAH,
                   NUME_ORDRE=1,
                   NOM_CHAM='SIGM_ELNO',
                   NOM_CMP='SIZZ',
                   MAILLE='MA3',
                   GROUP_NO='D',
                   VALE_C=(0.20021+0j),
                   CRITERE='RELATIF',
                   PRECISION=0.05,),
                _F(RESULTAT=DYNAH,
                   NUME_ORDRE=1,
                   NOM_CHAM='SIGM_ELNO',
                   NOM_CMP='SIXY',
                   MAILLE='MA3',
                   GROUP_NO='D',
                   VALE_C=(-0.23594999999999999+0j),
                   CRITERE='RELATIF',
                   PRECISION=0.05,),
                _F(RESULTAT=DYNAH,
                   NUME_ORDRE=1,
                   NOM_CHAM='SIGM_ELNO',
                   NOM_CMP='SIXX',
                   MAILLE='MA93',
                   GROUP_NO='E',
                   VALE_C=(0.33424999999999999+0j),
                   CRITERE='RELATIF',
                   PRECISION=0.15,),
                _F(RESULTAT=DYNAH,
                   NUME_ORDRE=1,
                   NOM_CHAM='SIGM_ELNO',
                   NOM_CMP='SIYY',
                   MAILLE='MA93',
                   GROUP_NO='E',
                   VALE_C=(0.33424999999999999+0j),
                   CRITERE='RELATIF',
                   PRECISION=0.175,),
                _F(RESULTAT=DYNAH,
                   NUME_ORDRE=1,
                   NOM_CHAM='SIGM_ELNO',
                   NOM_CMP='SIZZ',
                   MAILLE='MA93',
                   GROUP_NO='E',
                   VALE_C=(0.20055000000000001+0j),
                   CRITERE='RELATIF',
                   PRECISION=0.031,),
                _F(RESULTAT=DYNAH,
                   NUME_ORDRE=1,
                   NOM_CHAM='SIGM_ELNO',
                   NOM_CMP='SIXY',
                   MAILLE='MA93',
                   GROUP_NO='E',
                   VALE_C=(-1.3342499999999999+0j),
                   CRITERE='RELATIF',
                   PRECISION=0.02,),
                _F(RESULTAT=DYNAH,
                   NUME_ORDRE=1,
                   NOM_CHAM='SIGM_ELNO',
                   NOM_CMP='SIXX',
                   MAILLE='MA94',
                   GROUP_NO='F',
                   VALE_C=(0.33368999999999999+0j),
                   CRITERE='RELATIF',
                   PRECISION=0.01,),
                _F(RESULTAT=DYNAH,
                   NUME_ORDRE=1,
                   NOM_CHAM='SIGM_ELNO',
                   NOM_CMP='SIYY',
                   MAILLE='MA94',
                   GROUP_NO='F',
                   VALE_C=(0.33368999999999999+0j),
                   CRITERE='RELATIF',
                   PRECISION=0.01,),
                _F(RESULTAT=DYNAH,
                   NUME_ORDRE=1,
                   NOM_CHAM='SIGM_ELNO',
                   NOM_CMP='SIZZ',
                   MAILLE='MA94',
                   GROUP_NO='F',
                   VALE_C=(0.20021+0j),
                   CRITERE='RELATIF',
                   PRECISION=0.01,),
                _F(RESULTAT=DYNAH,
                   NUME_ORDRE=1,
                   NOM_CHAM='SIGM_ELNO',
                   NOM_CMP='SIXY',
                   MAILLE='MA94',
                   GROUP_NO='F',
                   VALE_C=(-0.33368999999999999+0j),
                   CRITERE='RELATIF',
                   PRECISION=0.01,),),);

#--------------------------------------------------------------------

FIN();

#

