# TITRE REPONSE HARMONIQUE CYLINDRE EN D.P. (TRIA6 QUAD8)
# ======================================================================
# COPYRIGHT (C) 1991 - 2012  EDF R&D                  WWW.CODE-ASTER.ORG
# THIS PROGRAM IS FREE SOFTWARE; YOU CAN REDISTRIBUTE IT AND/OR MODIFY
# IT UNDER THE TERMS OF THE GNU GENERAL PUBLIC LICENSE AS PUBLISHED BY
# THE FREE SOFTWARE FOUNDATION; EITHER VERSION 2 OF THE LICENSE, OR
# (AT YOUR OPTION) ANY LATER VERSION.
#
# THIS PROGRAM IS DISTRIBUTED IN THE HOPE THAT IT WILL BE USEFUL, BUT
# WITHOUT ANY WARRANTY; WITHOUT EVEN THE IMPLIED WARRANTY OF
# MERCHANTABILITY OR FITNESS FOR A PARTICULAR PURPOSE. SEE THE GNU
# GENERAL PUBLIC LICENSE FOR MORE DETAILS.
#
# YOU SHOULD HAVE RECEIVED A COPY OF THE GNU GENERAL PUBLIC LICENSE
# ALONG WITH THIS PROGRAM; IF NOT, WRITE TO EDF R&D CODE_ASTER,
#    1 AVENUE DU GENERAL DE GAULLE, 92141 CLAMART CEDEX, FRANCE.
# ======================================================================
#CAS_TEST__: SHLV100F
# ----------------------------------------------------------------------
# SHLV100 F               COMMANDES                            23/05/91
# CYLINDRE SOUS PRESSION INTERNE HARMONIQUE AVEC EXTREMITES BLOQUEES
# SOLUTION ANALYTIQUE EN DEFORMATIONS PLANES
#
#         ..                      JWT                JWT
# K X + M X   = P    AVEC  P = P E        ET  X = X E
#       2
# (K - W M) X = P    AVEC  W = 0.2 RD/S   ET  P = 1 MPA
#
# MODELISATION : ELEMENTS MECANIQUE D_PLAN (TRIA6+QUAD8)
# MAILLAGE     : ALIBABA > ASTER
#
# ----------------------------------------------------------------------
# GROUPES DE NOEUDS ET MAILLES:
# A=GRNO1  B=GRNO2  C=GRNO3  D=GRNO4  E=GRNO5  F=GRNO6
# NOEUDS(AB)=GRNM11          SEG(EF)=GRMA12    SEG(AE)=GRMA13
# ----------------------------------------------------------------------
#

DEBUT(CODE=_F(NIV_PUB_WEB='INTERNET'),DEBUG=_F(SDVERI='OUI'))

M=LIRE_MAILLAGE(FORMAT='MED',   )

MO=AFFE_MODELE(        MAILLAGE=M,
                                AFFE=_F(  TOUT = 'OUI',
                                       PHENOMENE = 'MECANIQUE',
                                       MODELISATION = 'D_PLAN'))

MA=DEFI_MATERIAU(          ELAS=_F(  E = 26.,
                                       NU = 0.3,
                                       RHO = 35.,
                                       ALPHA = 0.))

CM=AFFE_MATERIAU(      MAILLAGE=M,
                                AFFE=_F(  TOUT = 'OUI',
                                       MATER = MA))

CH=AFFE_CHAR_MECA(       MODELE=MO,
                           FACE_IMPO=_F(  GROUP_MA = 'GRMA12', DNOR = 0.),
                            DDL_IMPO=_F(  GROUP_NO = 'GRNM11', DX = 0.),
                            PRES_REP=_F(  GROUP_MA = 'GRMA13', PRES = 1.))

KE=CALC_MATR_ELEM(       MODELE=MO,
                              CHARGE=CH,
                          CHAM_MATER=CM,
                              OPTION='RIGI_MECA'                      )

ME=CALC_MATR_ELEM(       MODELE=MO,
                              CHARGE=CH,
                          CHAM_MATER=CM,
                              OPTION='MASS_MECA'                      )

VE=CALC_VECT_ELEM(       CHARGE=CH,
                          CHAM_MATER=CM,
                              OPTION='CHAR_MECA'                      )

NU=NUME_DDL(          MATR_RIGI=KE                               )

KAS=ASSE_MATRICE(      MATR_ELEM=KE,
                            NUME_DDL=NU                               )

MAS=ASSE_MATRICE(      MATR_ELEM=ME,
                             NUME_DDL=NU                  )

VAS=ASSE_VECTEUR(      VECT_ELEM=VE,
                            NUME_DDL=NU                               )

DYNA=DYNA_VIBRA(TYPE_CALCUL='HARM',BASE_CALCUL='PHYS',
                    MODELE=MO,
                    CHAM_MATER=CM,
                    MATR_MASS=MAS,
                    MATR_RIGI=KAS,
                    FREQ=0.0318309886184,
                    EXCIT=_F(VECT_ASSE=VAS,
                             COEF_MULT=1,),);

DYNA=CALC_CHAMP(reuse=DYNA,RESULTAT=DYNA,NUME_ORDRE=1,CONTRAINTE=('SIGM_ELNO'))


TEST_RESU(RESU=(_F(NUME_ORDRE=1,
                   GROUP_NO='A',
                   VALE_CALC_C=-5.505714157153E-21+0.0E+00j,
                   RESULTAT=DYNA,
                   NOM_CHAM='DEPL',
                   NOM_CMP='DX',
                   CRITERE='ABSOLU',
                   ),
                _F(NUME_ORDRE=1,
                   GROUP_NO='A',
                   VALE_CALC_C=7.3326347375124E-03+0.0E+00j,
                   VALE_REFE_C=(0.0073397999999999996+0j),
                   REFERENCE='NON_DEFINI',
                   RESULTAT=DYNA,
                   NOM_CHAM='DEPL',
                   NOM_CMP='DY',
                   CRITERE='RELATIF',
                   PRECISION=1.E-2,),
                _F(NUME_ORDRE=1,
                   GROUP_NO='B',
                   VALE_CALC_C=2.7105054312138E-20+0.0E+00j,
                   VALE_REFE_C=0j,
                   REFERENCE='NON_DEFINI',
                   RESULTAT=DYNA,
                   NOM_CHAM='DEPL',
                   NOM_CMP='DX',
                   CRITERE='ABSOLU',
                   PRECISION=1.E-2,),
                _F(NUME_ORDRE=1,
                   GROUP_NO='B',
                   VALE_CALC_C=4.6682484160652E-03+0.0E+00j,
                   VALE_REFE_C=(0.0046715999999999997+0j),
                   REFERENCE='NON_DEFINI',
                   RESULTAT=DYNA,
                   NOM_CHAM='DEPL',
                   NOM_CMP='DY',
                   CRITERE='RELATIF',
                   PRECISION=1.E-2,),
                _F(NUME_ORDRE=1,
                   GROUP_NO='C',
                   VALE_CALC_C=-2.8062656350627E-03+0.0E+00j,
                   VALE_REFE_C=(-0.0028088200000000001+0j),
                   REFERENCE='NON_DEFINI',
                   RESULTAT=DYNA,
                   NOM_CHAM='DEPL',
                   NOM_CMP='DX',
                   CRITERE='RELATIF',
                   PRECISION=1.E-2,),
                _F(NUME_ORDRE=1,
                   GROUP_NO='C',
                   VALE_CALC_C=6.7745399314294E-03+0.0E+00j,
                   VALE_REFE_C=(0.00678109+0j),
                   REFERENCE='NON_DEFINI',
                   RESULTAT=DYNA,
                   NOM_CHAM='DEPL',
                   NOM_CMP='DY',
                   CRITERE='RELATIF',
                   PRECISION=1.E-2,),
                _F(NUME_ORDRE=1,
                   GROUP_NO='D',
                   VALE_CALC_C=-1.7864606494209E-03+0.0E+00j,
                   VALE_REFE_C=(-0.0017915699999999999+0j),
                   REFERENCE='NON_DEFINI',
                   RESULTAT=DYNA,
                   NOM_CHAM='DEPL',
                   NOM_CMP='DX',
                   CRITERE='RELATIF',
                   PRECISION=1.E-2,),
                _F(NUME_ORDRE=1,
                   GROUP_NO='D',
                   VALE_CALC_C=4.3128649339561E-03+0.0E+00j,
                   VALE_REFE_C=(0.0043252300000000002+0j),
                   REFERENCE='NON_DEFINI',
                   RESULTAT=DYNA,
                   NOM_CHAM='DEPL',
                   NOM_CMP='DY',
                   CRITERE='RELATIF',
                   PRECISION=1.E-2,),
                _F(NUME_ORDRE=1,
                   GROUP_NO='E',
                   VALE_CALC_C=-5.1851458367823E-03+0.0E+00j,
                   VALE_REFE_C=(-0.00519002+0j),
                   REFERENCE='NON_DEFINI',
                   RESULTAT=DYNA,
                   NOM_CHAM='DEPL',
                   NOM_CMP='DX',
                   CRITERE='RELATIF',
                   PRECISION=1.E-2,),
                _F(NUME_ORDRE=1,
                   GROUP_NO='E',
                   VALE_CALC_C=5.1851458367823E-03+0.0E+00j,
                   VALE_REFE_C=(0.00519002+0j),
                   REFERENCE='NON_DEFINI',
                   RESULTAT=DYNA,
                   NOM_CHAM='DEPL',
                   NOM_CMP='DY',
                   CRITERE='RELATIF',
                   PRECISION=1.E-2,),
                _F(NUME_ORDRE=1,
                   GROUP_NO='F',
                   VALE_CALC_C=-3.3009082144114E-03+0.0E+00j,
                   VALE_REFE_C=(-0.0033103899999999999+0j),
                   REFERENCE='NON_DEFINI',
                   RESULTAT=DYNA,
                   NOM_CHAM='DEPL',
                   NOM_CMP='DX',
                   CRITERE='RELATIF',
                   PRECISION=1.E-2,),
                _F(NUME_ORDRE=1,
                   GROUP_NO='F',
                   VALE_CALC_C=3.3009082144114E-03+0.0E+00j,
                   VALE_REFE_C=(0.0033103899999999999+0j),
                   REFERENCE='NON_DEFINI',
                   RESULTAT=DYNA,
                   NOM_CHAM='DEPL',
                   NOM_CMP='DY',
                   CRITERE='RELATIF',
                   PRECISION=1.E-2,),
                _F(NUME_ORDRE=1,
                   GROUP_NO='A',
                   VALE_CALC_C=1.6620630206362+0.0E+00j,
                   VALE_REFE_C=(1.6685000000000001+0j),
                   REFERENCE='NON_DEFINI',
                   RESULTAT=DYNA,
                   NOM_CHAM='SIGM_ELNO',
                   NOM_CMP='SIXX',
                   CRITERE='RELATIF',
                   PRECISION=1.E-2,
                   MAILLE='M1',),
                _F(NUME_ORDRE=1,
                   GROUP_NO='A',
                   VALE_CALC_C=-0.99080486814811+0.0E+00j,
                   VALE_REFE_C=(-1+0j),
                   REFERENCE='NON_DEFINI',
                   RESULTAT=DYNA,
                   NOM_CHAM='SIGM_ELNO',
                   NOM_CMP='SIYY',
                   CRITERE='RELATIF',
                   PRECISION=1.E-2,
                   MAILLE='M1',),
                _F(NUME_ORDRE=1,
                   GROUP_NO='A',
                   VALE_CALC_C=0.20137744574644+0.0E+00j,
                   VALE_REFE_C=(0.20055000000000001+0j),
                   REFERENCE='NON_DEFINI',
                   RESULTAT=DYNA,
                   NOM_CHAM='SIGM_ELNO',
                   NOM_CMP='SIZZ',
                   CRITERE='RELATIF',
                   PRECISION=1.E-2,
                   MAILLE='M1',),
                _F(NUME_ORDRE=1,
                   GROUP_NO='A',
                   VALE_CALC_C=4.1744953076876E-03+0.0E+00j,
                   VALE_REFE_C=0j,
                   REFERENCE='NON_DEFINI',
                   RESULTAT=DYNA,
                   NOM_CHAM='SIGM_ELNO',
                   NOM_CMP='SIXY',
                   CRITERE='ABSOLU',
                   PRECISION=1.E-2,
                   MAILLE='M1',),
                _F(NUME_ORDRE=1,
                   GROUP_NO='B',
                   VALE_CALC_C=0.66704055164320+0.0E+00j,
                   RESULTAT=DYNA,
                   NOM_CHAM='SIGM_ELNO',
                   NOM_CMP='SIXX',
                   CRITERE='RELATIF',
                   MAILLE='M151',),
                _F(NUME_ORDRE=1,
                   GROUP_NO='B',
                   VALE_CALC_C=1.3639737516301E-03+0.0E+00j,
                   VALE_REFE_C=0j,
                   REFERENCE='NON_DEFINI',
                   RESULTAT=DYNA,
                   NOM_CHAM='SIGM_ELNO',
                   NOM_CMP='SIYY',
                   CRITERE='ABSOLU',
                   PRECISION=2.E-3,
                   MAILLE='M151',),
                _F(NUME_ORDRE=1,
                   GROUP_NO='B',
                   VALE_CALC_C=0.20052135761845+0.0E+00j,
                   VALE_REFE_C=(0.20021+0j),
                   REFERENCE='NON_DEFINI',
                   RESULTAT=DYNA,
                   NOM_CHAM='SIGM_ELNO',
                   NOM_CMP='SIZZ',
                   CRITERE='RELATIF',
                   PRECISION=2.E-3,
                   MAILLE='M151',),
                _F(NUME_ORDRE=1,
                   GROUP_NO='B',
                   VALE_CALC_C=-3.1941334017266E-04+0.0E+00j,
                   RESULTAT=DYNA,
                   NOM_CHAM='SIGM_ELNO',
                   NOM_CMP='SIXY',
                   CRITERE='ABSOLU',
                   MAILLE='M151',),
                _F(NUME_ORDRE=1,
                   GROUP_NO='C',
                   VALE_CALC_C=1.2826941631781+0.0E+00j,
                   VALE_REFE_C=(1.2777099999999999+0j),
                   REFERENCE='NON_DEFINI',
                   RESULTAT=DYNA,
                   NOM_CHAM='SIGM_ELNO',
                   NOM_CMP='SIXX',
                   CRITERE='RELATIF',
                   PRECISION=1.E-2,
                   MAILLE='M50',),
                _F(NUME_ORDRE=1,
                   GROUP_NO='C',
                   VALE_CALC_C=-0.61148992062948+0.0E+00j,
                   VALE_REFE_C=(-0.60921000000000003+0j),
                   REFERENCE='NON_DEFINI',
                   RESULTAT=DYNA,
                   NOM_CHAM='SIGM_ELNO',
                   NOM_CMP='SIYY',
                   CRITERE='RELATIF',
                   PRECISION=1.E-2,
                   MAILLE='M50',),
                _F(NUME_ORDRE=1,
                   GROUP_NO='C',
                   VALE_CALC_C=0.20136127276458+0.0E+00j,
                   VALE_REFE_C=(0.20055000000000001+0j),
                   REFERENCE='NON_DEFINI',
                   RESULTAT=DYNA,
                   NOM_CHAM='SIGM_ELNO',
                   NOM_CMP='SIZZ',
                   CRITERE='RELATIF',
                   PRECISION=1.E-2,
                   MAILLE='M50',),
                _F(NUME_ORDRE=1,
                   GROUP_NO='C',
                   VALE_CALC_C=0.94366604420665+0.0E+00j,
                   VALE_REFE_C=(0.94345999999999997+0j),
                   REFERENCE='NON_DEFINI',
                   RESULTAT=DYNA,
                   NOM_CHAM='SIGM_ELNO',
                   NOM_CMP='SIXY',
                   CRITERE='RELATIF',
                   PRECISION=1.E-2,
                   MAILLE='M50',),
                _F(NUME_ORDRE=1,
                   GROUP_NO='D',
                   VALE_CALC_C=0.56970940017787+0.0E+00j,
                   VALE_REFE_C=(0.56964000000000004+0j),
                   REFERENCE='NON_DEFINI',
                   RESULTAT=DYNA,
                   NOM_CHAM='SIGM_ELNO',
                   NOM_CMP='SIXX',
                   CRITERE='RELATIF',
                   PRECISION=1.E-2,
                   MAILLE='M246',),
                _F(NUME_ORDRE=1,
                   GROUP_NO='D',
                   VALE_CALC_C=0.097671983728853+0.0E+00j,
                   VALE_REFE_C=(0.097739999999999994+0j),
                   REFERENCE='NON_DEFINI',
                   RESULTAT=DYNA,
                   NOM_CHAM='SIGM_ELNO',
                   NOM_CMP='SIYY',
                   CRITERE='RELATIF',
                   PRECISION=1.E-2,
                   MAILLE='M246',),
                _F(NUME_ORDRE=1,
                   GROUP_NO='D',
                   VALE_CALC_C=0.20021441517202+0.0E+00j,
                   VALE_REFE_C=(0.20021+0j),
                   REFERENCE='NON_DEFINI',
                   RESULTAT=DYNA,
                   NOM_CHAM='SIGM_ELNO',
                   NOM_CMP='SIZZ',
                   CRITERE='RELATIF',
                   PRECISION=1.E-2,
                   MAILLE='M246',),
                _F(NUME_ORDRE=1,
                   GROUP_NO='D',
                   VALE_CALC_C=0.23699793331471+0.0E+00j,
                   VALE_REFE_C=(0.23594999999999999+0j),
                   REFERENCE='NON_DEFINI',
                   RESULTAT=DYNA,
                   NOM_CHAM='SIGM_ELNO',
                   NOM_CMP='SIXY',
                   CRITERE='RELATIF',
                   PRECISION=1.E-2,
                   MAILLE='M246',),
                _F(NUME_ORDRE=1,
                   GROUP_NO='E',
                   VALE_CALC_C=0.33591457361803+0.0E+00j,
                   VALE_REFE_C=(0.33424999999999999+0j),
                   REFERENCE='NON_DEFINI',
                   RESULTAT=DYNA,
                   NOM_CHAM='SIGM_ELNO',
                   NOM_CMP='SIXX',
                   CRITERE='RELATIF',
                   PRECISION=1.E-2,
                   MAILLE='M75',),
                _F(NUME_ORDRE=1,
                   GROUP_NO='E',
                   VALE_CALC_C=0.33536560179396+0.0E+00j,
                   VALE_REFE_C=(0.33424999999999999+0j),
                   REFERENCE='NON_DEFINI',
                   RESULTAT=DYNA,
                   NOM_CHAM='SIGM_ELNO',
                   NOM_CMP='SIYY',
                   CRITERE='RELATIF',
                   PRECISION=1.E-2,
                   MAILLE='M75',),
                _F(NUME_ORDRE=1,
                   GROUP_NO='E',
                   VALE_CALC_C=0.20138405262360+0.0E+00j,
                   VALE_REFE_C=(0.20055000000000001+0j),
                   REFERENCE='NON_DEFINI',
                   RESULTAT=DYNA,
                   NOM_CHAM='SIGM_ELNO',
                   NOM_CMP='SIZZ',
                   CRITERE='RELATIF',
                   PRECISION=1.E-2,
                   MAILLE='M75',),
                _F(NUME_ORDRE=1,
                   GROUP_NO='E',
                   VALE_CALC_C=1.3313028797088+0.0E+00j,
                   VALE_REFE_C=(1.3342499999999999+0j),
                   REFERENCE='NON_DEFINI',
                   RESULTAT=DYNA,
                   NOM_CHAM='SIGM_ELNO',
                   NOM_CMP='SIXY',
                   CRITERE='RELATIF',
                   PRECISION=1.E-2,
                   MAILLE='M75',),
                _F(NUME_ORDRE=1,
                   GROUP_NO='F',
                   VALE_CALC_C=0.33388744051242+0.0E+00j,
                   VALE_REFE_C=(0.33368999999999999+0j),
                   REFERENCE='NON_DEFINI',
                   RESULTAT=DYNA,
                   NOM_CHAM='SIGM_ELNO',
                   NOM_CMP='SIXX',
                   CRITERE='RELATIF',
                   PRECISION=1.E-2,
                   MAILLE='M223',),
                _F(NUME_ORDRE=1,
                   GROUP_NO='F',
                   VALE_CALC_C=0.33384320490339+0.0E+00j,
                   VALE_REFE_C=(0.33368999999999999+0j),
                   REFERENCE='NON_DEFINI',
                   RESULTAT=DYNA,
                   NOM_CHAM='SIGM_ELNO',
                   NOM_CMP='SIYY',
                   CRITERE='RELATIF',
                   PRECISION=1.E-2,
                   MAILLE='M223',),
                _F(NUME_ORDRE=1,
                   GROUP_NO='F',
                   VALE_CALC_C=0.20031919362474+0.0E+00j,
                   VALE_REFE_C=(0.20021+0j),
                   REFERENCE='NON_DEFINI',
                   RESULTAT=DYNA,
                   NOM_CHAM='SIGM_ELNO',
                   NOM_CMP='SIZZ',
                   CRITERE='RELATIF',
                   PRECISION=1.E-2,
                   MAILLE='M223',),
                _F(NUME_ORDRE=1,
                   GROUP_NO='F',
                   VALE_CALC_C=0.33389332487491+0.0E+00j,
                   VALE_REFE_C=(0.33368999999999999+0j),
                   REFERENCE='NON_DEFINI',
                   RESULTAT=DYNA,
                   NOM_CHAM='SIGM_ELNO',
                   NOM_CMP='SIXY',
                   CRITERE='RELATIF',
                   PRECISION=1.E-2,
                   MAILLE='M223',),
                ),
          )

#--------------------------------------------------------------------

FIN();
#
