# MODIF  DATE 10/10/2012   AUTEUR COURTOIS M.COURTOIS 
# TITRE REPONSE HARMONIQUE : POUTRE BI-APPUYEE
# shlv301a.para = tps_job 60 mem_job 512Mo ncpus 1 liste_test S
#            CONFIGURATION MANAGEMENT OF EDF VERSION
# ======================================================================
# COPYRIGHT (C) 1991 - 2012  EDF R&D                  WWW.CODE-ASTER.ORG
# THIS PROGRAM IS FREE SOFTWARE; YOU CAN REDISTRIBUTE IT AND/OR MODIFY
# IT UNDER THE TERMS OF THE GNU GENERAL PUBLIC LICENSE AS PUBLISHED BY
# THE FREE SOFTWARE FOUNDATION; EITHER VERSION 2 OF THE LICENSE, OR
# (AT YOUR OPTION) ANY LATER VERSION.
#
# THIS PROGRAM IS DISTRIBUTED IN THE HOPE THAT IT WILL BE USEFUL, BUT
# WITHOUT ANY WARRANTY; WITHOUT EVEN THE IMPLIED WARRANTY OF
# MERCHANTABILITY OR FITNESS FOR A PARTICULAR PURPOSE. SEE THE GNU
# GENERAL PUBLIC LICENSE FOR MORE DETAILS.
#
# YOU SHOULD HAVE RECEIVED A COPY OF THE GNU GENERAL PUBLIC LICENSE
# ALONG WITH THIS PROGRAM; IF NOT, WRITE TO EDF R&D CODE_ASTER,
#    1 AVENUE DU GENERAL DE GAULLE, 92141 CLAMART CEDEX, FRANCE.
# ======================================================================
# VALIDATION INDEPENDANTE PAR SAMTECH  (H.DRION)
# CAS_TEST__: SHLV301A
#
#12345678901234567890123456789012345678901234567890123456789012345678901
#
# CE FICHIER DE COMMANDE CONTIENT LES INSTRUCTIONS POUR CALCULER LES
# FREQUENCES  PROPRES D'UNE POUTRE BI-APPUYEE.
# LES VALEURS DE REFERENCE SONT CALCULEES SUR UNE POUTRE DE
# TIMOSHENKO DEFORMABLE A L'EFFORT TRANCHANT ET TENANT COMPTE DE
# L'INERTIE ROTATOIRE DES SECTIONS.
#
#################################################################
#
# LA POUTRE EST DIVISEE EN DEUX SUPER-ELEMENTS DE TYPE MAC_NEAL
#
#################################################################
#
DEBUT(CODE=_F(NOM='SHLV301A',NIV_PUB_WEB='INTERNET'),DEBUG=_F(SDVERI='OUI'))

#
MAT=DEFI_MATERIAU(  ELAS=_F( RHO = 7.8E03,  NU = 0.3,  E = 2.1E11,
                            AMOR_ALPHA = 1.6E-5, AMOR_BETA = 16.))

#
MAYA=LIRE_MAILLAGE(FORMAT='MED', UNITE=20)

MAYA=DEFI_GROUP(reuse=MAYA,  MAILLAGE=MAYA,CREA_GROUP_NO=(
          _F( NOM = 'CONDZG', INTERSEC = ('COND3', 'GAUCHE',)),
          _F( NOM = 'CONDZD', INTERSEC = ('COND3', 'DROITE',)))
                  )

#
CHMAT=AFFE_MATERIAU(  MAILLAGE=MAYA,
                              AFFE=_F( TOUT = 'OUI',
                                    MATER = MAT))

#
POVOL=AFFE_MODELE(  MAILLAGE=MAYA,
                              AFFE=_F( TOUT = 'OUI',
                                  MODELISATION = '3D',
                                  PHENOMENE = 'MECANIQUE'))

#
PRESSION=AFFE_CHAR_MECA(
                  MODELE=POVOL,
                 PRES_REP=_F(  GROUP_MA = 'PRESSION',
                            PRES = 50.E4))

#
#################################################################
#
#  MODELISATION DU SUPER ELEMENT  DE GAUCHE
#
#################################################################
#
FIXAT1=AFFE_CHAR_MECA(
                  MODELE=POVOL,DDL_IMPO=(
                 _F(  GROUP_NO = 'COND1',  DY = 0.),
                 _F(  GROUP_NO = 'CONDZG',  DZ = 0.),
                 _F(  NOEUD = 'N26',  DX = 0.),

#
#  INTERFACE DE MAC NEAL --> MODELE INITIAL ISOSTATIQUE
#
                 _F(  GROUP_NO = 'DROITE', DX = 0.)))

#
PLAN_F1=AFFE_CHAR_MECA(   MODELE=POVOL,LIAISON_DDL=(

     _F( NOEUD = ('N1','N21','N9',), DDL = ('DX','DX','DX',),
     COEF_MULT = ( 1.00,   .00000, -1.00000,), COEF_IMPO = 0.),
     _F( NOEUD = ('N2','N21','N9',), DDL = ('DX','DX','DX',),
     COEF_MULT = ( 1.00, -2.00000,  1.00000,), COEF_IMPO = 0.),
     _F( NOEUD = ('N3','N21','N9',), DDL = ('DX','DX','DX',),
     COEF_MULT = ( 1.00, -2.00000,  1.00000,), COEF_IMPO = 0.),
     _F( NOEUD = ('N4','N21','N9',), DDL = ('DX','DX','DX',),
     COEF_MULT = ( 1.00,   .00000, -1.00000,), COEF_IMPO = 0.),
     _F( NOEUD = ('N5','N21','N9',), DDL = ('DX','DX','DX',),
     COEF_MULT = ( 1.00, -2.00000,  1.00000,), COEF_IMPO = 0.),
     _F( NOEUD = ('N6','N21','N9',), DDL = ('DX','DX','DX',),
     COEF_MULT = ( 1.00, -2.00000,  1.00000,), COEF_IMPO = 0.),
     _F( NOEUD = ('N7','N21','N9',), DDL = ('DX','DX','DX',),
     COEF_MULT = ( 1.00, -2.00000,  1.00000,), COEF_IMPO = 0.),
     _F( NOEUD = ('N8','N21','N9',), DDL = ('DX','DX','DX',),
     COEF_MULT = ( 1.00,   .00000, -1.00000,), COEF_IMPO = 0.),
     _F( NOEUD = ('N10','N21','N9',), DDL = ('DX','DX','DX',),
     COEF_MULT = ( 1.00,   .00000, -1.00000,), COEF_IMPO = 0.),
     _F( NOEUD = ('N11','N21','N9',), DDL = ('DX','DX','DX',),
     COEF_MULT = ( 1.00, -1.75000,   .75000,), COEF_IMPO = 0.),
     _F( NOEUD = ('N12','N21','N9',), DDL = ('DX','DX','DX',),
     COEF_MULT = ( 1.00, -1.50000,   .50000,), COEF_IMPO = 0.),
     _F( NOEUD = ('N13','N21','N9',), DDL = ('DX','DX','DX',),
     COEF_MULT = ( 1.00, -1.25000,   .25000,), COEF_IMPO = 0.),
     _F( NOEUD = ('N15','N21','N9',), DDL = ('DX','DX','DX',),
     COEF_MULT = ( 1.00,  -.75000,  -.25000,), COEF_IMPO = 0.),
     _F( NOEUD = ('N16','N21','N9',), DDL = ('DX','DX','DX',),
     COEF_MULT = ( 1.00,  -.50000,  -.50000,), COEF_IMPO = 0.),
     _F( NOEUD = ('N17','N21','N9',), DDL = ('DX','DX','DX',),
     COEF_MULT = ( 1.00,  -.25000,  -.75000,), COEF_IMPO = 0.),
     _F( NOEUD = ('N18','N21','N9',), DDL = ('DX','DX','DX',),
     COEF_MULT = ( 1.00,  -.25000,  -.75000,), COEF_IMPO = 0.),
     _F( NOEUD = ('N19','N21','N9',), DDL = ('DX','DX','DX',),
     COEF_MULT = ( 1.00,  -.50000,  -.50000,), COEF_IMPO = 0.),
     _F( NOEUD = ('N20','N21','N9',), DDL = ('DX','DX','DX',),
     COEF_MULT = ( 1.00,  -.75000,  -.25000,), COEF_IMPO = 0.),
     _F( NOEUD = ('N22','N21','N9',), DDL = ('DX','DX','DX',),
     COEF_MULT = ( 1.00, -1.25000,   .25000,), COEF_IMPO = 0.),
     _F( NOEUD = ('N23','N21','N9',), DDL = ('DX','DX','DX',),
     COEF_MULT = ( 1.00, -1.50000,   .50000,), COEF_IMPO = 0.),
# ... 21 like lines cut
     COEF_MULT = ( 1.00, -1.75000,   .75000,), COEF_IMPO = 0.))
       )

#
K_ELEM1=CALC_MATR_ELEM(      MODELE=POVOL,
                            CHAM_MATER=CHMAT,
                               OPTION='RIGI_MECA',
                                CHARGE=( FIXAT1, )
                             )

#
M_ELEM1=CALC_MATR_ELEM(      MODELE=POVOL,
                            CHAM_MATER=CHMAT,
                               OPTION='MASS_MECA',
                                CHARGE=( FIXAT1, )
                           )

#
A_ELEM1=CALC_MATR_ELEM(      MODELE=POVOL,
                            CHAM_MATER=CHMAT,
                                OPTION='AMOR_MECA',
                             RIGI_MECA=K_ELEM1,
                             MASS_MECA=M_ELEM1,
                                CHARGE=( FIXAT1, )
                           )

#
V_ELEM1=CALC_VECT_ELEM(    OPTION='CHAR_MECA',
                              CHARGE=PRESSION )

#
NUM1=NUME_DDL(  MATR_RIGI=K_ELEM1)

#
K_ASSE1=ASSE_MATRICE(  MATR_ELEM=K_ELEM1,
                           NUME_DDL=NUM1)

#
M_ASSE1=ASSE_MATRICE(  MATR_ELEM=M_ELEM1,
                           NUME_DDL=NUM1)

#
A_ASSE1=ASSE_MATRICE(  MATR_ELEM=A_ELEM1,
                           NUME_DDL=NUM1)

#
V_ASSE1=ASSE_VECTEUR(   VECT_ELEM=V_ELEM1,
                            NUME_DDL=NUM1)

#
MODES1=MODE_ITER_SIMULT(     MATR_RIGI=K_ASSE1,
                                 MATR_MASS=M_ASSE1,
                             CALC_FREQ=_F( NMAX_FREQ = 20))


#
INTERF1=DEFI_INTERF_DYNA(  NUME_DDL=NUM1,
                              INTERFACE=_F( NOM = 'DROITE',
                             TYPE = 'MNEAL',
                             GROUP_NO = 'DROITE'),
                             INFO=2)

#
BAMO1=DEFI_BASE_MODALE(  CLASSIQUE=_F( INTERF_DYNA = INTERF1,
                                         MODE_MECA = MODES1,
                                         NMAX_MODE = 20),
                             INFO=2)

#
MACRO1=MACR_ELEM_DYNA(  BASE_MODALE=BAMO1,
                              MATR_AMOR=A_ASSE1 )

#
#
#################################################################
#
#  MODELISATION DU SUPER ELEMENT DE DROITE
#
#################################################################
#
FIXAT2=AFFE_CHAR_MECA(    MODELE=POVOL,DDL_IMPO=(
                 _F(  GROUP_NO = 'COND2',  DY = 0.),
                 _F(  GROUP_NO = 'CONDZD',  DZ = 0.),
                 _F(  NOEUD = 'N766',  DX = 0.),
#
#  INTERFACE DE MAC NEAL --> MODELE INITIAL ISOSTATIQUE
#
                 _F(  GROUP_NO = 'GAUCHE',  DX = 0.)))

#
PLAN_F2=AFFE_CHAR_MECA(   MODELE=POVOL,LIAISON_DDL=(

     _F( NOEUD = ('N741','N761','N749',), DDL = ('DX','DX','DX',),
     COEF_MULT = ( 1.00,   .00000, -1.00000,), COEF_IMPO = 0.),
     _F( NOEUD = ('N742','N761','N749',), DDL = ('DX','DX','DX',),
     COEF_MULT = ( 1.00, -2.00000,  1.00000,), COEF_IMPO = 0.),
     _F( NOEUD = ('N743','N761','N749',), DDL = ('DX','DX','DX',),
     COEF_MULT = ( 1.00, -2.00000,  1.00000,), COEF_IMPO = 0.),
     _F( NOEUD = ('N744','N761','N749',), DDL = ('DX','DX','DX',),
     COEF_MULT = ( 1.00,   .00000, -1.00000,), COEF_IMPO = 0.),
     _F( NOEUD = ('N745','N761','N749',), DDL = ('DX','DX','DX',),
     COEF_MULT = ( 1.00, -2.00000,  1.00000,), COEF_IMPO = 0.),
     _F( NOEUD = ('N746','N761','N749',), DDL = ('DX','DX','DX',),
     COEF_MULT = ( 1.00, -2.00000,  1.00000,), COEF_IMPO = 0.),
     _F( NOEUD = ('N747','N761','N749',), DDL = ('DX','DX','DX',),
     COEF_MULT = ( 1.00, -2.00000,  1.00000,), COEF_IMPO = 0.),
     _F( NOEUD = ('N748','N761','N749',), DDL = ('DX','DX','DX',),
     COEF_MULT = ( 1.00,   .00000, -1.00000,), COEF_IMPO = 0.),
     _F( NOEUD = ('N750','N761','N749',), DDL = ('DX','DX','DX',),
     COEF_MULT = ( 1.00,   .00000, -1.00000,), COEF_IMPO = 0.),
     _F( NOEUD = ('N751','N761','N749',), DDL = ('DX','DX','DX',),
     COEF_MULT = ( 1.00, -1.75000,   .75000,), COEF_IMPO = 0.),
     _F( NOEUD = ('N752','N761','N749',), DDL = ('DX','DX','DX',),
     COEF_MULT = ( 1.00, -1.50000,   .50000,), COEF_IMPO = 0.),
     _F( NOEUD = ('N753','N761','N749',), DDL = ('DX','DX','DX',),
     COEF_MULT = ( 1.00, -1.25000,   .25000,), COEF_IMPO = 0.),
     _F( NOEUD = ('N755','N761','N749',), DDL = ('DX','DX','DX',),
     COEF_MULT = ( 1.00,  -.75000,  -.25000,), COEF_IMPO = 0.),
     _F( NOEUD = ('N756','N761','N749',), DDL = ('DX','DX','DX',),
     COEF_MULT = ( 1.00,  -.50000,  -.50000,), COEF_IMPO = 0.),
     _F( NOEUD = ('N757','N761','N749',), DDL = ('DX','DX','DX',),
     COEF_MULT = ( 1.00,  -.25000,  -.75000,), COEF_IMPO = 0.),
     _F( NOEUD = ('N758','N761','N749',), DDL = ('DX','DX','DX',),
     COEF_MULT = ( 1.00,  -.25000,  -.75000,), COEF_IMPO = 0.),
     _F( NOEUD = ('N759','N761','N749',), DDL = ('DX','DX','DX',),
     COEF_MULT = ( 1.00,  -.50000,  -.50000,), COEF_IMPO = 0.),
     _F( NOEUD = ('N760','N761','N749',), DDL = ('DX','DX','DX',),
     COEF_MULT = ( 1.00,  -.75000,  -.25000,), COEF_IMPO = 0.),
     _F( NOEUD = ('N762','N761','N749',), DDL = ('DX','DX','DX',),
     COEF_MULT = ( 1.00, -1.25000,   .25000,), COEF_IMPO = 0.),
     _F( NOEUD = ('N763','N761','N749',), DDL = ('DX','DX','DX',),
     COEF_MULT = ( 1.00, -1.50000,   .50000,), COEF_IMPO = 0.),
# ... 21 like lines cut
     COEF_MULT = ( 1.00, -1.75000,   .75000,), COEF_IMPO = 0.))
       )

#
K_ELEM2=CALC_MATR_ELEM(      MODELE=POVOL,
                            CHAM_MATER=CHMAT,
                               OPTION='RIGI_MECA',
                                CHARGE=( FIXAT2, )
                             )

#
M_ELEM2=CALC_MATR_ELEM(      MODELE=POVOL,
                            CHAM_MATER=CHMAT,
                               OPTION='MASS_MECA',
                                CHARGE=( FIXAT2, )
                             )

#
A_ELEM2=CALC_MATR_ELEM(      MODELE=POVOL,
                            CHAM_MATER=CHMAT,
                                OPTION='AMOR_MECA',
                             RIGI_MECA=K_ELEM2,
                             MASS_MECA=M_ELEM2,
                                CHARGE=( FIXAT2, )
                             )

#
V_ELEM2=CALC_VECT_ELEM(    OPTION='CHAR_MECA',
                              CHARGE=PRESSION )

#
NUM2=NUME_DDL(  MATR_RIGI=K_ELEM2)

#
K_ASSE2=ASSE_MATRICE(  MATR_ELEM=K_ELEM2,
                           NUME_DDL=NUM2)

#
M_ASSE2=ASSE_MATRICE(  MATR_ELEM=M_ELEM2,
                           NUME_DDL=NUM2)

#
A_ASSE2=ASSE_MATRICE(  MATR_ELEM=A_ELEM2,
                           NUME_DDL=NUM2)

#
V_ASSE2=ASSE_VECTEUR(   VECT_ELEM=V_ELEM2,
                            NUME_DDL=NUM2 )

#
MODES2=MODE_ITER_SIMULT(     MATR_RIGI=K_ASSE2,
                                 MATR_MASS=M_ASSE2,
                             CALC_FREQ=_F( NMAX_FREQ = 20))


#
INTERF2=DEFI_INTERF_DYNA(   NUME_DDL=NUM2,
                              INTERFACE=_F( NOM = 'GAUCHE',
                                         TYPE = 'MNEAL',
                                         GROUP_NO = 'GAUCHE'),
                                   INFO=2)

#
BAMO2=DEFI_BASE_MODALE(  CLASSIQUE=_F( INTERF_DYNA = INTERF2,
                                         MODE_MECA = MODES2,
                                         NMAX_MODE = 20),
                                   INFO=2)

#
MACRO2=MACR_ELEM_DYNA(  BASE_MODALE=BAMO2,
                              MATR_AMOR=A_ASSE2 )

#
#################################################################
#
#       CALCUL SUR LE MODELE GENERALISE
#
#################################################################
#
#   CREATION DU MODELE GENERALISE
#
MODEGE=DEFI_MODELE_GENE( SOUS_STRUC=( _F( NOM = 'COTE1',
                                          MACR_ELEM_DYNA = MACRO1,
                                          TRANS = (0., 0., 0.,),
                                          ANGL_NAUT = (0., 0., 0.,),),
                              _F( NOM = 'COTE2',
                                          TRANS = (1., 0., 0.,),
                                          ANGL_NAUT = (0., 0., 0.,),
                                          MACR_ELEM_DYNA = MACRO2)),
                                 LIAISON=_F( SOUS_STRUC_1 = 'COTE1',
                                          SOUS_STRUC_2 = 'COTE2',
                                          INTERFACE_1 = 'DROITE',
                                          INTERFACE_2 = 'GAUCHE'))

#
NUMEGE=NUME_DDL_GENE(  MODELE_GENE=MODEGE)

#
RIGGEN=ASSE_MATR_GENE(  NUME_DDL_GENE=NUMEGE,
                                   OPTION='RIGI_GENE' )

#
MASGEN=ASSE_MATR_GENE(  NUME_DDL_GENE=NUMEGE,
                                   OPTION='MASS_GENE' )

#
AMOGEN=ASSE_MATR_GENE(    NUME_DDL_GENE=NUMEGE,
                                     OPTION='AMOR_GENE' )

#
VECTGEN=ASSE_VECT_GENE(    NUME_DDL_GENE=NUMEGE,CHAR_SOUS_STRUC=(
                            _F(  SOUS_STRUC = 'COTE1',
                                              VECT_ASSE = V_ASSE1),
                            _F(  SOUS_STRUC = 'COTE2',
                                              VECT_ASSE = V_ASSE2)))

#
#      CALCULS HARMONIQUES :
#
F=1000.

#
DYNGEN=DYNA_VIBRA(TYPE_CALCUL='HARM',BASE_CALCUL='GENE',
                            MATR_MASS=MASGEN,
                            MATR_RIGI=RIGGEN,
                            MATR_AMOR=AMOGEN,
                            SOLVEUR=_F( METHODE='LDLT', ),
                            FREQ=F,
                           TOUT_CHAM='OUI',

                            EXCIT=_F( VECT_ASSE_GENE = VECTGEN,
                                   COEF_MULT = 1.))

#
SQUEL=DEFI_SQUELETTE(  MODELE_GENE=MODEGE,SOUS_STRUC=(
                            _F( NOM = 'COTE1',
                                        TOUT = 'OUI'),
                            _F( NOM = 'COTE2',
                                        TOUT = 'OUI')))

#
DYNHARM=REST_SOUS_STRUC(  RESU_GENE=DYNGEN,
                           SQUELETTE=SQUEL)

#
DYNHAR1=REST_SOUS_STRUC(  RESU_GENE=DYNGEN,
                          TOUT_CHAM='OUI',
                          SOUS_STRUC='COTE1')

#
DYNHAR2=REST_SOUS_STRUC(  RESU_GENE=DYNGEN,
                          TOUT_CHAM='OUI',
                          SOUS_STRUC='COTE2')

#
TEST_RESU(RESU=_F(VALE_CALC_C= 1.95633053E-05+ 7.64221804E-06j,
                  VALE_REFE_C=(1.9599400000000001e-05+8.4917899999999999e-06j),
                  REFERENCE='NON_DEFINI',
                  RESULTAT=DYNHAR1,
                  NOM_CHAM='DEPL',
                  NOEUD='N396',
                  NOM_CMP='DY',
                  FREQ=1000.0,
                  CRITERE='RELATIF',
                  PRECISION=0.050000000000000003,),
          )

#
TEST_RESU(RESU=_F(VALE_CALC_C=-6.84180178E-06+-1.08062629E-05j,
                  VALE_REFE_C=(-6.9993799999999997e-06-1.1450100000000001e-05j),
                  REFERENCE='NON_DEFINI',
                  RESULTAT=DYNHAR1,
                  NOM_CHAM='DEPL',
                  NOEUD='N766',
                  NOM_CMP='DY',
                  FREQ=1000.0,
                  CRITERE='RELATIF',
                  PRECISION=0.050000000000000003,),
          )

#
TEST_RESU(RESU=_F(VALE_CALC_C=-6.84180178E-06+-1.08062629E-05j,
                  VALE_REFE_C=(-6.9993799999999997e-06-1.1450100000000001e-05j),
                  REFERENCE='NON_DEFINI',
                  RESULTAT=DYNHAR2,
                  NOM_CHAM='DEPL',
                  NOEUD='N26',
                  NOM_CMP='DY',
                  FREQ=1000.0,
                  CRITERE='RELATIF',
                  PRECISION=0.050000000000000003,),
          )

#
TEST_RESU(RESU=_F(VALE_CALC_C= 1.95633054E-05+ 7.64221814E-06j,
                  VALE_REFE_C=(1.9599400000000001e-05+8.4917899999999999e-06j),
                  REFERENCE='NON_DEFINI',
                  RESULTAT=DYNHAR2,
                  NOM_CHAM='DEPL',
                  NOEUD='N396',
                  NOM_CMP='DY',
                  FREQ=1000.0,
                  CRITERE='RELATIF',
                  PRECISION=0.050000000000000003,),
          )

#
FIN()
#






