# TITRE REPONSE HARMONIQUE CYLINDRE EN D.P. (QUAD9)
# ======================================================================
# COPYRIGHT (C) 1991 - 2015  EDF R&D                  WWW.CODE-ASTER.ORG
# THIS PROGRAM IS FREE SOFTWARE; YOU CAN REDISTRIBUTE IT AND/OR MODIFY
# IT UNDER THE TERMS OF THE GNU GENERAL PUBLIC LICENSE AS PUBLISHED BY
# THE FREE SOFTWARE FOUNDATION; EITHER VERSION 2 OF THE LICENSE, OR
# (AT YOUR OPTION) ANY LATER VERSION.
#
# THIS PROGRAM IS DISTRIBUTED IN THE HOPE THAT IT WILL BE USEFUL, BUT
# WITHOUT ANY WARRANTY; WITHOUT EVEN THE IMPLIED WARRANTY OF
# MERCHANTABILITY OR FITNESS FOR A PARTICULAR PURPOSE. SEE THE GNU
# GENERAL PUBLIC LICENSE FOR MORE DETAILS.
#
# YOU SHOULD HAVE RECEIVED A COPY OF THE GNU GENERAL PUBLIC LICENSE
# ALONG WITH THIS PROGRAM; IF NOT, WRITE TO EDF R&D CODE_ASTER,
#    1 AVENUE DU GENERAL DE GAULLE, 92141 CLAMART CEDEX, FRANCE.
# ======================================================================
#CAS_TEST__: SHLV100G
# ----------------------------------------------------------------------
# SHLV100 G               COMMANDES                            31/05/91
# CYLINDRE SOUS PRESSION INTERNE HARMONIQUE AVEC EXTREMITES BLOQUEES
# SOLUTION ANALYTIQUE EN DEFORMATIONS PLANES
#
#         ..                      JWT                JWT
# K X + M X   = P    AVEC  P = P E        ET  X = X E
#       2
# (K - W M) X = P    AVEC  W = 0.2 RD/S   ET  P = 1 MPA
#
# MODELISATION : ELEMENTS MECANIQUE D_PLAN (QUAD9)
# MAILLAGE     : ALIBABA > ASTER
#
# ----------------------------------------------------------------------
# GROUPES DE NOEUDS ET MAILLES:
# A=GRNO1  B=GRNO2  C=GRNO3  D=GRNO4  E=GRNO5  F=GRNO6
# NOEUDS(AB)=GRNM11          SEG(EF)=GRMA12    SEG(AE)=GRMA13
# ----------------------------------------------------------------------
#

DEBUT(CODE=_F(NIV_PUB_WEB='INTERNET'),DEBUG=_F(SDVERI='OUI'))

M=LIRE_MAILLAGE(FORMAT='MED',   )

MO=AFFE_MODELE(        MAILLAGE=M,
                                AFFE=_F(  TOUT = 'OUI',
                                       PHENOMENE = 'MECANIQUE',
                                       MODELISATION = 'D_PLAN'))

MA=DEFI_MATERIAU(          ELAS=_F(  E = 26.,
                                       NU = 0.3,
                                       RHO = 35.,
                                       ALPHA = 0.))

CM=AFFE_MATERIAU(      MAILLAGE=M,
                                AFFE=_F(  TOUT = 'OUI',
                                       MATER = MA))

CH=AFFE_CHAR_MECA(       MODELE=MO,
                           FACE_IMPO=_F(  GROUP_MA = 'GRMA12', DNOR = 0.),
                            DDL_IMPO=_F(  GROUP_NO = 'GRNM11', DY = 0.),
                            PRES_REP=_F(  GROUP_MA = 'GRMA13', PRES = 1.))

KE=CALC_MATR_ELEM(       MODELE=MO,
                              CHARGE=CH,
                          CHAM_MATER=CM,
                              OPTION='RIGI_MECA'                      )

ME=CALC_MATR_ELEM(       MODELE=MO,
                              CHARGE=CH,
                          CHAM_MATER=CM,
                              OPTION='MASS_MECA'                      )

VE=CALC_VECT_ELEM(       CHARGE=CH,
                          CHAM_MATER=CM,
                              OPTION='CHAR_MECA'                      )

NU=NUME_DDL(          MATR_RIGI=KE                               )

KAS=ASSE_MATRICE(      MATR_ELEM=KE,
                            NUME_DDL=NU                               )

MAS=ASSE_MATRICE(      MATR_ELEM=ME,
                             NUME_DDL=NU                  )

VAS=ASSE_VECTEUR(      VECT_ELEM=VE,
                            NUME_DDL=NU                               )

DYNA=DYNA_VIBRA(TYPE_CALCUL='HARM',BASE_CALCUL='PHYS',
                    MODELE=MO,
                    CHAM_MATER=CM,
                    MATR_MASS=MAS,
                    MATR_RIGI=KAS,
                    FREQ=0.0318309886184,
                    EXCIT=_F(VECT_ASSE=VAS,
                             COEF_MULT=1,),);

DYNA=CALC_CHAMP(reuse=DYNA,RESULTAT=DYNA,NUME_ORDRE=1,CONTRAINTE=('SIGM_ELNO'))


TEST_RESU(RESU=(_F(NUME_ORDRE=1,
                   GROUP_NO='A',
                   VALE_CALC_C=7.332891818729E-03+0.0E+00j,
                   VALE_REFE_C=(0.0073397999999999996+0j),
                   REFERENCE='NON_DEFINI',
                   RESULTAT=DYNA,
                   NOM_CHAM='DEPL',
                   NOM_CMP='DX',
                   CRITERE='RELATIF',
                   PRECISION=1.E-2,),
                _F(NUME_ORDRE=1,
                   GROUP_NO='A',
                   VALE_CALC_C=3.8963515573698E-20+0.0E+00j,
                   RESULTAT=DYNA,
                   NOM_CHAM='DEPL',
                   NOM_CMP='DY',
                   CRITERE='ABSOLU',
                   ),
                _F(NUME_ORDRE=1,
                   GROUP_NO='B',
                   VALE_CALC_C=4.6681742894213E-03+0.0E+00j,
                   VALE_REFE_C=(0.0046715999999999997+0j),
                   REFERENCE='NON_DEFINI',
                   RESULTAT=DYNA,
                   NOM_CHAM='DEPL',
                   NOM_CMP='DX',
                   CRITERE='RELATIF',
                   PRECISION=1.E-2,),
                _F(NUME_ORDRE=1,
                   GROUP_NO='B',
                   VALE_CALC_C=1.0164395367052E-20+0.0E+00j,
                   VALE_REFE_C=0j,
                   REFERENCE='NON_DEFINI',
                   RESULTAT=DYNA,
                   NOM_CHAM='DEPL',
                   NOM_CMP='DY',
                   CRITERE='ABSOLU',
                   PRECISION=1.E-2,),
                _F(NUME_ORDRE=1,
                   GROUP_NO='C',
                   VALE_CALC_C=6.7747092108771E-03+0.0E+00j,
                   VALE_REFE_C=(0.00678109+0j),
                   REFERENCE='NON_DEFINI',
                   RESULTAT=DYNA,
                   NOM_CHAM='DEPL',
                   NOM_CMP='DX',
                   CRITERE='RELATIF',
                   PRECISION=1.E-2,),
                _F(NUME_ORDRE=1,
                   GROUP_NO='C',
                   VALE_CALC_C=2.80616839791E-03+0.0E+00j,
                   VALE_REFE_C=(0.0028088200000000001+0j),
                   REFERENCE='NON_DEFINI',
                   RESULTAT=DYNA,
                   NOM_CHAM='DEPL',
                   NOM_CMP='DY',
                   CRITERE='RELATIF',
                   PRECISION=1.E-2,),
                _F(NUME_ORDRE=1,
                   GROUP_NO='D',
                   VALE_CALC_C=4.3128313775018E-03+0.0E+00j,
                   VALE_REFE_C=(0.0043252300000000002+0j),
                   REFERENCE='NON_DEFINI',
                   RESULTAT=DYNA,
                   NOM_CHAM='DEPL',
                   NOM_CMP='DX',
                   CRITERE='RELATIF',
                   PRECISION=1.E-2,),
                _F(NUME_ORDRE=1,
                   GROUP_NO='D',
                   VALE_CALC_C=1.786432094337E-03+0.0E+00j,
                   VALE_REFE_C=(0.0017915699999999999+0j),
                   REFERENCE='NON_DEFINI',
                   RESULTAT=DYNA,
                   NOM_CHAM='DEPL',
                   NOM_CMP='DY',
                   CRITERE='RELATIF',
                   PRECISION=1.E-2,),
                _F(NUME_ORDRE=1,
                   GROUP_NO='E',
                   VALE_CALC_C=5.185138471527E-03+0.0E+00j,
                   VALE_REFE_C=(0.00519002+0j),
                   REFERENCE='NON_DEFINI',
                   RESULTAT=DYNA,
                   NOM_CHAM='DEPL',
                   NOM_CMP='DX',
                   CRITERE='RELATIF',
                   PRECISION=1.E-2,),
                _F(NUME_ORDRE=1,
                   GROUP_NO='E',
                   VALE_CALC_C=5.185138471527E-03+0.0E+00j,
                   VALE_REFE_C=(0.00519002+0j),
                   REFERENCE='NON_DEFINI',
                   RESULTAT=DYNA,
                   NOM_CHAM='DEPL',
                   NOM_CMP='DY',
                   CRITERE='RELATIF',
                   PRECISION=1.E-2,),
                _F(NUME_ORDRE=1,
                   GROUP_NO='F',
                   VALE_CALC_C=3.3008999169378E-03+0.0E+00j,
                   VALE_REFE_C=(0.0033103899999999999+0j),
                   REFERENCE='NON_DEFINI',
                   RESULTAT=DYNA,
                   NOM_CHAM='DEPL',
                   NOM_CMP='DX',
                   CRITERE='RELATIF',
                   PRECISION=1.E-2,),
                _F(NUME_ORDRE=1,
                   GROUP_NO='F',
                   VALE_CALC_C=3.3008999169378E-03+0.0E+00j,
                   VALE_REFE_C=(0.0033103899999999999+0j),
                   REFERENCE='NON_DEFINI',
                   RESULTAT=DYNA,
                   NOM_CHAM='DEPL',
                   NOM_CMP='DY',
                   CRITERE='RELATIF',
                   PRECISION=1.E-2,),
                _F(NUME_ORDRE=1,
                   GROUP_NO='A',
                   VALE_CALC_C=-0.99566168447563+0.0E+00j,
                   VALE_REFE_C=(-1+0j),
                   REFERENCE='NON_DEFINI',
                   RESULTAT=DYNA,
                   NOM_CHAM='SIGM_ELNO',
                   NOM_CMP='SIXX',
                   CRITERE='RELATIF',
                   PRECISION=1.E-2,
                   MAILLE='M1',),
                _F(NUME_ORDRE=1,
                   GROUP_NO='A',
                   VALE_CALC_C=1.6669409913723+0.0E+00j,
                   VALE_REFE_C=(1.6685000000000001+0j),
                   REFERENCE='NON_DEFINI',
                   RESULTAT=DYNA,
                   NOM_CHAM='SIGM_ELNO',
                   NOM_CMP='SIYY',
                   CRITERE='RELATIF',
                   PRECISION=1.E-2,
                   MAILLE='M1',),
                _F(NUME_ORDRE=1,
                   GROUP_NO='A',
                   VALE_CALC_C=0.20138379206899+0.0E+00j,
                   VALE_REFE_C=(0.20055000000000001+0j),
                   REFERENCE='NON_DEFINI',
                   RESULTAT=DYNA,
                   NOM_CHAM='SIGM_ELNO',
                   NOM_CMP='SIZZ',
                   CRITERE='RELATIF',
                   PRECISION=1.E-2,
                   MAILLE='M1',),
                _F(NUME_ORDRE=1,
                   GROUP_NO='A',
                   VALE_CALC_C=-2.7736016812854E-04+0.0E+00j,
                   VALE_REFE_C=0j,
                   REFERENCE='NON_DEFINI',
                   RESULTAT=DYNA,
                   NOM_CHAM='SIGM_ELNO',
                   NOM_CMP='SIXY',
                   CRITERE='ABSOLU',
                   PRECISION=1.E-2,
                   MAILLE='M1',),
                _F(NUME_ORDRE=1,
                   GROUP_NO='B',
                   VALE_CALC_C=-3.4629789256238E-05+0.0E+00j,
                   VALE_REFE_C=0j,
                   REFERENCE='NON_DEFINI',
                   RESULTAT=DYNA,
                   NOM_CHAM='SIGM_ELNO',
                   NOM_CMP='SIXX',
                   CRITERE='ABSOLU',
                   PRECISION=1.E-2,
                   MAILLE='M82',),
                _F(NUME_ORDRE=1,
                   GROUP_NO='B',
                   VALE_CALC_C=0.66774287362346+0.0E+00j,
                   VALE_REFE_C=(0.66737999999999997+0j),
                   REFERENCE='NON_DEFINI',
                   RESULTAT=DYNA,
                   NOM_CHAM='SIGM_ELNO',
                   NOM_CMP='SIYY',
                   CRITERE='RELATIF',
                   PRECISION=1.E-2,
                   MAILLE='M82',),
                _F(NUME_ORDRE=1,
                   GROUP_NO='B',
                   VALE_CALC_C=0.20031247315026+0.0E+00j,
                   VALE_REFE_C=(0.20021+0j),
                   REFERENCE='NON_DEFINI',
                   RESULTAT=DYNA,
                   NOM_CHAM='SIGM_ELNO',
                   NOM_CMP='SIZZ',
                   CRITERE='RELATIF',
                   PRECISION=1.E-2,
                   MAILLE='M82',),
                _F(NUME_ORDRE=1,
                   GROUP_NO='B',
                   VALE_CALC_C=-2.1190381733115E-05+0.0E+00j,
                   VALE_REFE_C=0j,
                   REFERENCE='NON_DEFINI',
                   RESULTAT=DYNA,
                   NOM_CHAM='SIGM_ELNO',
                   NOM_CMP='SIXY',
                   CRITERE='ABSOLU',
                   PRECISION=1.E-2,
                   MAILLE='M82',),
                _F(NUME_ORDRE=1,
                   GROUP_NO='C',
                   VALE_CALC_C=-0.60593414604769+0.0E+00j,
                   VALE_REFE_C=(-0.60921000000000003+0j),
                   REFERENCE='NON_DEFINI',
                   RESULTAT=DYNA,
                   NOM_CHAM='SIGM_ELNO',
                   NOM_CMP='SIXX',
                   CRITERE='RELATIF',
                   PRECISION=1.E-2,
                   MAILLE='M5',),
                _F(NUME_ORDRE=1,
                   GROUP_NO='C',
                   VALE_CALC_C=1.277222606336+0.0E+00j,
                   VALE_REFE_C=(1.2777099999999999+0j),
                   REFERENCE='NON_DEFINI',
                   RESULTAT=DYNA,
                   NOM_CHAM='SIGM_ELNO',
                   NOM_CMP='SIYY',
                   CRITERE='RELATIF',
                   PRECISION=1.E-2,
                   MAILLE='M5',),
                _F(NUME_ORDRE=1,
                   GROUP_NO='C',
                   VALE_CALC_C=0.20138653808649+0.0E+00j,
                   VALE_REFE_C=(0.20055000000000001+0j),
                   REFERENCE='NON_DEFINI',
                   RESULTAT=DYNA,
                   NOM_CHAM='SIGM_ELNO',
                   NOM_CMP='SIZZ',
                   CRITERE='RELATIF',
                   PRECISION=1.E-2,
                   MAILLE='M5',),
                _F(NUME_ORDRE=1,
                   GROUP_NO='C',
                   VALE_CALC_C=-0.94117255027623+0.0E+00j,
                   VALE_REFE_C=(-0.94345999999999997+0j),
                   REFERENCE='NON_DEFINI',
                   RESULTAT=DYNA,
                   NOM_CHAM='SIGM_ELNO',
                   NOM_CMP='SIXY',
                   CRITERE='RELATIF',
                   PRECISION=1.E-2,
                   MAILLE='M5',),
                _F(NUME_ORDRE=1,
                   GROUP_NO='D',
                   VALE_CALC_C=0.097772473579718+0.0E+00j,
                   VALE_REFE_C=(0.097739999999999994+0j),
                   REFERENCE='NON_DEFINI',
                   RESULTAT=DYNA,
                   NOM_CHAM='SIGM_ELNO',
                   NOM_CMP='SIXX',
                   CRITERE='RELATIF',
                   PRECISION=1.E-2,
                   MAILLE='M97',),
                _F(NUME_ORDRE=1,
                   GROUP_NO='D',
                   VALE_CALC_C=0.56993168989978+0.0E+00j,
                   VALE_REFE_C=(0.56964000000000004+0j),
                   REFERENCE='NON_DEFINI',
                   RESULTAT=DYNA,
                   NOM_CHAM='SIGM_ELNO',
                   NOM_CMP='SIYY',
                   CRITERE='RELATIF',
                   PRECISION=1.E-2,
                   MAILLE='M97',),
                _F(NUME_ORDRE=1,
                   GROUP_NO='D',
                   VALE_CALC_C=0.20031124904385+0.0E+00j,
                   VALE_REFE_C=(0.20021+0j),
                   REFERENCE='NON_DEFINI',
                   RESULTAT=DYNA,
                   NOM_CHAM='SIGM_ELNO',
                   NOM_CMP='SIZZ',
                   CRITERE='RELATIF',
                   PRECISION=1.E-2,
                   MAILLE='M97',),
                _F(NUME_ORDRE=1,
                   GROUP_NO='D',
                   VALE_CALC_C=-0.23610829120510+0.0E+00j,
                   VALE_REFE_C=(-0.23594999999999999+0j),
                   REFERENCE='NON_DEFINI',
                   RESULTAT=DYNA,
                   NOM_CHAM='SIGM_ELNO',
                   NOM_CMP='SIXY',
                   CRITERE='RELATIF',
                   PRECISION=1.E-2,
                   MAILLE='M97',),
                _F(NUME_ORDRE=1,
                   GROUP_NO='E',
                   VALE_CALC_C=0.33536508706343+0.0E+00j,
                   VALE_REFE_C=(0.33424999999999999+0j),
                   REFERENCE='NON_DEFINI',
                   RESULTAT=DYNA,
                   NOM_CHAM='SIGM_ELNO',
                   NOM_CMP='SIXX',
                   CRITERE='RELATIF',
                   PRECISION=1.E-2,
                   MAILLE='M10',),
                _F(NUME_ORDRE=1,
                   GROUP_NO='E',
                   VALE_CALC_C=0.33592342319944+0.0E+00j,
                   VALE_REFE_C=(0.33424999999999999+0j),
                   REFERENCE='NON_DEFINI',
                   RESULTAT=DYNA,
                   NOM_CHAM='SIGM_ELNO',
                   NOM_CMP='SIYY',
                   CRITERE='RELATIF',
                   PRECISION=1.E-2,
                   MAILLE='M10',),
                _F(NUME_ORDRE=1,
                   GROUP_NO='E',
                   VALE_CALC_C=0.20138655307886+0.0E+00j,
                   VALE_REFE_C=(0.20055000000000001+0j),
                   REFERENCE='NON_DEFINI',
                   RESULTAT=DYNA,
                   NOM_CHAM='SIGM_ELNO',
                   NOM_CMP='SIZZ',
                   CRITERE='RELATIF',
                   PRECISION=1.E-2,
                   MAILLE='M10',),
                _F(NUME_ORDRE=1,
                   GROUP_NO='E',
                   VALE_CALC_C=-1.3313017906375+0.0E+00j,
                   VALE_REFE_C=(-1.3342499999999999+0j),
                   REFERENCE='NON_DEFINI',
                   RESULTAT=DYNA,
                   NOM_CHAM='SIGM_ELNO',
                   NOM_CMP='SIXY',
                   CRITERE='RELATIF',
                   PRECISION=1.E-2,
                   MAILLE='M10',),
                _F(NUME_ORDRE=1,
                   GROUP_NO='F',
                   VALE_CALC_C=0.33384085495980+0.0E+00j,
                   VALE_REFE_C=(0.33368999999999999+0j),
                   REFERENCE='NON_DEFINI',
                   RESULTAT=DYNA,
                   NOM_CHAM='SIGM_ELNO',
                   NOM_CMP='SIXX',
                   CRITERE='RELATIF',
                   PRECISION=1.E-2,
                   MAILLE='M55',),
                _F(NUME_ORDRE=1,
                   GROUP_NO='F',
                   VALE_CALC_C=0.33388155726680+0.0E+00j,
                   VALE_REFE_C=(0.33368999999999999+0j),
                   REFERENCE='NON_DEFINI',
                   RESULTAT=DYNA,
                   NOM_CHAM='SIGM_ELNO',
                   NOM_CMP='SIYY',
                   CRITERE='RELATIF',
                   PRECISION=1.E-2,
                   MAILLE='M55',),
                _F(NUME_ORDRE=1,
                   GROUP_NO='F',
                   VALE_CALC_C=0.20031672366798+0.0E+00j,
                   VALE_REFE_C=(0.20021+0j),
                   REFERENCE='NON_DEFINI',
                   RESULTAT=DYNA,
                   NOM_CHAM='SIGM_ELNO',
                   NOM_CMP='SIZZ',
                   CRITERE='RELATIF',
                   PRECISION=1.E-2,
                   MAILLE='M55',),
                _F(NUME_ORDRE=1,
                   GROUP_NO='F',
                   VALE_CALC_C=-0.33389502622170+0.0E+00j,
                   VALE_REFE_C=(-0.33368999999999999+0j),
                   REFERENCE='NON_DEFINI',
                   RESULTAT=DYNA,
                   NOM_CHAM='SIGM_ELNO',
                   NOM_CMP='SIXY',
                   CRITERE='RELATIF',
                   PRECISION=1.E-2,
                   MAILLE='M55',),
                ),
          )

FIN();
#
