# ======================================================================
# COPYRIGHT (C) 1991 - 2016  EDF R&D                  WWW.CODE-ASTER.ORG
# THIS PROGRAM IS FREE SOFTWARE; YOU CAN REDISTRIBUTE IT AND/OR MODIFY
# IT UNDER THE TERMS OF THE GNU GENERAL PUBLIC LICENSE AS PUBLISHED BY
# THE FREE SOFTWARE FOUNDATION; EITHER VERSION 2 OF THE LICENSE, OR
# (AT YOUR OPTION) ANY LATER VERSION.
#
# THIS PROGRAM IS DISTRIBUTED IN THE HOPE THAT IT WILL BE USEFUL, BUT
# WITHOUT ANY WARRANTY; WITHOUT EVEN THE IMPLIED WARRANTY OF
# MERCHANTABILITY OR FITNESS FOR A PARTICULAR PURPOSE. SEE THE GNU
# GENERAL PUBLIC LICENSE FOR MORE DETAILS.
#
# YOU SHOULD HAVE RECEIVED A COPY OF THE GNU GENERAL PUBLIC LICENSE
# ALONG WITH THIS PROGRAM; IF NOT, WRITE TO EDF R&D CODE_ASTER,
#    1 AVENUE DU GENERAL DE GAULLE, 92141 CLAMART CEDEX, FRANCE.
# ======================================================================
#CAS_TEST__: SHLV100A
# ----------------------------------------------------------------------
# SHLV100 A               COMMANDES                            31/05/91
# CYLINDRE SOUS PRESSION INTERNE HARMONIQUE AVEC EXTREMITES BLOQUEES
# SOLUTION ANALYTIQUE EN DEFORMATIONS PLANES
#
#         ..                      JWT                JWT
# K X + M X   = P    AVEC  P = P E        ET  X = X E
#       2
# (K - W M) X = P    AVEC  W = 0.2 RD/S   ET  P = 1 MPA
#
# MODELISATION : ELEMENTS MECANIQUE 3D (PENTA6+HEXA8+QUAD4)
# MAILLAGE     : ALIBABA > ASTER > SUPERTAB
#
# ----------------------------------------------------------------------
# GROUPES DE NOEUDS ET MAILLES DANS PLAN ABEF :
# A=GRNO1  B=GRNO2  C=GRNO3  D=GRNO4  E=GRNO5  F=GRNO6
# NOEUDS(AB)=GRNM11          SEG(EF)=GRMA12    SEG(AE)=GRMA13
# GROUPES DE NOEUDS ET MAILLES EN 3D :
# GRNO: A B C D E F    A2 B2 C2 D2 E2 F2   A3 B3 C3 D3 E3 F3  BORDAB
# GRMA: FACEEF         FACEAE
# ----------------------------------------------------------------------

DEBUT(CODE=_F(NIV_PUB_WEB='INTERNET'),DEBUG=_F(SDVERI='OUI'))

M=LIRE_MAILLAGE(FORMAT='MED',);

MO=AFFE_MODELE(MAILLAGE=M,
               AFFE=_F(TOUT='OUI',
                       PHENOMENE='MECANIQUE',
                       MODELISATION='3D',),);

M=MODI_MAILLAGE(reuse =M,
                MAILLAGE=M,
                ORIE_PEAU_3D=_F(GROUP_MA=('FACEEF','FACEAE',),),
                );

MA=DEFI_MATERIAU(ELAS=_F(E=26.0,
                         NU=0.3,
                         RHO=35.0,
                         ALPHA=0.0,),);

CM=AFFE_MATERIAU(MAILLAGE=M,
                 AFFE=_F(TOUT='OUI',
                         MATER=MA,),);

CH=AFFE_CHAR_MECA(MODELE=MO,
                  DDL_IMPO=(_F(TOUT='OUI',
                               DZ=0.0,),
                            _F(GROUP_NO='BORDAB',
                               DY=0.0,),),
                  FACE_IMPO=_F(GROUP_MA='FACEEF',
                               DNOR=0.0,),
                  PRES_REP=_F(GROUP_MA='FACEAE',
                              PRES=1.0,),);

KE=CALC_MATR_ELEM(OPTION='RIGI_MECA',
                  MODELE=MO,
                  CHAM_MATER=CM,
                  CHARGE=CH,);

ME=CALC_MATR_ELEM(OPTION='MASS_MECA',
                  MODELE=MO,
                  CHAM_MATER=CM,
                  CHARGE=CH,);

VE=CALC_VECT_ELEM(OPTION='CHAR_MECA',
                  CHARGE=CH,
                  CHAM_MATER=CM,);

NU=NUME_DDL(MATR_RIGI=KE,);

KAS=ASSE_MATRICE(MATR_ELEM=KE,
                 NUME_DDL=NU,);

MAS=ASSE_MATRICE(MATR_ELEM=ME,
                 NUME_DDL=NU,);

VAS=ASSE_VECTEUR(VECT_ELEM=VE,
                 NUME_DDL=NU,);

FREQ=DEFI_LIST_REEL(VALE=0.03183,);

DYNAH=DYNA_VIBRA( TYPE_CALCUL='HARM',
                   BASE_CALCUL='PHYS',MATR_MASS=MAS,
                     MATR_RIGI=KAS,
                     LIST_FREQ=FREQ,
                     EXCIT=_F(VECT_ASSE=VAS,
                              COEF_MULT=1.0,),);

DYNAH=CALC_CHAMP(reuse=DYNAH,RESULTAT=DYNAH,CONTRAINTE=('SIGM_ELNO'))



TEST_RESU(RESU=(_F(NUME_ORDRE=1,
                   GROUP_NO='A',
                   VALE_CALC_C= 7.32430644E-03+ 0.00000000E+00j,
                   VALE_REFE_C=(0.0073397999999999996+0j),
                   REFERENCE='NON_DEFINI',
                   RESULTAT=DYNAH,
                   NOM_CHAM='DEPL',
                   NOM_CMP='DX',
                   CRITERE='RELATIF',
                   PRECISION=1.E-2,),
                _F(NUME_ORDRE=1,
                   GROUP_NO='A',
                   VALE_CALC_C=0j,
                   RESULTAT=DYNAH,
                   NOM_CHAM='DEPL',
                   NOM_CMP='DY',
                   CRITERE='ABSOLU',
                   ),
                _F(NUME_ORDRE=1,
                   GROUP_NO='B',
                   VALE_CALC_C=4.664116218109E-03+0.0E+00j,
                   VALE_REFE_C=(0.0046715999999999997+0j),
                   REFERENCE='NON_DEFINI',
                   RESULTAT=DYNAH,
                   NOM_CHAM='DEPL',
                   NOM_CMP='DX',
                   CRITERE='RELATIF',
                   PRECISION=1.E-2,),
                _F(NUME_ORDRE=1,
                   GROUP_NO='B',
                   VALE_CALC_C=0j,
                   RESULTAT=DYNAH,
                   NOM_CHAM='DEPL',
                   NOM_CMP='DY',
                   CRITERE='ABSOLU',
                   ),
                _F(NUME_ORDRE=1,
                   GROUP_NO='C',
                   VALE_CALC_C=6.7669747858524E-03+0.0E+00j ,
                   VALE_REFE_C=(0.00678109+0j),
                   REFERENCE='NON_DEFINI',
                   RESULTAT=DYNAH,
                   NOM_CHAM='DEPL',
                   NOM_CMP='DX',
                   CRITERE='RELATIF',
                   PRECISION=1.E-2,),
                _F(NUME_ORDRE=1,
                   GROUP_NO='C',
                   VALE_CALC_C= 2.8012255928273E-03+0.0E+00j,
                   VALE_REFE_C=(0.0028088200000000001+0j),
                   REFERENCE='NON_DEFINI',
                   RESULTAT=DYNAH,
                   NOM_CHAM='DEPL',
                   NOM_CMP='DY',
                   CRITERE='RELATIF',
                   PRECISION=1.E-2,),
                _F(NUME_ORDRE=1,
                   GROUP_NO='D',
                   VALE_CALC_C= 4.3083927592705E-03+0.0E+00j,
                   VALE_REFE_C=(0.0043252300000000002+0j),
                   REFERENCE='NON_DEFINI',
                   RESULTAT=DYNAH,
                   NOM_CHAM='DEPL',
                   NOM_CMP='DX',
                   CRITERE='RELATIF',
                   PRECISION=1.E-2,),
                _F(NUME_ORDRE=1,
                   GROUP_NO='D',
                   VALE_CALC_C= 1.7853894847402E-03+0.0E+00j,
                   VALE_REFE_C=(0.0017915699999999999+0j),
                   REFERENCE='NON_DEFINI',
                   RESULTAT=DYNAH,
                   NOM_CHAM='DEPL',
                   NOM_CMP='DY',
                   CRITERE='RELATIF',
                   PRECISION=1.E-2,),
                _F(NUME_ORDRE=1,
                   GROUP_NO='E',
                   VALE_CALC_C= 5.1784311707162E-03+0.0E+00j,
                   VALE_REFE_C=(0.00519002+0j),
                   REFERENCE='NON_DEFINI',
                   RESULTAT=DYNAH,
                   NOM_CHAM='DEPL',
                   NOM_CMP='DX',
                   CRITERE='RELATIF',
                   PRECISION=1.E-2,),
                _F(NUME_ORDRE=1,
                   GROUP_NO='E',
                   VALE_CALC_C= 5.1784311707162E-03+0.0E+00j,
                   VALE_REFE_C=(0.00519002+0j),
                   REFERENCE='NON_DEFINI',
                   RESULTAT=DYNAH,
                   NOM_CHAM='DEPL',
                   NOM_CMP='DY',
                   CRITERE='RELATIF',
                   PRECISION=1.E-2,),
                _F(NUME_ORDRE=1,
                   GROUP_NO='F',
                   VALE_CALC_C=3.297415362263E-03+0.0E+00j,
                   VALE_REFE_C=(0.0033103899999999999+0j),
                   REFERENCE='NON_DEFINI',
                   RESULTAT=DYNAH,
                   NOM_CHAM='DEPL',
                   NOM_CMP='DX',
                   CRITERE='RELATIF',
                   PRECISION=1.E-2,),
                _F(NUME_ORDRE=1,
                   GROUP_NO='F',
                   VALE_CALC_C=3.297415362263E-03+0.0E+00j,
                   VALE_REFE_C=(0.0033103899999999999+0j),
                   REFERENCE='NON_DEFINI',
                   RESULTAT=DYNAH,
                   NOM_CHAM='DEPL',
                   NOM_CMP='DY',
                   CRITERE='RELATIF',
                   PRECISION=1.E-2,),
                _F(NUME_ORDRE=1,
                   GROUP_NO='A',
                   VALE_CALC_C= -0.88120834447786+0.0E+00j,
                   VALE_REFE_C=(-1+0j),
                   REFERENCE='NON_DEFINI',
                   RESULTAT=DYNAH,
                   NOM_CHAM='SIGM_ELNO',
                   NOM_CMP='SIXX',
                   CRITERE='RELATIF',
                   PRECISION=0.12,
                   MAILLE='MA253',),
                _F(NUME_ORDRE=1,
                   GROUP_NO='A',
                   VALE_CALC_C=1.7086267694515+0.0E+00j,
                   VALE_REFE_C=(1.6685000000000001+0j),
                   REFERENCE='NON_DEFINI',
                   RESULTAT=DYNAH,
                   NOM_CHAM='SIGM_ELNO',
                   NOM_CMP='SIYY',
                   CRITERE='RELATIF',
                   PRECISION=0.029999999999999999,
                   MAILLE='MA253',),
                _F(NUME_ORDRE=1,
                   GROUP_NO='A',
                   VALE_CALC_C=0.24822552749208+0.0E+00j,
                   VALE_REFE_C=(0.20055000000000001+0j),
                   REFERENCE='NON_DEFINI',
                   RESULTAT=DYNAH,
                   NOM_CHAM='SIGM_ELNO',
                   NOM_CMP='SIZZ',
                   CRITERE='RELATIF',
                   PRECISION=0.23999999999999999,
                   MAILLE='MA253',),
                _F(NUME_ORDRE=1,
                   GROUP_NO='A',
                   VALE_CALC_C=-0.10190121810579+0.0E+00j,
                   VALE_REFE_C=0j,
                   REFERENCE='NON_DEFINI',
                   RESULTAT=DYNAH,
                   NOM_CHAM='SIGM_ELNO',
                   NOM_CMP='SIXY',
                   CRITERE='ABSOLU',
                   PRECISION=0.20000000000000001,
                   MAILLE='MA253',),
                _F(NUME_ORDRE=1,
                   GROUP_NO='B',
                   VALE_CALC_C=-0.017247694600216+0.0E+00j,
                   VALE_REFE_C=0j,
                   REFERENCE='NON_DEFINI',
                   RESULTAT=DYNAH,
                   NOM_CHAM='SIGM_ELNO',
                   NOM_CMP='SIXX',
                   CRITERE='ABSOLU',
                   PRECISION=0.029999999999999999,
                   MAILLE='MA595',),
                _F(NUME_ORDRE=1,
                   GROUP_NO='B',
                   VALE_CALC_C=0.68367099600881+0.0E+00j,
                   VALE_REFE_C=(0.66737999999999997+0j),
                   REFERENCE='NON_DEFINI',
                   RESULTAT=DYNAH,
                   NOM_CHAM='SIGM_ELNO',
                   NOM_CMP='SIYY',
                   CRITERE='RELATIF',
                   PRECISION=0.029999999999999999,
                   MAILLE='MA595',),
                _F(NUME_ORDRE=1,
                   GROUP_NO='B',
                   VALE_CALC_C=0.19992699042258+0.0E+00j,
                   VALE_REFE_C=(0.20021+0j),
                   REFERENCE='NON_DEFINI',
                   RESULTAT=DYNAH,
                   NOM_CHAM='SIGM_ELNO',
                   NOM_CMP='SIZZ',
                   CRITERE='RELATIF',
                   PRECISION=0.029999999999999999,
                   MAILLE='MA595',),
                _F(NUME_ORDRE=1,
                   GROUP_NO='B',
                   VALE_CALC_C=-0.017515262123650+0.0E+00j,
                   VALE_REFE_C=0j,
                   REFERENCE='NON_DEFINI',
                   RESULTAT=DYNAH,
                   NOM_CHAM='SIGM_ELNO',
                   NOM_CMP='SIXY',
                   CRITERE='ABSOLU',
                   PRECISION=0.029999999999999999,
                   MAILLE='MA595',),
                _F(NUME_ORDRE=1,
                   GROUP_NO='C',
                   VALE_CALC_C=-0.57488999890943+0.0E+00j,
                   VALE_REFE_C=(-0.60921000000000003+0j),
                   REFERENCE='NON_DEFINI',
                   RESULTAT=DYNAH,
                   NOM_CHAM='SIGM_ELNO',
                   NOM_CMP='SIXX',
                   CRITERE='RELATIF',
                   PRECISION=0.059999999999999998,
                   MAILLE='MA349',),
                _F(NUME_ORDRE=1,
                   GROUP_NO='C',
                   VALE_CALC_C=1.4001733252372+0.0E+00j,
                   VALE_REFE_C=(1.2777099999999999+0j),
                   REFERENCE='NON_DEFINI',
                   RESULTAT=DYNAH,
                   NOM_CHAM='SIGM_ELNO',
                   NOM_CMP='SIYY',
                   CRITERE='RELATIF',
                   PRECISION=0.10000000000000001,
                   MAILLE='MA349',),
                _F(NUME_ORDRE=1,
                   GROUP_NO='C',
                   VALE_CALC_C=0.24758499789834+0.0E+00j,
                   VALE_REFE_C=(0.20055000000000001+0j),
                   REFERENCE='NON_DEFINI',
                   RESULTAT=DYNAH,
                   NOM_CHAM='SIGM_ELNO',
                   NOM_CMP='SIZZ',
                   CRITERE='RELATIF',
                   PRECISION=0.23999999999999999,
                   MAILLE='MA349',),
                _F(NUME_ORDRE=1,
                   GROUP_NO='C',
                   VALE_CALC_C=-0.84261512077456+0.0E+00j,
                   VALE_REFE_C=(-0.94345999999999997+0j),
                   REFERENCE='NON_DEFINI',
                   RESULTAT=DYNAH,
                   NOM_CHAM='SIGM_ELNO',
                   NOM_CMP='SIXY',
                   CRITERE='RELATIF',
                   PRECISION=0.11,
                   MAILLE='MA349',),
                _F(NUME_ORDRE=1,
                   GROUP_NO='D',
                   VALE_CALC_C=0.072955605421489+0.0E+00j,
                   VALE_REFE_C=(0.097739999999999994+0j),
                   REFERENCE='NON_DEFINI',
                   RESULTAT=DYNAH,
                   NOM_CHAM='SIGM_ELNO',
                   NOM_CMP='SIXX',
                   CRITERE='RELATIF',
                   PRECISION=0.26000000000000001,
                   MAILLE='MA739',),
                _F(NUME_ORDRE=1,
                   GROUP_NO='D',
                   VALE_CALC_C=0.59372364332502+0.0E+00j,
                   VALE_REFE_C=(0.56964000000000004+0j),
                   REFERENCE='NON_DEFINI',
                   RESULTAT=DYNAH,
                   NOM_CHAM='SIGM_ELNO',
                   NOM_CMP='SIYY',
                   CRITERE='RELATIF',
                   PRECISION=0.050000000000000003,
                   MAILLE='MA739',),
                _F(NUME_ORDRE=1,
                   GROUP_NO='D',
                   VALE_CALC_C=0.20000377462395+0.0E+00j,
                   VALE_REFE_C=(0.20021+0j),
                   REFERENCE='NON_DEFINI',
                   RESULTAT=DYNAH,
                   NOM_CHAM='SIGM_ELNO',
                   NOM_CMP='SIZZ',
                   CRITERE='RELATIF',
                   PRECISION=1.E-2,
                   MAILLE='MA739',),
                _F(NUME_ORDRE=1,
                   GROUP_NO='D',
                   VALE_CALC_C=-0.23524039652199+0.0E+00j,
                   VALE_REFE_C=(-0.23594999999999999+0j),
                   REFERENCE='NON_DEFINI',
                   RESULTAT=DYNAH,
                   NOM_CHAM='SIGM_ELNO',
                   NOM_CMP='SIXY',
                   CRITERE='RELATIF',
                   PRECISION=1.E-2,
                   MAILLE='MA739',),
                _F(NUME_ORDRE=1,
                   GROUP_NO='E',
                   VALE_CALC_C=0.43186416953295+0.0E+00j,
                   VALE_REFE_C=(0.33424999999999999+0j),
                   REFERENCE='NON_DEFINI',
                   RESULTAT=DYNAH,
                   NOM_CHAM='SIGM_ELNO',
                   NOM_CMP='SIXX',
                   CRITERE='RELATIF',
                   PRECISION=0.29999999999999999,
                   MAILLE='MA399',),
                _F(NUME_ORDRE=1,
                   GROUP_NO='E',
                   VALE_CALC_C=0.53154706374027+0.0E+00j,
                   VALE_REFE_C=(0.33424999999999999+0j),
                   REFERENCE='NON_DEFINI',
                   RESULTAT=DYNAH,
                   NOM_CHAM='SIGM_ELNO',
                   NOM_CMP='SIYY',
                   CRITERE='RELATIF',
                   PRECISION=0.59999999999999998,
                   MAILLE='MA399',),
                _F(NUME_ORDRE=1,
                   GROUP_NO='E',
                   VALE_CALC_C=0.28902336998197+0.0E+00j,
                   VALE_REFE_C=(0.20055000000000001+0j),
                   REFERENCE='NON_DEFINI',
                   RESULTAT=DYNAH,
                   NOM_CHAM='SIGM_ELNO',
                   NOM_CMP='SIZZ',
                   CRITERE='RELATIF',
                   PRECISION=0.45000000000000001,
                   MAILLE='MA399',),
                _F(NUME_ORDRE=1,
                   GROUP_NO='E',
                   VALE_CALC_C=-1.2686307538041+0.0E+00j,
                   VALE_REFE_C=(-1.3342499999999999+0j),
                   REFERENCE='NON_DEFINI',
                   RESULTAT=DYNAH,
                   NOM_CHAM='SIGM_ELNO',
                   NOM_CMP='SIXY',
                   CRITERE='RELATIF',
                   PRECISION=0.050000000000000003,
                   MAILLE='MA399',),
                _F(NUME_ORDRE=1,
                   GROUP_NO='F',
                   VALE_CALC_C=0.29766363432181+0.0E+00j,
                   VALE_REFE_C=(0.33368999999999999+0j),
                   REFERENCE='NON_DEFINI',
                   RESULTAT=DYNAH,
                   NOM_CHAM='SIGM_ELNO',
                   NOM_CMP='SIXX',
                   CRITERE='RELATIF',
                   PRECISION=0.11,
                   MAILLE='MA747',),
                _F(NUME_ORDRE=1,
                   GROUP_NO='F',
                   VALE_CALC_C=0.32447596565047+0.0E+00j,
                   VALE_REFE_C=(0.33368999999999999+0j),
                   REFERENCE='NON_DEFINI',
                   RESULTAT=DYNAH,
                   NOM_CHAM='SIGM_ELNO',
                   NOM_CMP='SIYY',
                   CRITERE='RELATIF',
                   PRECISION=0.029999999999999999,
                   MAILLE='MA747',),
                _F(NUME_ORDRE=1,
                   GROUP_NO='F',
                   VALE_CALC_C=0.18664187999168+0.0E+00j,
                   VALE_REFE_C=(0.20021+0j),
                   REFERENCE='NON_DEFINI',
                   RESULTAT=DYNAH,
                   NOM_CHAM='SIGM_ELNO',
                   NOM_CMP='SIZZ',
                   CRITERE='RELATIF',
                   PRECISION=0.070000000000000007,
                   MAILLE='MA747',),
                _F(NUME_ORDRE=1,
                   GROUP_NO='F',
                   VALE_CALC_C=-0.34150403661253+0.0E+00j,
                   VALE_REFE_C=(-0.33368999999999999+0j),
                   REFERENCE='NON_DEFINI',
                   RESULTAT=DYNAH,
                   NOM_CHAM='SIGM_ELNO',
                   NOM_CMP='SIXY',
                   CRITERE='RELATIF',
                   PRECISION=0.029999999999999999,
                   MAILLE='MA747',),
                ),
          )

RESU1=MODI_REPERE(RESULTAT=DYNAH,
                  MODI_CHAM=_F(
                               TYPE_CHAM='TENS_3D',
                               NOM_CHAM='SIGM_ELNO',
                               NOM_CMP=('SIXX','SIYY','SIZZ','SIXY','SIXZ','SIYZ',),),
                  REPERE='CYLINDRIQUE',
                  AFFE=_F(AXE_Z=(0.,0.,1.,),MAILLE=('MA253',),
                                 ORIGINE=(0.,0.,0.,),),
                               );

# TEST DES CONTRAINTES ELNO APRES MODI_REPERE (SIYY et SIZZ INVERSES)
TEST_RESU(RESU=(_F(NUME_ORDRE=1,
                   GROUP_NO='A',
                   VALE_CALC_C=-0.881208344+ 0.00000000E+00j,
                   VALE_REFE_C=(-1+0j),
                   REFERENCE='ANALYTIQUE',
                   RESULTAT=RESU1,
                   NOM_CHAM='SIGM_ELNO',
                   NOM_CMP='SIXX',
                   CRITERE='RELATIF',
                   PRECISION=0.12,
                   MAILLE='MA253',),
                _F(NUME_ORDRE=1,
                   GROUP_NO='A',
                   VALE_CALC_C=0.248225527+ 0.00000000E+00j,
                   VALE_REFE_C=(0.20055000000000001+0j),
                   REFERENCE='ANALYTIQUE',
                   RESULTAT=RESU1,
                   NOM_CHAM='SIGM_ELNO',
                   NOM_CMP='SIYY',
                   CRITERE='RELATIF',
                   PRECISION=0.23999999999999999,
                   MAILLE='MA253',),
                _F(NUME_ORDRE=1,
                   GROUP_NO='A',
                   VALE_CALC_C=1.708626769+ 0.00000000E+00j,
                   VALE_REFE_C=(1.6685000000000001+0j),
                   REFERENCE='ANALYTIQUE',
                   RESULTAT=RESU1,
                   NOM_CHAM='SIGM_ELNO',
                   NOM_CMP='SIZZ',
                   CRITERE='RELATIF',
                   PRECISION=0.029999999999999999,
                   MAILLE='MA253',),
                ),
          )

DYNAH=CALC_CHAMP(reuse =DYNAH,
              RESULTAT=DYNAH,
              CONTRAINTE='SIGM_NOEU',);

TEST_RESU(RESU=(_F(NUME_ORDRE=1,
                   GROUP_NO='A',
                   VALE_CALC_C=-0.878978764+ 0.00000000E+00j,
                   VALE_REFE_C=(-1+0j),
                   REFERENCE='ANALYTIQUE',
                   RESULTAT=DYNAH,
                   NOM_CHAM='SIGM_NOEU',
                   NOM_CMP='SIXX',
                   CRITERE='RELATIF',
                   PRECISION=0.13,),
                _F(NUME_ORDRE=1,
                   GROUP_NO='A',
                   VALE_CALC_C=1.624106676+ 0.00000000E+00j,
                   VALE_REFE_C=(1.6685000000000001+0j),
                   REFERENCE='ANALYTIQUE',
                   RESULTAT=DYNAH,
                   NOM_CHAM='SIGM_NOEU',
                   NOM_CMP='SIYY',
                   CRITERE='RELATIF',
                   PRECISION=0.029999999999999999,),
                _F(NUME_ORDRE=1,
                   GROUP_NO='A',
                   VALE_CALC_C=0.223538374+ 0.00000000E+00j,
                   VALE_REFE_C=(0.20055000000000001+0j),
                   REFERENCE='ANALYTIQUE',
                   RESULTAT=DYNAH,
                   NOM_CHAM='SIGM_NOEU',
                   NOM_CMP='SIZZ',
                   CRITERE='RELATIF',
                   PRECISION=0.12,),
                ),
          )

RESU2=MODI_REPERE(RESULTAT=DYNAH,
                  MODI_CHAM=_F(
                               TYPE_CHAM='TENS_3D',
                               NOM_CHAM='SIGM_NOEU',
                               NOM_CMP=('SIXX','SIYY','SIZZ','SIXY','SIXZ','SIYZ',),),
                  REPERE='CYLINDRIQUE',
                  AFFE=_F(AXE_Z=(0.,0.,1.,),MAILLE=('MA253',),
                                 ORIGINE=(0.,0.,0.,),),
                                );

# TEST DES CONTRAINTES AUX NOEUDS APRES MODI_REPERE (SIYY et SIZZ INVERSES)
TEST_RESU(RESU=(_F(NUME_ORDRE=1,
                   GROUP_NO='A',
                   VALE_CALC_C=-0.878978764+ 0.00000000E+00j,
                   VALE_REFE_C=(-1+0j),
                   REFERENCE='ANALYTIQUE',
                   RESULTAT=RESU2,
                   NOM_CHAM='SIGM_NOEU',
                   NOM_CMP='SIXX',
                   CRITERE='RELATIF',
                   PRECISION=0.13,),
                _F(NUME_ORDRE=1,
                   GROUP_NO='A',
                   VALE_CALC_C=0.223538374+ 0.00000000E+00j,
                   VALE_REFE_C=(0.20055000000000001+0j),
                   REFERENCE='ANALYTIQUE',
                   RESULTAT=RESU2,
                   NOM_CHAM='SIGM_NOEU',
                   NOM_CMP='SIYY',
                   CRITERE='RELATIF',
                   PRECISION=0.12,),
                _F(NUME_ORDRE=1,
                   GROUP_NO='A',
                   VALE_CALC_C=1.624106676+ 0.00000000E+00j,
                   VALE_REFE_C=(1.6685000000000001+0j),
                   REFERENCE='ANALYTIQUE',
                   RESULTAT=RESU2,
                   NOM_CHAM='SIGM_NOEU',
                   NOM_CMP='SIZZ',
                   CRITERE='RELATIF',
                   PRECISION=0.029999999999999999,),
                ),
          )

#
#  MEMES TESTS EN REPERE UTILISATEUR
#

RESU3=MODI_REPERE(RESULTAT=DYNAH,
                  MODI_CHAM=_F(
                               TYPE_CHAM='TENS_3D',
                               NOM_CHAM='SIGM_ELNO',
                               NOM_CMP=('SIXX','SIYY','SIZZ','SIXY','SIXZ','SIYZ',),),
REPERE='UTILISATEUR',
                  AFFE=_F(MAILLE=('MA253',),
                                 ANGL_NAUT=(0.,0.,0.,),),
                               );

# TEST DES CONTRAINTES ELNO APRES MODI_REPERE
TEST_RESU(RESU=(_F(NUME_ORDRE=1,
                   GROUP_NO='A',
                   VALE_CALC_C=-0.881208344+ 0.00000000E+00j,
                   VALE_REFE_C=(-1+0j),
                   REFERENCE='ANALYTIQUE',
                   RESULTAT=RESU3,
                   NOM_CHAM='SIGM_ELNO',
                   NOM_CMP='SIXX',
                   CRITERE='RELATIF',
                   PRECISION=0.12,
                   MAILLE='MA253',),
                _F(NUME_ORDRE=1,
                   GROUP_NO='A',
                   VALE_CALC_C=0.248225527+ 0.00000000E+00j,
                   VALE_REFE_C=(0.20055000000000001+0j),
                   REFERENCE='ANALYTIQUE',
                   RESULTAT=RESU3,
                   NOM_CHAM='SIGM_ELNO',
                   NOM_CMP='SIZZ',
                   CRITERE='RELATIF',
                   PRECISION=0.23999999999999999,
                   MAILLE='MA253',),
                _F(NUME_ORDRE=1,
                   GROUP_NO='A',
                   VALE_CALC_C=1.708626769+ 0.00000000E+00j,
                   VALE_REFE_C=(1.6685000000000001+0j),
                   REFERENCE='ANALYTIQUE',
                   RESULTAT=RESU3,
                   NOM_CHAM='SIGM_ELNO',
                   NOM_CMP='SIYY',
                   CRITERE='RELATIF',
                   PRECISION=0.029999999999999999,
                   MAILLE='MA253',),
                ),
          )

RESU4=MODI_REPERE(RESULTAT=DYNAH,
                  MODI_CHAM=_F(
                               TYPE_CHAM='TENS_3D',
                               NOM_CHAM='SIGM_NOEU',
                               NOM_CMP=('SIXX','SIYY','SIZZ','SIXY','SIXZ','SIYZ',),),
REPERE='UTILISATEUR',
                  AFFE=_F(MAILLE=('MA253',),
                                 ANGL_NAUT=(0.,0.,0.,),),
                  );

# TEST DES CONTRAINTES AUX NOEUDS APRES MODI_REPERE
TEST_RESU(RESU=(_F(NUME_ORDRE=1,
                   GROUP_NO='A',
                   VALE_CALC_C=-0.878978764+ 0.00000000E+00j,
                   VALE_REFE_C=(-1+0j),
                   REFERENCE='ANALYTIQUE',
                   RESULTAT=RESU4,
                   NOM_CHAM='SIGM_NOEU',
                   NOM_CMP='SIXX',
                   CRITERE='RELATIF',
                   PRECISION=0.13,),
                _F(NUME_ORDRE=1,
                   GROUP_NO='A',
                   VALE_CALC_C=0.223538374+ 0.00000000E+00j,
                   VALE_REFE_C=(0.20055000000000001+0j),
                   REFERENCE='ANALYTIQUE',
                   RESULTAT=RESU4,
                   NOM_CHAM='SIGM_NOEU',
                   NOM_CMP='SIZZ',
                   CRITERE='RELATIF',
                   PRECISION=0.12,),
                _F(NUME_ORDRE=1,
                   GROUP_NO='A',
                   VALE_CALC_C=1.624106676+ 0.00000000E+00j,
                   VALE_REFE_C=(1.6685000000000001+0j),
                   REFERENCE='ANALYTIQUE',
                   RESULTAT=RESU4,
                   NOM_CHAM='SIGM_NOEU',
                   NOM_CMP='SIYY',
                   CRITERE='RELATIF',
                   PRECISION=0.029999999999999999,),
                ),
          )

RESU5=MODI_REPERE(RESULTAT=DYNAH,
                  MODI_CHAM=_F(
                               TYPE_CHAM='VECT_3D',
                               NOM_CHAM='DEPL',
                               NOM_CMP=('DX','DY','DZ',),),
REPERE='UTILISATEUR',
                  AFFE=_F(MAILLE=('MA253',),
                                 ANGL_NAUT=(0.,0.,0.,),),
                  );

# TEST DES DEPLACEMENTS APRES MODI_REPERE
TEST_RESU(RESU=(_F(NUME_ORDRE=1,
                   GROUP_NO='A',
                   VALE_CALC_C= 7.32430644E-03+ 0.00000000E+00j,
                   VALE_REFE_C=(0.0073397999999999996+0j),
                   REFERENCE='ANALYTIQUE',
                   RESULTAT=RESU5,
                   NOM_CHAM='DEPL',
                   NOM_CMP='DX',
                   CRITERE='RELATIF',
                   PRECISION=1.E-2,),
                _F(NUME_ORDRE=1,
                   GROUP_NO='A',
                   VALE_CALC_C= 5.0821976835E-21+ 0.0000000000E+00j,
                   VALE_REFE_C=0j,
                   REFERENCE='ANALYTIQUE',
                   RESULTAT=RESU5,
                   NOM_CHAM='DEPL',
                   NOM_CMP='DY',
                   CRITERE='ABSOLU',
                   PRECISION=1.E-10,),
                ),
          )

FIN();
#
