# TITRE REPONSE HARMONIQUE CYLINDRE EN D.P. (TETRA4)
# ======================================================================
# COPYRIGHT (C) 1991 - 2012  EDF R&D                  WWW.CODE-ASTER.ORG
# THIS PROGRAM IS FREE SOFTWARE; YOU CAN REDISTRIBUTE IT AND/OR MODIFY
# IT UNDER THE TERMS OF THE GNU GENERAL PUBLIC LICENSE AS PUBLISHED BY
# THE FREE SOFTWARE FOUNDATION; EITHER VERSION 2 OF THE LICENSE, OR
# (AT YOUR OPTION) ANY LATER VERSION.
#
# THIS PROGRAM IS DISTRIBUTED IN THE HOPE THAT IT WILL BE USEFUL, BUT
# WITHOUT ANY WARRANTY; WITHOUT EVEN THE IMPLIED WARRANTY OF
# MERCHANTABILITY OR FITNESS FOR A PARTICULAR PURPOSE. SEE THE GNU
# GENERAL PUBLIC LICENSE FOR MORE DETAILS.
#
# YOU SHOULD HAVE RECEIVED A COPY OF THE GNU GENERAL PUBLIC LICENSE
# ALONG WITH THIS PROGRAM; IF NOT, WRITE TO EDF R&D CODE_ASTER,
#    1 AVENUE DU GENERAL DE GAULLE, 92141 CLAMART CEDEX, FRANCE.
# ======================================================================
#CAS_TEST__: SHLV100C
# ----------------------------------------------------------------------
# SHLV100 C               COMMANDES                            31/05/91
# CYLINDRE SOUS PRESSION INTERNE HARMONIQUE AVEC EXTREMITES BLOQUEES
# SOLUTION ANALYTIQUE EN DEFORMATIONS PLANES
#
#         ..                      JWT                JWT
# K X + M X   = P    AVEC  P = P E        ET  X = X E
#       2
# (K - W M) X = P    AVEC  W = 0.2 RD/S   ET  P = 1 MPA
#
# MODELISATION : ELEMENTS MECANIQUE 3D (TETRA4)
# MAILLAGE     : SUPERTAB > ASTER
#
# ----------------------------------------------------------------------
# GROUPES DE NOEUDS ET MAILLES EN 3D :
# GRNO: A B C D E F    A2 B2 C2 D2 E2 F2   A3 B3 C3 D3 E3 F3  BORDAB
# GRMA: FACEEF         FACEAE
# ----------------------------------------------------------------------
#

DEBUT(CODE=_F(NIV_PUB_WEB='INTERNET'),DEBUG=_F(SDVERI='OUI'))

M=LIRE_MAILLAGE(FORMAT='MED',   )

MO=AFFE_MODELE(        MAILLAGE=M,
                                AFFE=_F(  TOUT = 'OUI',
                                       PHENOMENE = 'MECANIQUE',
                                       MODELISATION = '3D',             ))

M=MODI_MAILLAGE( reuse=M,   MAILLAGE=M,
                        ORIE_PEAU_3D=_F(  GROUP_MA = ( 'FACEEF', 'FACEAE', ),  )
                      )

MA=DEFI_MATERIAU(          ELAS=_F(  E = 26.,
                                       NU = 0.3,
                                       RHO = 35.,
                                       ALPHA = 0.,                      ))

CM=AFFE_MATERIAU(      MAILLAGE=M,
                                AFFE=_F(  TOUT = 'OUI',
                                       MATER = MA,                      ))

CH=AFFE_CHAR_MECA(       MODELE=MO,
                           FACE_IMPO=_F(  GROUP_MA = 'FACEEF',      DNOR = 0., ),DDL_IMPO=(
                            _F(  TOUT = 'OUI',           DZ = 0.,   ),
                                     _F(  GROUP_NO = 'BORDAB',      DY = 0.,   )),
                            PRES_REP=_F(  GROUP_MA = 'FACEAE',      PRES = 1., ))

KE=CALC_MATR_ELEM(       MODELE=MO,
                              CHARGE=CH,
                          CHAM_MATER=CM,
                              OPTION='RIGI_MECA'                      )

ME=CALC_MATR_ELEM(       MODELE=MO,
                              CHARGE=CH,
                          CHAM_MATER=CM,
                              OPTION='MASS_MECA'                      )

VE=CALC_VECT_ELEM(       CHARGE=CH,
                          CHAM_MATER=CM,
                              OPTION='CHAR_MECA'                      )

NU=NUME_DDL(          MATR_RIGI=KE                               )

KAS=ASSE_MATRICE(      MATR_ELEM=KE,
                            NUME_DDL=NU                               )

MAS=ASSE_MATRICE(      MATR_ELEM=ME,
                             NUME_DDL=NU                  )

VAS=ASSE_VECTEUR(      VECT_ELEM=VE,
                            NUME_DDL=NU                               )

FREQ=DEFI_LIST_REEL(VALE=0.03183,);

DYNAH=DYNA_VIBRA(TYPE_CALCUL='HARM',BASE_CALCUL='PHYS',
                 MATR_MASS=MAS,
                 MATR_RIGI=KAS,
                 LIST_FREQ=FREQ,
                 EXCIT=_F(VECT_ASSE=VAS,
                          COEF_MULT=1.0,),);

DYNAH=CALC_CHAMP(reuse=DYNAH,RESULTAT=DYNAH,CONTRAINTE=('SIGM_ELNO'))


TEST_RESU(RESU=(_F(NUME_ORDRE=1,
                   GROUP_NO='A',
                   VALE_CALC_C=(7.3331306209167E-03+0j),
                   RESULTAT=DYNAH,
                   NOM_CHAM='DEPL',
                   NOM_CMP='DX',
                   CRITERE='RELATIF',
                   ),
                _F(NUME_ORDRE=1,
                   GROUP_NO='A',
                   VALE_CALC_C=0j,
                   RESULTAT=DYNAH,
                   NOM_CHAM='DEPL',
                   NOM_CMP='DY',
                   CRITERE='ABSOLU',
                   ),
                _F(NUME_ORDRE=1,
                   GROUP_NO='B',
                   VALE_CALC_C= 4.66343940E-03+ 0.00000000E+00j,
                   VALE_REFE_C=(0.0046715999999999997+0j),
                   REFERENCE='NON_DEFINI',
                   RESULTAT=DYNAH,
                   NOM_CHAM='DEPL',
                   NOM_CMP='DX',
                   CRITERE='RELATIF',
                   PRECISION=1.E-2,),
                _F(NUME_ORDRE=1,
                   GROUP_NO='B',
                   VALE_CALC_C=-6.76808768E-21+ 0.00000000E+00j,
                   VALE_REFE_C=0j,
                   REFERENCE='NON_DEFINI',
                   RESULTAT=DYNAH,
                   NOM_CHAM='DEPL',
                   NOM_CMP='DY',
                   CRITERE='ABSOLU',
                   PRECISION=1.E-2,),
                _F(NUME_ORDRE=1,
                   GROUP_NO='C',
                   VALE_CALC_C= 6.77834755E-03+ 0.00000000E+00j,
                   VALE_REFE_C=(0.00678109+0j),
                   REFERENCE='NON_DEFINI',
                   RESULTAT=DYNAH,
                   NOM_CHAM='DEPL',
                   NOM_CMP='DX',
                   CRITERE='RELATIF',
                   PRECISION=1.E-2,),
                _F(NUME_ORDRE=1,
                   GROUP_NO='C',
                   VALE_CALC_C= 2.80768422E-03+ 0.00000000E+00j,
                   VALE_REFE_C=(0.0028088200000000001+0j),
                   REFERENCE='NON_DEFINI',
                   RESULTAT=DYNAH,
                   NOM_CHAM='DEPL',
                   NOM_CMP='DY',
                   CRITERE='RELATIF',
                   PRECISION=1.E-2,),
                _F(NUME_ORDRE=1,
                   GROUP_NO='D',
                   VALE_CALC_C= 4.29602076E-03+ 0.00000000E+00j,
                   VALE_REFE_C=(0.0043252300000000002+0j),
                   REFERENCE='NON_DEFINI',
                   RESULTAT=DYNAH,
                   NOM_CHAM='DEPL',
                   NOM_CMP='DX',
                   CRITERE='RELATIF',
                   PRECISION=1.E-2,),
                _F(NUME_ORDRE=1,
                   GROUP_NO='D',
                   VALE_CALC_C= 1.77947016E-03+ 0.00000000E+00j,
                   VALE_REFE_C=(0.0017915699999999999+0j),
                   REFERENCE='NON_DEFINI',
                   RESULTAT=DYNAH,
                   NOM_CHAM='DEPL',
                   NOM_CMP='DY',
                   CRITERE='RELATIF',
                   PRECISION=1.E-2,),
                _F(NUME_ORDRE=1,
                   GROUP_NO='E',
                   VALE_CALC_C= 5.18530555E-03+ 0.00000000E+00j,
                   VALE_REFE_C=(0.00519002+0j),
                   REFERENCE='NON_DEFINI',
                   RESULTAT=DYNAH,
                   NOM_CHAM='DEPL',
                   NOM_CMP='DX',
                   CRITERE='RELATIF',
                   PRECISION=1.E-2,),
                _F(NUME_ORDRE=1,
                   GROUP_NO='E',
                   VALE_CALC_C= 5.18531142E-03+ 0.00000000E+00j,
                   VALE_REFE_C=(0.00519002+0j),
                   REFERENCE='NON_DEFINI',
                   RESULTAT=DYNAH,
                   NOM_CHAM='DEPL',
                   NOM_CMP='DY',
                   CRITERE='RELATIF',
                   PRECISION=1.E-2,),
                _F(NUME_ORDRE=1,
                   GROUP_NO='F',
                   VALE_CALC_C= 3.29755845E-03+ 0.00000000E+00j,
                   VALE_REFE_C=(0.0033103899999999999+0j),
                   REFERENCE='NON_DEFINI',
                   RESULTAT=DYNAH,
                   NOM_CHAM='DEPL',
                   NOM_CMP='DX',
                   CRITERE='RELATIF',
                   PRECISION=1.E-2,),
                _F(NUME_ORDRE=1,
                   GROUP_NO='F',
                   VALE_CALC_C= 3.29754912E-03+ 0.00000000E+00j,
                   VALE_REFE_C=(0.0033103899999999999+0j),
                   REFERENCE='NON_DEFINI',
                   RESULTAT=DYNAH,
                   NOM_CHAM='DEPL',
                   NOM_CMP='DY',
                   CRITERE='RELATIF',
                   PRECISION=1.E-2,),
                _F(NUME_ORDRE=1,
                   GROUP_NO='A',
                   VALE_CALC_C=-0.913975203+ 0.00000000E+00j,
                   VALE_REFE_C=(-1+0j),
                   REFERENCE='NON_DEFINI',
                   RESULTAT=DYNAH,
                   NOM_CHAM='SIGM_ELNO',
                   NOM_CMP='SIXX',
                   CRITERE='RELATIF',
                   PRECISION=0.089999999999999997,
                   MAILLE='MA305',),
                _F(NUME_ORDRE=1,
                   GROUP_NO='A',
                   VALE_CALC_C=1.662234927+ 0.00000000E+00j,
                   VALE_REFE_C=(1.6685000000000001+0j),
                   REFERENCE='NON_DEFINI',
                   RESULTAT=DYNAH,
                   NOM_CHAM='SIGM_ELNO',
                   NOM_CMP='SIYY',
                   CRITERE='RELATIF',
                   PRECISION=1.E-2,
                   MAILLE='MA305',),
                _F(NUME_ORDRE=1,
                   GROUP_NO='A',
                   VALE_CALC_C=0.224477917+ 0.00000000E+00j,
                   VALE_REFE_C=(0.20055000000000001+0j),
                   REFERENCE='NON_DEFINI',
                   RESULTAT=DYNAH,
                   NOM_CHAM='SIGM_ELNO',
                   NOM_CMP='SIZZ',
                   CRITERE='RELATIF',
                   PRECISION=0.12,
                   MAILLE='MA305',),
                _F(NUME_ORDRE=1,
                   GROUP_NO='A',
                   VALE_CALC_C=-0.096647020+ 0.00000000E+00j,
                   VALE_REFE_C=0j,
                   REFERENCE='NON_DEFINI',
                   RESULTAT=DYNAH,
                   NOM_CHAM='SIGM_ELNO',
                   NOM_CMP='SIXY',
                   CRITERE='ABSOLU',
                   PRECISION=0.10000000000000001,
                   MAILLE='MA305',),
                _F(NUME_ORDRE=1,
                   GROUP_NO='B',
                   VALE_CALC_C=-0.014107702+ 0.00000000E+00j,
                   VALE_REFE_C=0j,
                   REFERENCE='NON_DEFINI',
                   RESULTAT=DYNAH,
                   NOM_CHAM='SIGM_ELNO',
                   NOM_CMP='SIXX',
                   CRITERE='ABSOLU',
                   PRECISION=0.050000000000000003,
                   MAILLE='MA311',),
                _F(NUME_ORDRE=1,
                   GROUP_NO='B',
                   VALE_CALC_C=0.659659605+ 0.00000000E+00j,
                   VALE_REFE_C=(0.66737999999999997+0j),
                   REFERENCE='NON_DEFINI',
                   RESULTAT=DYNAH,
                   NOM_CHAM='SIGM_ELNO',
                   NOM_CMP='SIYY',
                   CRITERE='RELATIF',
                   PRECISION=0.050000000000000003,
                   MAILLE='MA311',),
                _F(NUME_ORDRE=1,
                   GROUP_NO='B',
                   VALE_CALC_C=0.193665571+ 0.00000000E+00j,
                   VALE_REFE_C=(0.20021+0j),
                   REFERENCE='NON_DEFINI',
                   RESULTAT=DYNAH,
                   NOM_CHAM='SIGM_ELNO',
                   NOM_CMP='SIZZ',
                   CRITERE='RELATIF',
                   PRECISION=0.050000000000000003,
                   MAILLE='MA311',),
                _F(NUME_ORDRE=1,
                   GROUP_NO='B',
                   VALE_CALC_C=-0.015713508+ 0.00000000E+00j,
                   VALE_REFE_C=0j,
                   REFERENCE='NON_DEFINI',
                   RESULTAT=DYNAH,
                   NOM_CHAM='SIGM_ELNO',
                   NOM_CMP='SIXY',
                   CRITERE='ABSOLU',
                   PRECISION=0.050000000000000003,
                   MAILLE='MA311',),
                _F(NUME_ORDRE=1,
                   GROUP_NO='C',
                   VALE_CALC_C=-0.432337074+ 0.00000000E+00j,
                   VALE_REFE_C=(-0.60921000000000003+0j),
                   REFERENCE='NON_DEFINI',
                   RESULTAT=DYNAH,
                   NOM_CHAM='SIGM_ELNO',
                   NOM_CMP='SIXX',
                   CRITERE='RELATIF',
                   PRECISION=0.29999999999999999,
                   MAILLE='MA355',),
                _F(NUME_ORDRE=1,
                   GROUP_NO='C',
                   VALE_CALC_C=1.246340694+ 0.00000000E+00j,
                   VALE_REFE_C=(1.2777099999999999+0j),
                   REFERENCE='NON_DEFINI',
                   RESULTAT=DYNAH,
                   NOM_CHAM='SIGM_ELNO',
                   NOM_CMP='SIYY',
                   CRITERE='RELATIF',
                   PRECISION=0.029999999999999999,
                   MAILLE='MA355',),
                _F(NUME_ORDRE=1,
                   GROUP_NO='C',
                   VALE_CALC_C=0.244201086+ 0.00000000E+00j,
                   VALE_REFE_C=(0.20055000000000001+0j),
                   REFERENCE='NON_DEFINI',
                   RESULTAT=DYNAH,
                   NOM_CHAM='SIGM_ELNO',
                   NOM_CMP='SIZZ',
                   CRITERE='RELATIF',
                   PRECISION=0.22,
                   MAILLE='MA355',),
                _F(NUME_ORDRE=1,
                   GROUP_NO='C',
                   VALE_CALC_C=-0.984929924+ 0.00000000E+00j,
                   VALE_REFE_C=(-0.94345999999999997+0j),
                   REFERENCE='NON_DEFINI',
                   RESULTAT=DYNAH,
                   NOM_CHAM='SIGM_ELNO',
                   NOM_CMP='SIXY',
                   CRITERE='RELATIF',
                   PRECISION=0.050000000000000003,
                   MAILLE='MA355',),
                _F(NUME_ORDRE=1,
                   GROUP_NO='D',
                   VALE_CALC_C=0.094723623+ 0.00000000E+00j,
                   VALE_REFE_C=(0.097739999999999994+0j),
                   REFERENCE='NON_DEFINI',
                   RESULTAT=DYNAH,
                   NOM_CHAM='SIGM_ELNO',
                   NOM_CMP='SIXX',
                   CRITERE='RELATIF',
                   PRECISION=0.040000000000000001,
                   MAILLE='MA357',),
                _F(NUME_ORDRE=1,
                   GROUP_NO='D',
                   VALE_CALC_C=0.546693989+ 0.00000000E+00j,
                   VALE_REFE_C=(0.56964000000000004+0j),
                   REFERENCE='NON_DEFINI',
                   RESULTAT=DYNAH,
                   NOM_CHAM='SIGM_ELNO',
                   NOM_CMP='SIYY',
                   CRITERE='RELATIF',
                   PRECISION=0.050000000000000003,
                   MAILLE='MA357',),
                _F(NUME_ORDRE=1,
                   GROUP_NO='D',
                   VALE_CALC_C=0.192425284+ 0.00000000E+00j,
                   VALE_REFE_C=(0.20021+0j),
                   REFERENCE='NON_DEFINI',
                   RESULTAT=DYNAH,
                   NOM_CHAM='SIGM_ELNO',
                   NOM_CMP='SIZZ',
                   CRITERE='RELATIF',
                   PRECISION=0.040000000000000001,
                   MAILLE='MA357',),
                _F(NUME_ORDRE=1,
                   GROUP_NO='D',
                   VALE_CALC_C=-0.249426559+ 0.00000000E+00j,
                   VALE_REFE_C=(-0.23594999999999999+0j),
                   REFERENCE='NON_DEFINI',
                   RESULTAT=DYNAH,
                   NOM_CHAM='SIGM_ELNO',
                   NOM_CMP='SIXY',
                   CRITERE='RELATIF',
                   PRECISION=0.059999999999999998,
                   MAILLE='MA357',),
                _F(NUME_ORDRE=1,
                   GROUP_NO='E',
                   VALE_CALC_C=0.277486072+ 0.00000000E+00j,
                   VALE_REFE_C=(0.33424999999999999+0j),
                   REFERENCE='NON_DEFINI',
                   RESULTAT=DYNAH,
                   NOM_CHAM='SIGM_ELNO',
                   NOM_CMP='SIXX',
                   CRITERE='RELATIF',
                   PRECISION=0.17000000000000001,
                   MAILLE='MA659',),
                _F(NUME_ORDRE=1,
                   GROUP_NO='E',
                   VALE_CALC_C=0.470778734+ 0.00000000E+00j,
                   VALE_REFE_C=(0.33424999999999999+0j),
                   REFERENCE='NON_DEFINI',
                   RESULTAT=DYNAH,
                   NOM_CHAM='SIGM_ELNO',
                   NOM_CMP='SIYY',
                   CRITERE='RELATIF',
                   PRECISION=0.40999999999999998,
                   MAILLE='MA659',),
                _F(NUME_ORDRE=1,
                   GROUP_NO='E',
                   VALE_CALC_C=0.224479442+ 0.00000000E+00j,
                   VALE_REFE_C=(0.20055000000000001+0j),
                   REFERENCE='NON_DEFINI',
                   RESULTAT=DYNAH,
                   NOM_CHAM='SIGM_ELNO',
                   NOM_CMP='SIZZ',
                   CRITERE='RELATIF',
                   PRECISION=0.12,
                   MAILLE='MA659',),
                _F(NUME_ORDRE=1,
                   GROUP_NO='E',
                   VALE_CALC_C=-1.288107947+ 0.00000000E+00j,
                   VALE_REFE_C=(-1.3342499999999999+0j),
                   REFERENCE='NON_DEFINI',
                   RESULTAT=DYNAH,
                   NOM_CHAM='SIGM_ELNO',
                   NOM_CMP='SIXY',
                   CRITERE='RELATIF',
                   PRECISION=0.040000000000000001,
                   MAILLE='MA659',),
                _F(NUME_ORDRE=1,
                   GROUP_NO='F',
                   VALE_CALC_C=0.307057317+ 0.00000000E+00j,
                   VALE_REFE_C=(0.33368999999999999+0j),
                   REFERENCE='NON_DEFINI',
                   RESULTAT=DYNAH,
                   NOM_CHAM='SIGM_ELNO',
                   NOM_CMP='SIXX',
                   CRITERE='RELATIF',
                   PRECISION=0.080000000000000002,
                   MAILLE='MA665',),
                _F(NUME_ORDRE=1,
                   GROUP_NO='F',
                   VALE_CALC_C=0.338474602+ 0.00000000E+00j,
                   VALE_REFE_C=(0.33368999999999999+0j),
                   REFERENCE='NON_DEFINI',
                   RESULTAT=DYNAH,
                   NOM_CHAM='SIGM_ELNO',
                   NOM_CMP='SIYY',
                   CRITERE='RELATIF',
                   PRECISION=0.02,
                   MAILLE='MA665',),
                _F(NUME_ORDRE=1,
                   GROUP_NO='F',
                   VALE_CALC_C=0.193659576+ 0.00000000E+00j,
                   VALE_REFE_C=(0.20021+0j),
                   REFERENCE='NON_DEFINI',
                   RESULTAT=DYNAH,
                   NOM_CHAM='SIGM_ELNO',
                   NOM_CMP='SIZZ',
                   CRITERE='RELATIF',
                   PRECISION=0.040000000000000001,
                   MAILLE='MA665',),
                _F(NUME_ORDRE=1,
                   GROUP_NO='F',
                   VALE_CALC_C=-0.33687191122148+0.0E+00j,
                   VALE_REFE_C=(-0.33368999999999999+0j),
                   REFERENCE='NON_DEFINI',
                   RESULTAT=DYNAH,
                   NOM_CHAM='SIGM_ELNO',
                   NOM_CMP='SIXY',
                   CRITERE='RELATIF',
                   PRECISION=1.E-2,
                   MAILLE='MA665',),
                ),
          )

#--------------------------------------------------------------------
FIN()
#
