# MODIF  DATE 30/07/2012   AUTEUR LEFEBVRE J-P.LEFEBVRE 
# TITRE REPONSE HARMONIQUE CYLINDRE EN D.P. (TRIA3 QUAD4) AXISYM
# shlv100h.para = tps_job 60 mem_job 256Mo ncpus 1 liste_test S
#            CONFIGURATION MANAGEMENT OF EDF VERSION
# ======================================================================
# COPYRIGHT (C) 1991 - 2012  EDF R&D                  WWW.CODE-ASTER.ORG
# THIS PROGRAM IS FREE SOFTWARE; YOU CAN REDISTRIBUTE IT AND/OR MODIFY
# IT UNDER THE TERMS OF THE GNU GENERAL PUBLIC LICENSE AS PUBLISHED BY
# THE FREE SOFTWARE FOUNDATION; EITHER VERSION 2 OF THE LICENSE, OR
# (AT YOUR OPTION) ANY LATER VERSION.
#
# THIS PROGRAM IS DISTRIBUTED IN THE HOPE THAT IT WILL BE USEFUL, BUT
# WITHOUT ANY WARRANTY; WITHOUT EVEN THE IMPLIED WARRANTY OF
# MERCHANTABILITY OR FITNESS FOR A PARTICULAR PURPOSE. SEE THE GNU
# GENERAL PUBLIC LICENSE FOR MORE DETAILS.
#
# YOU SHOULD HAVE RECEIVED A COPY OF THE GNU GENERAL PUBLIC LICENSE
# ALONG WITH THIS PROGRAM; IF NOT, WRITE TO EDF R&D CODE_ASTER,
#    1 AVENUE DU GENERAL DE GAULLE, 92141 CLAMART CEDEX, FRANCE.
# ======================================================================
#CAS_TEST__: SHLV100H
# ----------------------------------------------------------------------
# SHLV100 H               COMMANDES                            23/05/91
# CYLINDRE SOUS PRESSION INTERNE HARMONIQUE AVEC EXTREMITES BLOQUEES
# SOLUTION ANALYTIQUE EN DEFORMATIONS PLANES
#
#         ..                      JWT                JWT
# K X + M X   = P    AVEC  P = P E        ET  X = X E
#       2
# (K - W M) X = P    AVEC  W = 0.2 RD/S   ET  P = 1 MPA
#
# MODELISATION : ELEMENTS MECANIQUE AXIS (TRIA3+QUAD4)
# MAILLAGE     : ALIBABA ==> ASTER
#
# ----------------------------------------------------------------------
# GROUPES DE NOEUDS ET MAILLES:
# A=GRNO1  B=GRNO2  C=GRNO3  D=GRNO4  E=GRNO5  F=GRNO6
# NOEUDS(AB)=GRNM11          SEG(EF)=GRMA12    SEG(AE)=GRMA13
# ----------------------------------------------------------------------
#

DEBUT(CODE=_F(NOM='SHLV100H',NIV_PUB_WEB='INTERNET'),DEBUG=_F(SDVERI='OUI'))

M=LIRE_MAILLAGE(FORMAT='MED',   )

MO=AFFE_MODELE(        MAILLAGE=M,
                                AFFE=_F(  TOUT = 'OUI',
                                       PHENOMENE = 'MECANIQUE',
                                       MODELISATION = 'AXIS'))

MA=DEFI_MATERIAU(          ELAS=_F(  E = 26.,
                                       NU = 0.3,
                                       RHO = 35.,
                                       ALPHA = 0.))

CM=AFFE_MATERIAU(      MAILLAGE=M,
                                AFFE=_F(  TOUT = 'OUI',
                                       MATER = MA))

CH=AFFE_CHAR_MECA(       MODELE=MO,
                            DDL_IMPO=_F(  GROUP_NO = 'GRNM11',  DY = 0.),
                           FACE_IMPO=_F(  GROUP_MA = 'GRMA12',  DY = 0.),
                            PRES_REP=_F(  GROUP_MA = 'GRMA13',  PRES = 1.))

KE=CALC_MATR_ELEM(       MODELE=MO,
                              CHARGE=CH,
                          CHAM_MATER=CM,
                              OPTION='RIGI_MECA'                      )

ME=CALC_MATR_ELEM(       MODELE=MO,
                              CHARGE=CH,
                          CHAM_MATER=CM,
                              OPTION='MASS_MECA'                      )

VE=CALC_VECT_ELEM(       CHARGE=CH,
                          CHAM_MATER=CM,
                              OPTION='CHAR_MECA'                      )

NU=NUME_DDL(          MATR_RIGI=KE                               )

KAS=ASSE_MATRICE(      MATR_ELEM=KE,
                            NUME_DDL=NU                               )

MAS=ASSE_MATRICE(      MATR_ELEM=ME,
                             NUME_DDL=NU                  )

VAS=ASSE_VECTEUR(      VECT_ELEM=VE,
                            NUME_DDL=NU                               )

KHA=COMB_MATR_ASSE( COMB_R=(      _F(  MATR_ASSE = KAS, COEF_R = 1.),
                              _F(  MATR_ASSE = MAS, COEF_R = -.04)))

KHA=FACTORISER(      reuse=KHA,   MATR_ASSE=KHA                              )

DEPLA=RESOUDRE(         MATR=KHA,
                             CHAM_NO=VAS                              )

DEP=CREA_RESU(OPERATION='AFFE',
              TYPE_RESU='EVOL_ELAS',
              NOM_CHAM='DEPL',
              AFFE=_F(CHAM_GD=DEPLA,
                      INST=0.,
                      MODELE=MO,
                      CHAM_MATER=CM),
                );


DEP=CALC_CHAMP(reuse=DEP,RESULTAT=DEP,CONTRAINTE=('SIGM_ELNO'),INST=0.)


TEST_RESU(CHAM_NO=(
   # DEPLACEMENTS

            _F(  CHAM_GD = DEPLA,    CRITERE = 'RELATIF',  PRECISION = 1.E-3,
           GROUP_NO = 'A',        NOM_CMP = 'DX',           VALE = 7.3398E-3),
            _F(  CHAM_GD = DEPLA,    CRITERE = 'ABSOLU',   PRECISION = 1.E-10,
           GROUP_NO = 'A',        NOM_CMP = 'DY',           VALE = 0.),
            _F(  CHAM_GD = DEPLA,    CRITERE = 'RELATIF',  PRECISION = 1.E-3,
           GROUP_NO = 'B',        NOM_CMP = 'DX',           VALE = 4.6716E-3),
            _F(  CHAM_GD = DEPLA,    CRITERE = 'ABSOLU',   PRECISION = 1.E-3,
           GROUP_NO = 'B',        NOM_CMP = 'DY',           VALE = 0.),
            _F(  CHAM_GD = DEPLA,    CRITERE = 'RELATIF',  PRECISION = 1.E-3,
           GROUP_NO = 'C',        NOM_CMP = 'DX',           VALE = 7.3398E-3),
            _F(  CHAM_GD = DEPLA,    CRITERE = 'ABSOLU',   PRECISION = 1.E-10,
           GROUP_NO = 'C',        NOM_CMP = 'DY',           VALE = 0.),
            _F(  CHAM_GD = DEPLA,    CRITERE = 'RELATIF',  PRECISION = 1.E-3,
           GROUP_NO = 'D',        NOM_CMP = 'DX',           VALE = 4.6716E-3),
            _F(  CHAM_GD = DEPLA,    CRITERE = 'ABSOLU',   PRECISION = 1.E-3,
           GROUP_NO = 'D',        NOM_CMP = 'DY',           VALE = 0.),
            _F(  CHAM_GD = DEPLA,    CRITERE = 'RELATIF',  PRECISION = 1.E-3,
           GROUP_NO = 'E',        NOM_CMP = 'DX',           VALE = 7.3398E-3),
            _F(  CHAM_GD = DEPLA,    CRITERE = 'ABSOLU',   PRECISION = 1.E-10,
           GROUP_NO = 'E',        NOM_CMP = 'DY',           VALE = 0.),
            _F(  CHAM_GD = DEPLA,    CRITERE = 'RELATIF',  PRECISION = 1.E-3,
           GROUP_NO = 'F',        NOM_CMP = 'DX',           VALE = 4.6716E-3),
            _F(  CHAM_GD = DEPLA,    CRITERE = 'ABSOLU',   PRECISION = 1.E-3,
           GROUP_NO = 'F',        NOM_CMP = 'DY',           VALE = 0.)),RESU=(


   # CONTRAINTES


            _F(  RESULTAT = DEP, INST=0., NOM_CHAM='SIGM_ELNO',
            CRITERE = 'RELATIF',  PRECISION = 0.06,
MAILLE = 'M119',   GROUP_NO = 'A',        NOM_CMP = 'SIXX',         VALE = -1.),
            _F(  RESULTAT = DEP, INST=0., NOM_CHAM='SIGM_ELNO',
            CRITERE = 'RELATIF',  PRECISION = 0.13,
MAILLE = 'M119',   GROUP_NO = 'A',        NOM_CMP = 'SIYY',         VALE = 0.20055),
            _F(  RESULTAT = DEP, INST=0., NOM_CHAM='SIGM_ELNO',
            CRITERE = 'RELATIF',  PRECISION = 0.02,
MAILLE = 'M119',   GROUP_NO = 'A',        NOM_CMP = 'SIZZ',         VALE = 1.6685),
            _F(  RESULTAT = DEP, INST=0., NOM_CHAM='SIGM_ELNO',
            CRITERE = 'ABSOLU',   PRECISION = 1.E-3,
MAILLE = 'M119',   GROUP_NO = 'A',        NOM_CMP = 'SIXY',         VALE = 0.),
#
            _F(  RESULTAT = DEP, INST=0., NOM_CHAM='SIGM_ELNO',
            CRITERE = 'ABSOLU',   PRECISION = 2.E-2,
MAILLE = 'M1',      GROUP_NO = 'B',        NOM_CMP = 'SIXX',        VALE = 0.),
            _F(  RESULTAT = DEP, INST=0., NOM_CHAM='SIGM_ELNO',
            CRITERE = 'RELATIF',  PRECISION = 4.E-2,
MAILLE = 'M1',      GROUP_NO = 'B',        NOM_CMP = 'SIYY',        VALE = 0.20021),
            _F(  RESULTAT = DEP, INST=0., NOM_CHAM='SIGM_ELNO',
            CRITERE = 'RELATIF',  PRECISION = 1.3E-2,
MAILLE = 'M1',      GROUP_NO = 'B',        NOM_CMP = 'SIZZ',        VALE = 0.66738),
            _F(  RESULTAT = DEP, INST=0., NOM_CHAM='SIGM_ELNO',
            CRITERE = 'ABSOLU',   PRECISION = 1.E-2,
MAILLE = 'M1',      GROUP_NO = 'B',        NOM_CMP = 'SIXY',        VALE = 0.),
#
            _F(  RESULTAT = DEP, INST=0., NOM_CHAM='SIGM_ELNO',
            CRITERE = 'RELATIF',  PRECISION = 0.06,
MAILLE = 'M119',   GROUP_NO = 'C',        NOM_CMP = 'SIXX',         VALE = -1.),
            _F(  RESULTAT = DEP, INST=0., NOM_CHAM='SIGM_ELNO',
            CRITERE = 'RELATIF',  PRECISION = 0.13,
MAILLE = 'M119',   GROUP_NO = 'C',        NOM_CMP = 'SIYY',         VALE = 0.20055),
            _F(  RESULTAT = DEP, INST=0., NOM_CHAM='SIGM_ELNO',
            CRITERE = 'RELATIF',  PRECISION = 0.02,
MAILLE = 'M119',   GROUP_NO = 'C',        NOM_CMP = 'SIZZ',         VALE = 1.6685),
            _F(  RESULTAT = DEP, INST=0., NOM_CHAM='SIGM_ELNO',
            CRITERE = 'ABSOLU',   PRECISION = 1.E-3,
MAILLE = 'M119',   GROUP_NO = 'C',        NOM_CMP = 'SIXY',         VALE = 0.),
#
            _F(  RESULTAT = DEP, INST=0., NOM_CHAM='SIGM_ELNO',
            CRITERE = 'ABSOLU',   PRECISION = 1.E-2,
MAILLE = 'M2',      GROUP_NO = 'D',        NOM_CMP = 'SIXX',        VALE = 0.),
            _F(  RESULTAT = DEP, INST=0., NOM_CHAM='SIGM_ELNO',
            CRITERE = 'RELATIF',  PRECISION = 2.E-2,
MAILLE = 'M2',      GROUP_NO = 'D',        NOM_CMP = 'SIYY',        VALE = 0.20021),
            _F(  RESULTAT = DEP, INST=0., NOM_CHAM='SIGM_ELNO',
            CRITERE = 'RELATIF',  PRECISION = 5.E-3,
MAILLE = 'M2',      GROUP_NO = 'D',        NOM_CMP = 'SIZZ',        VALE = 0.66738),
            _F(  RESULTAT = DEP, INST=0., NOM_CHAM='SIGM_ELNO',
            CRITERE = 'ABSOLU',   PRECISION = 1.E-3,
MAILLE = 'M2',      GROUP_NO = 'D',        NOM_CMP = 'SIXY',        VALE = 0.),
#
            _F(  RESULTAT = DEP, INST=0., NOM_CHAM='SIGM_ELNO',
            CRITERE = 'RELATIF',  PRECISION = 0.06,
MAILLE = 'M120',   GROUP_NO = 'E',        NOM_CMP = 'SIXX',         VALE = -1.),
            _F(  RESULTAT = DEP, INST=0., NOM_CHAM='SIGM_ELNO',
            CRITERE = 'RELATIF',  PRECISION = 0.13,
MAILLE = 'M120',   GROUP_NO = 'E',        NOM_CMP = 'SIYY',         VALE = 0.20055),
            _F(  RESULTAT = DEP, INST=0., NOM_CHAM='SIGM_ELNO',
            CRITERE = 'RELATIF',  PRECISION = 0.02,
MAILLE = 'M120',   GROUP_NO = 'E',        NOM_CMP = 'SIZZ',         VALE = 1.6685),
            _F(  RESULTAT = DEP, INST=0., NOM_CHAM='SIGM_ELNO',
            CRITERE = 'ABSOLU',   PRECISION = 1.E-3,
MAILLE = 'M120',   GROUP_NO = 'E',        NOM_CMP = 'SIXY',         VALE = 0.),
#
            _F(  RESULTAT = DEP, INST=0., NOM_CHAM='SIGM_ELNO',
            CRITERE = 'ABSOLU',   PRECISION = 1.E-2,
MAILLE = 'M5',      GROUP_NO = 'F',        NOM_CMP = 'SIXX',        VALE = 0.),
            _F(  RESULTAT = DEP, INST=0., NOM_CHAM='SIGM_ELNO',
            CRITERE = 'RELATIF',  PRECISION = 2.E-2,
MAILLE = 'M5',      GROUP_NO = 'F',        NOM_CMP = 'SIYY',        VALE = 0.20021),
            _F(  RESULTAT = DEP, INST=0., NOM_CHAM='SIGM_ELNO',
            CRITERE = 'RELATIF',  PRECISION = 1.E-2,
MAILLE = 'M5',      GROUP_NO = 'F',        NOM_CMP = 'SIZZ',        VALE = 0.66738),
            _F(  RESULTAT = DEP, INST=0., NOM_CHAM='SIGM_ELNO',
            CRITERE = 'ABSOLU',   PRECISION = 1.E-3,
MAILLE = 'M5',      GROUP_NO = 'F',        NOM_CMP = 'SIXY',        VALE = 0.))
#

            )

FIN()
#
