# MODIF  DATE 09/05/2005   AUTEUR SMICHEL S.MICHEL-PONNELLE 
# TITRE : CALCUL DU RETRAIT DE DESSICCATION ET D'HYDRATATION 
#            CONFIGURATION MANAGEMENT OF EDF VERSION
# ======================================================================
# COPYRIGHT (C) 1991 - 2005  EDF R&D                  WWW.CODE-ASTER.ORG
# THIS PROGRAM IS FREE SOFTWARE; YOU CAN REDISTRIBUTE IT AND/OR MODIFY  
# IT UNDER THE TERMS OF THE GNU GENERAL PUBLIC LICENSE AS PUBLISHED BY  
# THE FREE SOFTWARE FOUNDATION; EITHER VERSION 2 OF THE LICENSE, OR     
# (AT YOUR OPTION) ANY LATER VERSION.                                                    
#                                                                       
# THIS PROGRAM IS DISTRIBUTED IN THE HOPE THAT IT WILL BE USEFUL, BUT   
# WITHOUT ANY WARRANTY; WITHOUT EVEN THE IMPLIED WARRANTY OF            
# MERCHANTABILITY OR FITNESS FOR A PARTICULAR PURPOSE. SEE THE GNU      
# GENERAL PUBLIC LICENSE FOR MORE DETAILS.                              
#                                                                       
# YOU SHOULD HAVE RECEIVED A COPY OF THE GNU GENERAL PUBLIC LICENSE     
# ALONG WITH THIS PROGRAM; IF NOT, WRITE TO EDF R&D CODE_ASTER,         
#    1 AVENUE DU GENERAL DE GAULLE, 92141 CLAMART CEDEX, FRANCE.        
# ======================================================================
#       SUR UN CYLINDRE  - COUPLAGE ENDO_ISOT_BETON/BETON_UMLV_FP


DEBUT(CODE=_F(NOM='SSLA103F',
              NIV_PUB_WEB='INTERNET',),);

PRE_GIBI();

M=LIRE_MAILLAGE();

MO=AFFE_MODELE(MAILLAGE=M,
               AFFE=_F(TOUT='OUI',
                       PHENOMENE='MECANIQUE',
                       MODELISATION='AXIS',),);

E=DEFI_CONSTANTE(VALE= 3.E10)

NU=DEFI_CONSTANTE(VALE= 0.2)

ALPHA=DEFI_CONSTANTE(VALE= 1.E-5)

FONC1=DEFI_FONCTION( NOM_PARA='SECH',
                     PROL_DROITE='LINEAIRE',
                     PROL_GAUCHE='LINEAIRE',
                     VALE=(0.0, 0.0, 100.0, 1.0,)
                   )
                   
BETON=DEFI_MATERIAU(ELAS_FO=_F(E=E,
                               NU=NU,
                               K_DESSIC=1.66E-5,
                               B_ENDOGE = 1.5E-5,
                               ALPHA=ALPHA,
                               TEMP_DEF_ALPHA=20,
                               FONC_DESORP = FONC1,),
                    BETON_ECRO_LINE=_F( SYT = 4.E6,
                                        D_SIGM_EPSI = -10.E9,
                                        SYC = 53.4E6),
                   BETON_UMLV_FP=_F( K_RS   = 1.E25,
                                     ETA_RS = 1.E25,
                                     K_IS   = 1.E25,
                                     ETA_IS = 1.E25,
                                     K_RD   = 1.E25,
                                     ETA_RD = 1.E25,
                                     ETA_ID = 1.E25 ,)
                       )          

CM=AFFE_MATERIAU(MAILLAGE=M,
                 AFFE=_F(TOUT='OUI',
                         MATER=BETON,
                         TEMP_REF=20.0,
                         SECH_REF=100.),);

SECHI=CREA_CHAMP(TYPE_CHAM='NOEU_TEMP_R',
                OPERATION='AFFE',
                MAILLAGE=M,
                AFFE=_F(TOUT='OUI',
                        NOM_CMP='TEMP',
                        VALE=100.),);

SECHF=CREA_CHAMP(TYPE_CHAM='NOEU_TEMP_R',
                OPERATION='AFFE',
                MAILLAGE=M,
                AFFE=_F(TOUT='OUI',
                        NOM_CMP='TEMP',
                        VALE=80.),);

SECH1=CREA_RESU(OPERATION='AFFE',
                TYPE_RESU='EVOL_THER',
                NOM_CHAM='TEMP',
                AFFE=(
               _F(CHAM_GD=SECHI,
                   INST=0.0,),
                _F(CHAM_GD=SECHF,
                   INST=3600.0,),   ),);

TEMPI=CREA_CHAMP(TYPE_CHAM='NOEU_TEMP_R',
                OPERATION='AFFE',
                MAILLAGE=M,
                AFFE=_F(TOUT='OUI',
                        NOM_CMP='TEMP',
                        VALE=20.0,),);

TEMPF=CREA_CHAMP(TYPE_CHAM='NOEU_TEMP_R',
                OPERATION='AFFE',
                MAILLAGE=M,
                AFFE=_F(TOUT='OUI',
                        NOM_CMP='TEMP',
                        VALE=120.0,),);

TEMP1=CREA_RESU(OPERATION='AFFE',
                TYPE_RESU='EVOL_THER',
                NOM_CHAM='TEMP',
                AFFE=(
                _F(CHAM_GD=TEMPI,
                   INST=0.0,),
                 _F(CHAM_GD=TEMPF,
                   INST=3600.0,),   ),);

HYDRI=CREA_CHAMP(TYPE_CHAM='ELGA_HYDR_R',
                OPERATION='AFFE',
                MODELE = MO,
                AFFE=_F(TOUT='OUI',
                        NOM_CMP='HYDR',
                        VALE=0.0,),);

HYDRF=CREA_CHAMP(TYPE_CHAM='ELGA_HYDR_R',
                OPERATION='AFFE',
                MODELE = MO,
                AFFE=_F(TOUT='OUI',
                        NOM_CMP='HYDR',
                        VALE=1.0,),);
                        
HYDR1=CREA_RESU(OPERATION='AFFE',
                TYPE_RESU='EVOL_THER',
                NOM_CHAM='HYDR_ELGA',
                AFFE=(
                _F(CHAM_GD=HYDRI,
                   INST=0.0,),
                _F(CHAM_GD=HYDRF,
                   INST=3600.0,  ),),);


CH1=AFFE_CHAR_MECA(MODELE=MO,
                   FACE_IMPO=_F(GROUP_MA='D1',
                                DY=0.0,),);
                                
CH2=AFFE_CHAR_MECA(MODELE=MO,
                   TEMP_CALCULEE=TEMP1,
                   SECH_CALCULEE=SECH1,
                   HYDR_CALCULEE=HYDR1);

L_INST=DEFI_LIST_REEL(DEBUT=0.0,
                      INTERVALLE=_F(JUSQU_A=3600.0,
                                     NOMBRE=2,  ),);

U=STAT_NON_LINE( MODELE=MO,
                CHAM_MATER=CM,
                EXCIT=(_F(CHARGE=CH1,),
                       _F(CHARGE=CH2,),),
                COMP_INCR=_F(RELATION = 'KIT_DDI',
                             RELATION_KIT=('BETON_UMLV_FP','ENDO_ISOT_BETON'),),
                 INCREMENT=_F(LIST_INST=L_INST,),
                NEWTON=_F(MATRICE='TANGENTE',
                          REAC_ITER=1,),
                CONVERGENCE=_F(RESI_GLOB_MAXI=1e-06,
                               ITER_GLOB_MAXI=25,
                               ITER_INTE_MAXI=100,),);
U=CALC_ELEM(reuse =U,
             RESULTAT = U,
             OPTION=('EPSI_ELNO_DEPL','EPSP_ELNO','SIEF_ELNO_ELGA','VARI_ELNO_ELGA'),         )

U=CALC_NO(reuse =U,
             RESULTAT = U,
             OPTION=('EPSI_NOEU_DEPL','SIEF_NOEU_ELGA','EPSP_NOEU','VARI_NOEU_ELGA'),         )

TEST_RESU(RESU=(
  _F(  RESULTAT = U,  NOM_CHAM = 'EPSI_NOEU_DEPL', INST = 3600.,
         NOM_CMP = 'EPXX',   NOEUD = 'N5',
         PRECISION = 5.E-3,  REFERENCE = 'ANALYTIQUE',
         VALE = 6.53E-4),
  _F(  RESULTAT = U,  NOM_CHAM = 'EPSI_NOEU_DEPL', INST = 3600.,
         NOM_CMP = 'EPYY',   NOEUD = 'N5',
         PRECISION = 5.E-3,  REFERENCE = 'ANALYTIQUE',
         VALE = 6.53E-4),
  _F(  RESULTAT = U,  NOM_CHAM = 'SIEF_NOEU_ELGA', INST = 3600.,
         NOM_CMP = 'SIXX',   NOEUD = 'N5',
         PRECISION = 1.E-6,  REFERENCE = 'ANALYTIQUE',
         VALE = 0.,CRITERE = 'ABSOLU'),
  _F(  RESULTAT = U,  NOM_CHAM = 'SIEF_NOEU_ELGA', INST = 3600.,
         NOM_CMP = 'SIYY',   NOEUD = 'N5',
         PRECISION = 1.E-6,  REFERENCE = 'ANALYTIQUE',
         VALE = 0., CRITERE = 'ABSOLU'),
  _F(  RESULTAT = U,  NOM_CHAM = 'EPSP_NOEU', INST = 3600.,
         NOM_CMP = 'EPXX',   NOEUD = 'N5',
         PRECISION = 1.E-6,  REFERENCE = 'ANALYTIQUE',
         VALE = 0.,CRITERE = 'ABSOLU'),
  _F(  RESULTAT = U,  NOM_CHAM = 'EPSP_NOEU', INST = 3600.,
         NOM_CMP = 'EPYY',   NOEUD = 'N5',
         PRECISION = 1.E-6,  REFERENCE = 'ANALYTIQUE',
         VALE = 0., CRITERE = 'ABSOLU'),
  _F(  RESULTAT = U,  NOM_CHAM = 'VARI_NOEU_ELGA', INST = 3600.,
         NOM_CMP = 'V22',   NOEUD = 'N5',
         PRECISION = 1.E-6,  REFERENCE = 'ANALYTIQUE',
         VALE = 0., CRITERE = 'ABSOLU'),
                  ));
                
                    
FIN();

