
# MODIF  DATE 28/03/2007   AUTEUR PELLET J.PELLET 
# TITRE CALCUL DU RETRAIT DE DESSICCATION SUR UN CYLINDRE
#            CONFIGURATION MANAGEMENT OF EDF VERSION
# ======================================================================
# COPYRIGHT (C) 1991 - 2004  EDF R&D                  WWW.CODE-ASTER.ORG
# THIS PROGRAM IS FREE SOFTWARE; YOU CAN REDISTRIBUTE IT AND/OR MODIFY
# IT UNDER THE TERMS OF THE GNU GENERAL PUBLIC LICENSE AS PUBLISHED BY
# THE FREE SOFTWARE FOUNDATION; EITHER VERSION 2 OF THE LICENSE, OR
# (AT YOUR OPTION) ANY LATER VERSION.
#
# THIS PROGRAM IS DISTRIBUTED IN THE HOPE THAT IT WILL BE USEFUL, BUT
# WITHOUT ANY WARRANTY; WITHOUT EVEN THE IMPLIED WARRANTY OF
# MERCHANTABILITY OR FITNESS FOR A PARTICULAR PURPOSE. SEE THE GNU
# GENERAL PUBLIC LICENSE FOR MORE DETAILS.
#
# YOU SHOULD HAVE RECEIVED A COPY OF THE GNU GENERAL PUBLIC LICENSE
# ALONG WITH THIS PROGRAM; IF NOT, WRITE TO EDF R&D CODE_ASTER,
#    1 AVENUE DU GENERAL DE GAULLE, 92141 CLAMART CEDEX, FRANCE.
# ======================================================================
#        ET D'HYDRATATION - LOI MAZARS NON LOCALE
# ======================================================================

DEBUT(CODE=_F(NOM='SSLA103D',
              NIV_PUB_WEB='INTERNET',),);

M=LIRE_MAILLAGE();

MO=AFFE_MODELE(MAILLAGE=M,
               AFFE=_F(TOUT='OUI',
                              PHENOMENE='MECANIQUE',
                              MODELISATION='3D_GRAD_EPSI',),
                              );

E=DEFI_FONCTION(NOM_PARA='SECH',
                VALE=( 80.,  3.E10,
                      100. , 1.E10),)

NU=DEFI_FONCTION(NOM_PARA='HYDR',
                VALE=(  0.,  0.15,
                        1,   0.25),)

ALPHA=DEFI_CONSTANTE(VALE= 1.E-5)

EPSD0=DEFI_CONSTANTE(VALE=1.E-4,);

AT=DEFI_FONCTION(NOM_PARA='SECH',
                VALE=( 80., 0.8,
                      100., 0.6),)

BT=DEFI_FONCTION(NOM_PARA='HYDR',
                VALE=(  0., 10000.,
                        1., 11000.),)

AC   =DEFI_CONSTANTE(VALE = 1.4)

BC   =DEFI_CONSTANTE(VALE = 2000.)

BETON=DEFI_MATERIAU(ELAS_FO=_F(E=E,
                               NU=NU,
                               K_DESSIC =1.66E-5,
                               B_ENDOGE = 1.5E-5,
                               TEMP_DEF_ALPHA = 20.,
                               ALPHA=ALPHA),
                    NON_LOCAL = _F(LONG_CARA=0.0,),
                    MAZARS_FO  =_F(BETA = 1.06,
                                   EPSD0= EPSD0,
                                   AC   = AC,
                                   AT   = AT,
                                   BC   = BC,
                                   BT   = BT),)

SECHI=CREA_CHAMP(TYPE_CHAM='NOEU_TEMP_R',
                 OPERATION='AFFE',
                 MAILLAGE=M,
                 AFFE=_F(TOUT='OUI',
                         NOM_CMP='TEMP',
                         VALE=100.,),);

SECHF=CREA_CHAMP(TYPE_CHAM='NOEU_TEMP_R',
                 OPERATION='AFFE',
                 MAILLAGE=M,
                 AFFE=_F(TOUT='OUI',
                         NOM_CMP='TEMP',
                         VALE=80.0,),);

SECH1=CREA_RESU(OPERATION='AFFE',
                TYPE_RESU='EVOL_THER',
                NOM_CHAM='TEMP',
                AFFE=(
                _F(CHAM_GD=SECHI,
                   INST=0.0,),
                _F(CHAM_GD=SECHF,
                   INST=3600.0,),),);

TEMPI=CREA_CHAMP(TYPE_CHAM='NOEU_TEMP_R',
                OPERATION='AFFE',
                MAILLAGE=M,
                AFFE=_F(TOUT='OUI',
                        NOM_CMP='TEMP',
                        VALE=20.0,),);
TEMPF=CREA_CHAMP(TYPE_CHAM='NOEU_TEMP_R',
                OPERATION='AFFE',
                MAILLAGE=M,
                AFFE=_F(TOUT='OUI',
                        NOM_CMP='TEMP',
                        VALE=120.0,),);

TEMP1=CREA_RESU(OPERATION='AFFE',
                TYPE_RESU='EVOL_THER',
                NOM_CHAM='TEMP',
                AFFE=(
                _F(CHAM_GD=TEMPI,
                   INST=0.0,),
                _F(CHAM_GD=TEMPF,
                   INST=3600.0,),   ),);

HYDRI=CREA_CHAMP(TYPE_CHAM='NOEU_HYDR_R',
                OPERATION='AFFE',
                MODELE = MO,
                AFFE=_F(MAILLE='M1',
                        NOM_CMP='HYDR',
                        VALE=0.0,),);

HYDRF=CREA_CHAMP(TYPE_CHAM='NOEU_HYDR_R',
                OPERATION='AFFE',
                MODELE = MO,
                AFFE=_F(MAILLE='M1',
                        NOM_CMP='HYDR',
                        VALE=1.0,),);

HYDR1=CREA_RESU(OPERATION='AFFE',
                TYPE_RESU='EVOL_THER',
                NOM_CHAM='HYDR_NOEU_ELGA',
                AFFE=(
                _F(CHAM_GD=HYDRI,
                   INST=0.0,),
                _F(CHAM_GD=HYDRF,
                   INST=3600.0,  ),),);

CM=AFFE_MATERIAU(MAILLAGE=M,
                 AFFE=_F(TOUT='OUI',
                         MATER=BETON,),
                 AFFE_VARC=(_F(TOUT='OUI',EVOL=HYDR1,NOM_VARC='HYDR',NOM_CHAM='HYDR_NOEU_ELGA'),
                            _F(TOUT='OUI',EVOL=SECH1,NOM_VARC='SECH',NOM_CHAM='TEMP',VALE_REF=100),
                            _F(TOUT='OUI',EVOL=TEMP1,NOM_VARC='TEMP',NOM_CHAM='TEMP',VALE_REF=20),),);

CH1=AFFE_CHAR_MECA(MODELE=MO,
                   FACE_IMPO=(_F(GROUP_MA='FACEXY',
                                DZ=0.0,),
                             _F(GROUP_MA='FACEYZ',
                                DX=0.0,),
                             _F(GROUP_MA='FACEXZ',
                                DY=0.0,),),);

L_INST=DEFI_LIST_REEL(DEBUT=0.0,
                      INTERVALLE=_F(JUSQU_A=3600.0,
                                     NOMBRE=20,  ),);

U=STAT_NON_LINE(MODELE=MO,
                CHAM_MATER=CM,
                EXCIT=_F(CHARGE=CH1,),
                COMP_INCR=_F(RELATION='MAZARS',
                             ITER_INTE_MAXI=100,),
                INCREMENT=_F(LIST_INST=L_INST,),
                NEWTON=_F(MATRICE='TANGENTE',
                          REAC_ITER=1,),
                CONVERGENCE=_F(RESI_GLOB_MAXI=1e-06,
                               ITER_GLOB_MAXI=25),);

U=CALC_ELEM(reuse =U,
            MODELE=MO,
            CHAM_MATER=CM,
            RESULTAT=U,
            OPTION=('EPSI_ELNO_DEPL','EPSP_ELNO','SIEF_ELNO_ELGA','VARI_ELNO_ELGA'),
            EXCIT=_F(CHARGE=CH1,),);

U=CALC_NO(reuse =U,
          RESULTAT=U,
          OPTION=('EPSI_NOEU_DEPL','EPSP_NOEU','SIEF_NOEU_ELGA','VARI_NOEU_ELGA'),
          CHAM_MATER=CM,);

TEST_RESU(RESU=(
  _F(  RESULTAT = U,  NOM_CHAM = 'EPSI_NOEU_DEPL', INST = 3600.,
         NOM_CMP = 'EPXX',   NOEUD = 'N5',
         PRECISION = 5.E-3,  REFERENCE = 'ANALYTIQUE',
         VALE = 6.53E-4),
  _F(  RESULTAT = U,  NOM_CHAM = 'EPSI_NOEU_DEPL', INST = 3600.,
         NOM_CMP = 'EPYY',   NOEUD = 'N5',
         PRECISION = 5.E-3,  REFERENCE = 'ANALYTIQUE',
         VALE = 6.53E-4),
  _F(  RESULTAT = U,  NOM_CHAM = 'SIEF_NOEU_ELGA', INST = 3600.,
         NOM_CMP = 'SIXX',   NOEUD = 'N5',
         PRECISION = 1.E-6,  REFERENCE = 'ANALYTIQUE',
         VALE = 0.,CRITERE = 'ABSOLU'),
  _F(  RESULTAT = U,  NOM_CHAM = 'SIEF_NOEU_ELGA', INST = 3600.,
         NOM_CMP = 'SIYY',   NOEUD = 'N5',
         PRECISION = 1.E-6,  REFERENCE = 'ANALYTIQUE',
         VALE = 0., CRITERE = 'ABSOLU'),
  _F(  RESULTAT = U,  NOM_CHAM = 'EPSP_NOEU', INST = 3600.,
         NOM_CMP = 'EPXX',   NOEUD = 'N5',
         PRECISION = 1.E-6,  REFERENCE = 'ANALYTIQUE',
         VALE = 0.,CRITERE = 'ABSOLU'),
  _F(  RESULTAT = U,  NOM_CHAM = 'EPSP_NOEU', INST = 3600.,
         NOM_CMP = 'EPYY',   NOEUD = 'N5',
         PRECISION = 1.E-6,  REFERENCE = 'ANALYTIQUE',
         VALE = 0., CRITERE = 'ABSOLU'),
  _F(  RESULTAT = U,  NOM_CHAM = 'VARI_NOEU_ELGA', INST = 3600.,
         NOM_CMP = 'V1',   NOEUD = 'N5',
         PRECISION = 1.E-6,  REFERENCE = 'ANALYTIQUE',
         VALE = 0., CRITERE = 'ABSOLU'),
                  ));

FIN();

