# MODIF  DATE 20/10/2011   AUTEUR SELLENET N.SELLENET 
# TITRE BIBLIO_73 FISSURE RADIALE INTERNE A L'INTERFACE D'UN BIMATERIAU
#            CONFIGURATION MANAGEMENT OF EDF VERSION
# ======================================================================
# COPYRIGHT (C) 1991 - 2011  EDF R&D                  WWW.CODE-ASTER.ORG
# THIS PROGRAM IS FREE SOFTWARE; YOU CAN REDISTRIBUTE IT AND/OR MODIFY
# IT UNDER THE TERMS OF THE GNU GENERAL PUBLIC LICENSE AS PUBLISHED BY
# THE FREE SOFTWARE FOUNDATION; EITHER VERSION 2 OF THE LICENSE, OR   
# (AT YOUR OPTION) ANY LATER VERSION.                                 
#
# THIS PROGRAM IS DISTRIBUTED IN THE HOPE THAT IT WILL BE USEFUL, BUT 
# WITHOUT ANY WARRANTY; WITHOUT EVEN THE IMPLIED WARRANTY OF          
# MERCHANTABILITY OR FITNESS FOR A PARTICULAR PURPOSE. SEE THE GNU    
# GENERAL PUBLIC LICENSE FOR MORE DETAILS.                            
#
# YOU SHOULD HAVE RECEIVED A COPY OF THE GNU GENERAL PUBLIC LICENSE   
# ALONG WITH THIS PROGRAM; IF NOT, WRITE TO EDF R&D CODE_ASTER,       
#    1 AVENUE DU GENERAL DE GAULLE, 92141 CLAMART CEDEX, FRANCE.      
# ======================================================================
#  BARREAU CYLINDRIQUE SOUMIS A LA PRESSION OU 2 FORCES CONCENTREES
#  SUR LES LEVRES DE LA FISSURE
#

DEBUT( CODE=_F( NOM = 'SSLA310A',NIV_PUB_WEB='INTERNET'))

MA=LIRE_MAILLAGE(VERI_MAIL=_F(VERIF='OUI'),FORMAT='MED',)

MO=AFFE_MODELE(  MAILLAGE=MA, 
      AFFE=_F( TOUT = 'OUI',PHENOMENE = 'MECANIQUE',MODELISATION = 'AXIS'))

MA=MODI_MAILLAGE( reuse=MA,  MAILLAGE=MA,
                             ORIE_PEAU_2D=_F(  GROUP_MA = 'LPOP8',  )
                )

MAT1=DEFI_MATERIAU(ELAS=_F(  E = 60.E3, NU = 0.2))

MAT2=DEFI_MATERIAU(ELAS=_F(  E = 1.E3, NU = 0.3))

MAT3=DEFI_MATERIAU(ELAS=_F(  E = 1.E3, NU = 0.2))

CHMAT1=AFFE_MATERIAU(  MAILLAGE=MA,AFFE=(
                            _F(  GROUP_MA = 'VMAT1', MATER = MAT2),
                            _F(  GROUP_MA = 'VMAT2', MATER = MAT2))
                          )

CHMAT2=AFFE_MATERIAU(  MAILLAGE=MA,AFFE=(
                            _F(  GROUP_MA = 'VMAT1', MATER = MAT1),
                            _F(  GROUP_MA = 'VMAT2', MATER = MAT3))
                          )

CHMAT3=AFFE_MATERIAU(  MAILLAGE=MA,AFFE=(
                            _F(  GROUP_MA = 'VMAT1', MATER = MAT1),
                            _F(  GROUP_MA = 'VMAT2', MATER = MAT2))
                          )

MA=DEFI_GROUP( reuse=MA,   MAILLAGE=MA, 
                     CREA_GROUP_NO=_F( 
                        GROUP_MA = ( 'LPOP8',  'LPOP8S',  'LP8P9',  'LP8P9S', ))
                 )

CH1=AFFE_CHAR_MECA(  MODELE=MO,
                     DDL_IMPO=( _F(  GROUP_NO = 'LP8P9',  DX = 0.),
                                _F(  GROUP_NO = 'LP8P9S', DX = 0.),
                                _F(  GROUP_NO = 'PB',     DY = 0.)),
                     PRES_REP=( _F(  GROUP_MA = 'LPOP8',  PRES = 1.),
                                _F(  GROUP_MA = 'LPOP8S', PRES = 1.))
                   )

CH2=AFFE_CHAR_MECA(  MODELE=MO,
                     DDL_IMPO=( _F(  GROUP_NO = 'LP8P9',  DX = 0.),
                                _F(  GROUP_NO = 'LP8P9S', DX = 0.),
                                _F(  GROUP_NO = 'PB',     DY = 0.)),
                     FORCE_NODALE=( _F( GROUP_NO = 'P8',  FY =  1.591549E-3),
                                    _F( GROUP_NO = 'P8S', FY = -1.591549E-3))
                           )

RES1=MECA_STATIQUE(   MODELE=MO,   CHAM_MATER=CHMAT1, 
          EXCIT=_F( CHARGE = CH1)
                      )

RES2=MECA_STATIQUE(   MODELE=MO,   CHAM_MATER=CHMAT2, 
          EXCIT=_F( CHARGE = CH1)
                      )

RES3=MECA_STATIQUE(   MODELE=MO,   CHAM_MATER=CHMAT3, 
          EXCIT=_F( CHARGE = CH1)
                      )

RES4=MECA_STATIQUE(   MODELE=MO,   CHAM_MATER=CHMAT1, 
          EXCIT=_F( CHARGE = CH2)
                      )

RES5=MECA_STATIQUE(   MODELE=MO,   CHAM_MATER=CHMAT2, 
          EXCIT=_F( CHARGE = CH2)
                      )

RES6=MECA_STATIQUE(   MODELE=MO,   CHAM_MATER=CHMAT3, 
          EXCIT=_F( CHARGE = CH2)
                      )

# POST TRAITEMENT MECA. RUPTURE
# -----------------------------

FOND=DEFI_FOND_FISS(    MAILLAGE=MA,
                           FOND_FISS=_F( GROUP_NO = ('P0',)),
                      )

# CREATION DU CHAMP THETA SUR LA COURONNE 0 (TRIANGLES)
# -----------------------------------------------------
THETA0=CALC_THETA(    MODELE=MO,
                       DIRECTION=(1., 0., 0., ),
                        THETA_2D=_F(  GROUP_NO = ('P0',),
                                   MODULE = 1.,
                                   R_INF = 0.000,
                                   R_SUP = 0.025)
                     )

# CREATION DU CHAMP THETA SUR LA COURONNE 1 (QUADRANGLES)
# -------------------------------------------------------
THETA1=CALC_THETA(    MODELE=MO,
                       DIRECTION=(1., 0., 0., ),
                        THETA_2D=_F(  GROUP_NO = ('P0',),
                                   MODULE = 1.,
                                   R_INF = 0.025,
                                   R_SUP = 0.050)
                     )

# CREATION DU CHAMP THETA SUR LA COURONNE 2 (QUADRANGLES)
# -------------------------------------------------------
THETA2=CALC_THETA(    MODELE=MO,
                       DIRECTION=(1., 0., 0., ),
                        THETA_2D=_F(  GROUP_NO = ('P0',),
                                   MODULE = 1.,
                                   R_INF = 0.050,
                                   R_SUP = 0.075)
                     )

# CREATION DU CHAMP THETA SUR LA COURONNE 3 (QUADRANGLES)
# -------------------------------------------------------
THETA3=CALC_THETA(    MODELE=MO,
                       DIRECTION=(1., 0., 0., ),
                        THETA_2D=_F(  GROUP_NO = ('P0',),
                                   MODULE = 1.,
                                   R_INF = 0.075,
                                   R_SUP = 0.100)
                     )

# CREATION DU CHAMP THETA SUR LA COURONNE 4
# -----------------------------------------
THETA4=CALC_THETA(    MODELE=MO,
                       DIRECTION=(1., 0., 0., ),
                        THETA_2D=_F(  GROUP_NO = ('P0',),
                                   MODULE = 1.,
                                   R_INF = 0.025,
                                   R_SUP = 0.500)
                     )

# CALCUL DE G_THETA SUR LA COURONNE 0
# -----------------------------------

G1_C0=CALC_G(            RESULTAT=RES1,NUME_ORDRE=1,
                         THETA=_F(THETA=THETA0),
                    )

G2_C0=CALC_G(            RESULTAT=RES2,NUME_ORDRE=1,
                         THETA=_F(THETA=THETA0),
                    )

G3_C0=CALC_G(            RESULTAT=RES3,NUME_ORDRE=1,
                         THETA=_F(THETA=THETA0),
                    )

G4_C0=CALC_G(            RESULTAT=RES4,NUME_ORDRE=1,
                         THETA=_F(THETA=THETA0),
                    )

G5_C0=CALC_G(            RESULTAT=RES5,NUME_ORDRE=1,
                         THETA=_F(THETA=THETA0),
                    )

G6_C0=CALC_G(            RESULTAT=RES6,NUME_ORDRE=1,
                         THETA=_F(THETA=THETA0),
                    )

# CALCUL DE G_THETA SUR LA COURONNE 1
# -----------------------------------

G1_C1=CALC_G(           RESULTAT=RES1,NUME_ORDRE=1,
                        THETA=_F(THETA=THETA1),
                    )

G2_C1=CALC_G(            RESULTAT=RES2,NUME_ORDRE=1,
                         THETA=_F(THETA=THETA1),
                    )

G3_C1=CALC_G(            RESULTAT=RES3,NUME_ORDRE=1,
                         THETA=_F(THETA=THETA1),
                    )

G4_C1=CALC_G(            RESULTAT=RES4,NUME_ORDRE=1,
                         THETA=_F(THETA=THETA1),
                    )

G5_C1=CALC_G(            RESULTAT=RES5,NUME_ORDRE=1,
                         THETA=_F(THETA=THETA1),
                    )

G6_C1=CALC_G(            RESULTAT=RES6,NUME_ORDRE=1,
                         THETA=_F(THETA=THETA1),
                    )

# CALCUL DE G_THETA SUR LA COURONNE 2
# -----------------------------------

G1_C2=CALC_G(           RESULTAT=RES1,NUME_ORDRE=1,
                        THETA=_F(THETA=THETA2),
                    )

G2_C2=CALC_G(           RESULTAT=RES2,NUME_ORDRE=1,
                        THETA=_F(THETA=THETA2),
                    )

G3_C2=CALC_G(           RESULTAT=RES3,NUME_ORDRE=1,
                        THETA=_F(THETA=THETA2),
                    )

G4_C2=CALC_G(           RESULTAT=RES4,NUME_ORDRE=1,
                        THETA=_F(THETA=THETA2),
                    )

G5_C2=CALC_G(           RESULTAT=RES5,NUME_ORDRE=1,
                        THETA=_F(THETA=THETA2),
                    )

G6_C2=CALC_G(           RESULTAT=RES6,NUME_ORDRE=1,
                        THETA=_F(THETA=THETA2),
                    )

# CALCUL DE G_THETA SUR LA COURONNE 3
# -----------------------------------

G1_C3=CALC_G(           RESULTAT=RES1,NUME_ORDRE=1,
                        THETA=_F(THETA=THETA3),
                    )

G2_C3=CALC_G(           RESULTAT=RES2,NUME_ORDRE=1,
                        THETA=_F(THETA=THETA3),
                    )

G3_C3=CALC_G(           RESULTAT=RES3,NUME_ORDRE=1,
                        THETA=_F(THETA=THETA3),
                    )

G4_C3=CALC_G(           RESULTAT=RES4,NUME_ORDRE=1,
                        THETA=_F(THETA=THETA3),
                    )

G5_C3=CALC_G(           RESULTAT=RES5,NUME_ORDRE=1,
                        THETA=_F(THETA=THETA3),
                    )

G6_C3=CALC_G(           RESULTAT=RES6,NUME_ORDRE=1,
                        THETA=_F(THETA=THETA3),
                    )

# CALCUL DE G_THETA SUR LA COURONNE 4
# -----------------------------------

G1_C4=CALC_G(    RESULTAT=RES1,NUME_ORDRE=1,
                 THETA=_F(THETA=THETA4),
                    )

G2_C4=CALC_G(    RESULTAT=RES2,NUME_ORDRE=1,
                 THETA=_F(THETA=THETA4),
                    )

G3_C4=CALC_G(    RESULTAT=RES3,NUME_ORDRE=1,
                 THETA=_F(THETA=THETA4),
                    )

G4_C4=CALC_G(    RESULTAT=RES4,NUME_ORDRE=1,
                 THETA=_F(THETA=THETA4),
                    )

G5_C4=CALC_G(    RESULTAT=RES5,NUME_ORDRE=1,
                 THETA=_F(THETA=THETA4),
                    )

G6_C4=CALC_G(    RESULTAT=RES6,NUME_ORDRE=1,
                 THETA=_F(THETA=THETA4),
                    )

# IMPRESSION DES RESULTATS COURONNE 0
# -----------------------------------


TEST_TABLE(       TABLE=G1_C0,
                       NOM_PARA='G',
                           VALE=1.46438E-3,
                      PRECISION=0.07    )

TEST_TABLE(       TABLE=G2_C0,
                       NOM_PARA='G',
                           VALE=6.73168E-4,
                      PRECISION=0.05    )

TEST_TABLE(       TABLE=G3_C0,
                       NOM_PARA='G',
                           VALE=7.06637E-4,
                      PRECISION=0.11    )

TEST_TABLE(       TABLE=G4_C0,
                       NOM_PARA='G',
                           VALE=5.52152E-9,
                      PRECISION=0.07    )

TEST_TABLE(       TABLE=G5_C0,
                       NOM_PARA='G',
                           VALE=2.5974E-9,
                      PRECISION=0.03    )

TEST_TABLE(       TABLE=G6_C0,
                       NOM_PARA='G',
                           VALE=2.53699E-9,
                      PRECISION=0.05    )

# IMPRESSION DES RESULTATS COURONNE 1
# -----------------------------------


TEST_TABLE(       TABLE=G1_C1,
                       NOM_PARA='G',
                           VALE=1.46438E-3,
                      PRECISION=0.03    )

TEST_TABLE(       TABLE=G2_C1,
                       NOM_PARA='G',
                           VALE=6.73168E-4,
                      PRECISION=0.005    )

TEST_TABLE(       TABLE=G3_C1,
                       NOM_PARA='G',
                           VALE=7.06637E-4,
                      PRECISION=0.07    )

TEST_TABLE(       TABLE=G4_C1,
                       NOM_PARA='G',
                           VALE=5.52152E-9,
                      PRECISION=0.03    )

TEST_TABLE(       TABLE=G5_C1,
                       NOM_PARA='G',
                           VALE=2.5974E-9,
                      PRECISION=0.07    )

TEST_TABLE(       TABLE=G6_C1,
                       NOM_PARA='G',
                           VALE=2.53699E-9,
                      PRECISION=0.01    )

# IMPRESSION DES RESULTATS COURONNE 2
# -----------------------------------


TEST_TABLE(       TABLE=G1_C2,
                       NOM_PARA='G',
                           VALE=1.46438E-3,
                      PRECISION=0.03    )

TEST_TABLE(       TABLE=G2_C2,
                       NOM_PARA='G',
                           VALE=6.73168E-4,
                      PRECISION=0.005   )

TEST_TABLE(       TABLE=G3_C2,
                       NOM_PARA='G',
                           VALE=7.06637E-4,
                      PRECISION=0.07    )

TEST_TABLE(       TABLE=G4_C2,
                       NOM_PARA='G',
                           VALE=5.52152E-9,
                      PRECISION=0.03    )

TEST_TABLE(       TABLE=G5_C2,
                       NOM_PARA='G',
                           VALE=2.5974E-9,
                      PRECISION=0.07    )

TEST_TABLE(       TABLE=G6_C2,
                       NOM_PARA='G',
                           VALE=2.53699E-9,
                      PRECISION=0.01    )

# IMPRESSION DES RESULTATS COURONNE 3
# -----------------------------------


TEST_TABLE(       TABLE=G1_C3,
                       NOM_PARA='G',
                           VALE=1.46438E-3,
                      PRECISION=0.03    )

TEST_TABLE(       TABLE=G2_C3,
                       NOM_PARA='G',
                           VALE=6.73168E-4,
                      PRECISION=0.005    )

TEST_TABLE(       TABLE=G3_C3,
                       NOM_PARA='G',
                           VALE=7.06637E-4,
                      PRECISION=0.07    )

TEST_TABLE(       TABLE=G4_C3,
                       NOM_PARA='G',
                           VALE=5.52152E-9,
                      PRECISION=0.03    )

TEST_TABLE(       TABLE=G5_C3,
                       NOM_PARA='G',
                           VALE=2.5974E-9,
                      PRECISION=0.07    )

TEST_TABLE(       TABLE=G6_C3,
                       NOM_PARA='G',
                           VALE=2.53699E-9,
                      PRECISION=0.01    )

# IMPRESSION DES RESULTATS COURONNE 4
# -----------------------------------


TEST_TABLE(       TABLE=G1_C4,
                       NOM_PARA='G',
                           VALE=1.46438E-3,
                      PRECISION=0.03    )

TEST_TABLE(       TABLE=G2_C4,
                       NOM_PARA='G',
                           VALE=6.73168E-4,
                      PRECISION=0.005    )

TEST_TABLE(       TABLE=G3_C4,
                       NOM_PARA='G',
                           VALE=7.06637E-4,
                      PRECISION=0.07    )

TEST_TABLE(       TABLE=G4_C4,
                       NOM_PARA='G',
                           VALE=5.52152E-9,
                      PRECISION=0.03    )

TEST_TABLE(       TABLE=G5_C4,
                       NOM_PARA='G',
                           VALE=2.5974E-9,
                      PRECISION=0.07    )

TEST_TABLE(       TABLE=G6_C4,
                       NOM_PARA='G',
                           VALE=2.53699E-9,
                      PRECISION=0.01    )

FIN( )
#
