# MODIF  DATE 03/07/2006   AUTEUR MEUNIER S.MEUNIER 
# TITRE TEST DE NON-REGRESSION ASTER : MECANIQUE LINEAIRE AXISYMETRIQUE
# RESPONSABLE VABHHTS J.PELLET
#            CONFIGURATION MANAGEMENT OF EDF VERSION
# ======================================================================
# COPYRIGHT (C) 1991 - 2001  EDF R&D                  WWW.CODE-ASTER.ORG
# THIS PROGRAM IS FREE SOFTWARE; YOU CAN REDISTRIBUTE IT AND/OR MODIFY
# IT UNDER THE TERMS OF THE GNU GENERAL PUBLIC LICENSE AS PUBLISHED BY
# THE FREE SOFTWARE FOUNDATION; EITHER VERSION 2 OF THE LICENSE, OR
# (AT YOUR OPTION) ANY LATER VERSION.
#
# THIS PROGRAM IS DISTRIBUTED IN THE HOPE THAT IT WILL BE USEFUL, BUT
# WITHOUT ANY WARRANTY; WITHOUT EVEN THE IMPLIED WARRANTY OF
# MERCHANTABILITY OR FITNESS FOR A PARTICULAR PURPOSE. SEE THE GNU
# GENERAL PUBLIC LICENSE FOR MORE DETAILS.
#
# YOU SHOULD HAVE RECEIVED A COPY OF THE GNU GENERAL PUBLIC LICENSE
# ALONG WITH THIS PROGRAM; IF NOT, WRITE TO EDF R&D CODE_ASTER,
#    1 AVENUE DU GENERAL DE GAULLE, 92141 CLAMART CEDEX, FRANCE.
# ======================================================================
DEBUT(CODE=_F( NOM = 'SSLA200B',NIV_PUB_WEB='INTERNET'))

# ======================================================
#
#      TEST SSLA200A DE NON_REGRESSION ASTER
#
#      MECANIQUE LINEAIRE 2D, MODELISATION AXISYMETRIQUE
#      ELEMENTS SOUS INTEGRES
#      ATTENTION :
#      LES VALEURS DE REFERENCE ONT ETE OBTENUES
#      PAR UN PASSAGE PRECEDENT DU CODE_ASTER.
# ======================================================

# ----------------------------------------------------------------------
#    DEFINITION DU MODELE
# ----------------------------------------------------------------------
MA=LIRE_MAILLAGE(  )

DEFI_GROUP( reuse=MA,   MAILLAGE=MA,
                     CREA_GROUP_MA=_F(  NOM = 'TOUT', TOUT = 'OUI'))

DEFI_GROUP( reuse=MA, MAILLAGE=MA,
                   CREA_GROUP_MA=_F(  NOM = 'GMX1', MAILLE = 'M95'),
                   CREA_GROUP_NO=_F(  NOM = 'GNX1', NOEUD = 'N198') )

#      TRIA3  QUAD4  TRIA6  QUAD8  QUAD9

MO=AFFE_MODELE(    MAILLAGE=MA,
                         AFFE=_F(  TOUT = 'OUI',
                                PHENOMENE = 'MECANIQUE',
                                MODELISATION = ('AXIS','AXIS_SI')) )

MOTH=AFFE_MODELE(    MAILLAGE=MA,
                           AFFE=_F(  TOUT = 'OUI',
                                  PHENOMENE = 'THERMIQUE',
                                  MODELISATION = 'AXIS') )

# ----------------------------------------------------------------------
#    DEFINITION DE CHAMPS
# ----------------------------------------------------------------------
LR1=DEFI_LIST_REEL(         DEBUT=-0.5,
                         INTERVALLE=_F(  JUSQU_A = 11.5,
                                      NOMBRE = 2) )

FO1=DEFI_FONCTION(    NOM_PARA='TEMP',

                        VALE=( -5.1, 1.05,
                                4.8, 1.12,
                               17.3, 1.14,),
                         PROL_DROITE='LINEAIRE',
                        PROL_GAUCHE='CONSTANT' )

FO2=DEFI_FONCTION(    NOM_PARA='TEMP',
                        VALE=( -8.1,  0.28,
                               12.5,  0.33,
                               25.7,  0.31,      ),
                         PROL_DROITE='LINEAIRE',
                        PROL_GAUCHE='CONSTANT' )

FO2_NU=DEFI_FONCTION(    NOM_PARA='TEMP',
                        VALE=( -8.1,  0.13674,
                               12.5,  0.185909619,
                               25.7,  0.14058841,      ),
                         PROL_DROITE='LINEAIRE',
                        PROL_GAUCHE='CONSTANT' )

FO3=DEFI_FONCTION(    NOM_PARA='TEMP',
                        VALE=( -5.1, 1.06,
                                4.8, 1.11,
                               17.3, 1.02,   ),
                         PROL_DROITE='LINEAIRE',
                        PROL_GAUCHE='CONSTANT' )

FO4=DEFI_FONCTION(    NOM_PARA='INST',
                        VALE=( -1.5, 0.85,
                                0.8, 0.98,
                                8.5, 0.94,   ),
                         PROL_DROITE='LINEAIRE',
                        PROL_GAUCHE='CONSTANT' )

FO5=DEFI_FONCTION(    NOM_PARA='X',
                        VALE=(  0.8, -0.91,
                                1.5, -0.94,
                                3.8, -0.89,  ),
                         PROL_DROITE='CONSTANT',
                        PROL_GAUCHE='LINEAIRE' )

FO6=DEFI_FONCTION(    NOM_PARA='Y',
                        VALE=( -2.1,  1.02E1,
                                3.3,  0.98,
                                8.9,  1.13E1,  ),
                         PROL_DROITE='LINEAIRE',
                        PROL_GAUCHE='LINEAIRE' )

FO7=DEFI_FONCTION(    NOM_PARA='INST',
                        VALE=(  0.,  -4.91,
                               11.2, -1.98,  ),
                         PROL_DROITE='LINEAIRE',
                        PROL_GAUCHE='LINEAIRE' )

FO8=DEFI_FONCTION(    NOM_PARA='X',
                        VALE=( -5.2,  6.11,
                                8.5,  6.04,  ),
                         PROL_DROITE='CONSTANT',
                        PROL_GAUCHE='CONSTANT' )

FO9=DEFI_FONCTION(    NOM_PARA='Y',
                        VALE=( -0.5, -6.05,
                               15.7, -5.88,  ),
                         PROL_DROITE='CONSTANT',
                        PROL_GAUCHE='LINEAIRE' )

FO10=DEFI_FONCTION(    NOM_PARA='INST',
                        VALE=(  2.6,  11.6,
                               19.2,  15.2,      ),
                         PROL_DROITE='CONSTANT',
                        PROL_GAUCHE='LINEAIRE' )

FO11=DEFI_FONCTION(    NOM_PARA='INST',
                        VALE=(  0.6,  0.94,
                               37.3,  1.02,      ),
                         PROL_DROITE='CONSTANT',
                        PROL_GAUCHE='LINEAIRE' )

FO12=DEFI_FONCTION(    NOM_PARA='INST',
                        VALE=( -5.4,  0.91,
                               31.4,  1.08,      ),
                         PROL_DROITE='LINEAIRE',
                        PROL_GAUCHE='LINEAIRE' )

FO13=DEFI_FONCTION(    NOM_PARA='TEMP',
                         VALE=( -1.1, 2.15,
                                 7.8, 1.82,
                                22.4, 2.41, ),
                          PROL_DROITE='LINEAIRE',
                         PROL_GAUCHE='CONSTANT' )

FO14=DEFI_FONCTION(    NOM_PARA='TEMP',
                         VALE=( -8.1,  0.19,
                                12.5,  0.25,
                                25.7,  0.34,      ),
                          PROL_DROITE='LINEAIRE',
                         PROL_GAUCHE='CONSTANT' )

FO15=DEFI_FONCTION(    NOM_PARA='TEMP',
                         VALE=( 9.2,  2.2,
                               11.4,  1.7,
                               15.8,  2.4,    ),
                          PROL_DROITE='LINEAIRE',
                         PROL_GAUCHE='CONSTANT' )

FO16=DEFI_FONCTION(    NOM_PARA='TEMP',
                         VALE=(  8.4, 5.15E1,
                                19.8, 2.82E1,
                                21.4, 4.74E1,   ),
                          PROL_DROITE='LINEAIRE',
                         PROL_GAUCHE='CONSTANT' )

FO17=DEFI_FONCTION(    NOM_PARA='TEMP',
                         VALE=( -12.5, 5.2E1,
                                  6.4, 6.8E1,
                                 11.2, 3.7E1,   ),
                          PROL_DROITE='LINEAIRE',
                         PROL_GAUCHE='CONSTANT' )

# ----------------------------------------------------------------------
#    DEFINITION DES CARACTERISTIQUES ELEMENTAIRES : AXES LOCAUX
# ----------------------------------------------------------------------
CARA1=AFFE_CARA_ELEM(    MODELE=MO,MASSIF=(
                           _F(
       GROUP_MA = 'TOUT',

                                    ANGL_REP = (21.4, 5.8, -16.7,)),
                           _F(  GROUP_MA = ('GMA10', 'GMA11', 'GMA12',),
                                    ANGL_AXE = (57.4, 22.7,),
                                    ORIG_AXE = (1.1, 0.5, 0.6,))) )

# ----------------------------------------------------------------------
#    DEFINITION ET AFFECTATION DES MATERIAUX : COMPORTEMENTS ELASTIQUES
# ----------------------------------------------------------------------
MAT1=DEFI_MATERIAU(    ELAS=_F(  E = 1.2,
                                NU = 0.3,
                                RHO = 7800.,
                                ALPHA = 1.2),
                         THER=_F(  RHO_CP = 1.4,
                                LAMBDA = 0.8) )

MAT2=DEFI_MATERIAU(    ELAS_FO=_F(  E = FO1,
                                   NU = FO2,
                                   RHO = 7820.,
                                   ALPHA = FO3,TEMP_DEF_ALPHA=6.9),
                         THER=_F(  RHO_CP = 1.2,
                                LAMBDA = 0.9) )

MAT3=DEFI_MATERIAU(    ELAS_ISTR=_F(  E_L = 1.5,
                                     E_N = 0.4,
                                     NU_LT = 0.25,
                                     NU_LN = 0.4,
                                     G_LN = 3.1E1,
                                     RHO = 8500.,
                                     ALPHA_L = 2.1,
                                     ALPHA_N = 0.8),
                         THER=_F(  RHO_CP = 2.2,
                                LAMBDA = 1.9) )

MAT4=DEFI_MATERIAU(    ELAS_ISTR_FO=_F(  E_L = FO1,
                                        E_N = FO13,
                                        NU_LT = FO2,
                                        NU_LN = FO14,
                                        G_LN = FO16,
                                        RHO = 6700.,
                                        ALPHA_L = FO3,
                                        ALPHA_N = FO15,
                                        TEMP_DEF_ALPHA=11.7),
                         THER=_F(  RHO_CP = 2.7,
                                LAMBDA = 0.4) )

MAT5=DEFI_MATERIAU(    ELAS_ORTH=_F(  E_L = 1.6,
                                     E_T = 0.8,
                                     E_N = 2.8,
                                     NU_LT = 0.4,
                                     NU_LN = 0.3,
                                     NU_TN = 0.4,
                                     G_LT = 1.1E1,
                                     G_LN = 2.2E1,
                                     G_TN = 3.5E1,
                                     RHO = 6820.,
                                     ALPHA_L = 3.2,
                                     ALPHA_T = 1.9,
                                     ALPHA_N = 1.7,
                                     XT = 1.2,
                                     XC = 3.5,
                                     YT = 2.7,
                                     YC = 3.4,
                                     S_LT = 2.6),
                         THER=_F(  RHO_CP = 3.2,
                                LAMBDA = 1.9) )

MAT6=DEFI_MATERIAU(    ELAS_ORTH_FO=_F(  E_L = FO1,
                                        E_T = FO13,
                                        E_N = FO1,
                                        NU_LT = FO2_NU,
                                        NU_LN = FO14,
                                        NU_TN = FO14,
                                        G_LT = FO16,
                                        G_LN = FO17,
                                        G_TN = FO16,
                                        RHO = 5240.,
                                        ALPHA_L = FO3,
                                        ALPHA_T = FO15,
                                        ALPHA_N = FO15,
                                        TEMP_DEF_ALPHA=0.),
                         THER=_F(  RHO_CP = 2.5,
                                LAMBDA = 1.7) )

CHMAT=AFFE_MATERIAU(    MAILLAGE=MA,AFFE=(
                          _F(  TOUT = 'OUI',
                                 MATER = MAT1,
                                 TEMP_REF = 4.8),
                          _F(  GROUP_MA = 'GMA0',
                                 MATER = MAT2,
                                 TEMP_REF = 6.9),
                          _F(  GROUP_MA = 'GMA9',
                                 MATER = MAT3),
                          _F(  GROUP_MA = 'GMA10',
                                 MATER = MAT4,
                                 TEMP_REF = 11.7),
                          _F(  GROUP_MA = 'GMA11',
                                 MATER = MAT5),
                          _F(  GROUP_MA = 'GMA12',
                                 MATER = MAT6)) )

# DANS CHAQUE GROUP_MA, TOUS LES TYPES DE MAILLES SONT REPRESENTES

# ----------------------------------------------------------------------
#    AFFECTATION DES CHARGEMENTS ET DES CONDITIONS LIMITES
# ----------------------------------------------------------------------
CHTHF=AFFE_CHAR_THER_F(       MODELE=MOTH,TEMP_IMPO=(
                             _F(  TOUT = 'OUI',
                                         TEMP = FO11),
                             _F(  NOEUD = ('N85', 'N109', 'N38', 'N143',),
                                         TEMP = FO10)) )

THLIN=THER_LINEAIRE(        MODELE=MOTH,
                          CHAM_MATER=CHMAT,
                           CARA_ELEM=CARA1,
                           INCREMENT=_F(  LIST_INST = LR1),
                               EXCIT=_F(  CHARGE = CHTHF) )

TEST_RESU(RESU=( _F(  RESULTAT = THLIN,   NUME_ORDRE = 0,
                     TYPE_TEST = 'SOMM_ABS',
                     NOM_CHAM = 'TEMP',
       REFERENCE = 'NON_REGRESSION', PRECISION = 1.5E-10, VERSION = '6.0.24',
                   VALE = 1.2365022775219E+03),
                   _F(  RESULTAT = THLIN,   NUME_ORDRE = 1,
                     TYPE_TEST = 'SOMM_ABS',
                     NOM_CHAM = 'TEMP',
       REFERENCE = 'NON_REGRESSION', PRECISION = 1.5E-10, VERSION = '6.0.24',
                   VALE = 1.3197140441034E+03),
                   _F(  RESULTAT = THLIN, NUME_ORDRE = 2,
                     TYPE_TEST = 'SOMM_ABS',
                     NOM_CHAM = 'TEMP',
       REFERENCE = 'NON_REGRESSION', PRECISION = 1.5E-10, VERSION = '6.0.24',
                   VALE = 1.4574770197304E+03)))

CHMEC=AFFE_CHAR_MECA(           MODELE=MO,
                               VERI_NORM='NON',
                           TEMP_CALCULEE=THLIN,
                               PESANTEUR=(9.8,  0.3,  0.1, -0.4,),
                                ROTATION=(0.2,  0.5, -0.2,  0.2,),
#  ----  MAILLES 2D
                           FORCE_INTERNE=_F(  MAILLE = ('M42', 'M77',),
                                           FX = 0.84),
                           EPSI_INIT=_F(  MAILLE = 'M67',
                                       EPXX = 2.2),
#  ----  MAILLES DE FACE 1D
                           FACE_IMPO=_F(  MAILLE = 'M101',
                                       DNOR = -6.07),
                           FORCE_CONTOUR=_F(  MAILLE = 'M126',
                                           FX = 2.01E1,
                                           FY = 1.05E1),
                           PRES_REP=_F(  MAILLE = 'M120',
                                      PRES = -1.07E1),
#  ----  MAILLES DE TYPE QUELCONQUE
                           LIAISON_GROUP=_F(  MAILLE_1 = 'M87',
                                           GROUP_MA_2 = 'GMA6',
                                           DDL_1 = 'DX',
                                           COEF_MULT_1 = 1.8,
                                           DDL_2 = 'DY',
                                           COEF_MULT_2 = 0.7,
                                           COEF_IMPO = -5.22,
                                           TRAN = (1.6, 1.1,),
                                           SOMMET = 'OUI'),
                           LIAISON_UNIF=_F(  MAILLE = 'M24',
                                          DDL = ('DX', 'DY',)),LIAISON_SOLIDE=(
                           _F(  MAILLE = ('M31', 'M135',),
                                            NUME_LAGR = 'NORMAL'),
                           _F(  NOEUD = ('N37', 'N195',),
                                            NUME_LAGR = 'NORMAL')),
#  ----  NOEUDS
                           DDL_IMPO=_F(  NOEUD = 'N130',
                                      DY = 7.1),
                           LIAISON_DDL=_F(  NOEUD = ('N97',  'N97',),
                                         DDL = ('DY', 'DX',),
                                         COEF_MULT = (1.3,   1.1,),
                                         COEF_IMPO = 6.1),
                           LIAISON_OBLIQUE=_F(  NOEUD = 'N76',
                                             ANGL_NAUT = (18.7, 35.1,),
                                             DX = 5.95),
                           LIAISON_MAIL=_F(  GROUP_MA_MAIT = 'GMX1',
                                          GROUP_NO_ESCL = 'GNX1'),
                           FORCE_NODALE=_F(  NOEUD = 'N30',
                                          FX = 0.86,
                                          FY = 0.98,
                                          ANGL_NAUT = (25.8, 7.1, 29.3,)))

CHMETH=AFFE_CHAR_MECA(         MODELE=MO,
                            TEMP_CALCULEE=THLIN)

CHMECF=AFFE_CHAR_MECA_F(         MODELE=MO,
                                VERI_NORM='NON',

#  ----  MAILLES 2D
                              FORCE_INTERNE=_F(  GROUP_MA = 'GMA1',
                                              FY = FO4),
                              EPSI_INIT=_F(  GROUP_MA = 'GMA2',
                                          EPYY = FO7),
#  ----  MAILLES DE BORD 1D
                              FACE_IMPO=_F(  GROUP_MA = 'GMA3',
                                          DX = FO9),
                              FORCE_CONTOUR=_F(  GROUP_MA = 'GMA4',
                                              FX = FO6),
                              PRES_REP=_F(  GROUP_MA = 'GMA5',
                                         CISA_2D = FO6),
#  ----  MAILLES DE TYPE QUELCONQUE
                              LIAISON_UNIF=_F(  GROUP_MA = 'GMA7',
                                             DDL = 'DY'),
#  ----  NOEUDS
                              DDL_IMPO=_F(  GROUP_NO = 'GNO1',
                                         DY = FO7),
                              LIAISON_DDL=_F(  GROUP_NO = 'GNO2',
                                            DDL = ('DX', 'DY',),
                                            COEF_MULT = (2.5,  -1.3,),
                                            COEF_IMPO = FO9),
                              LIAISON_OBLIQUE=_F(  GROUP_NO = 'GNO3',
                                                ANGL_NAUT = (-25.4, 2.7,
                                                              18.9, ),
                                                DX = FO9),
                              LIAISON_GROUP=_F(  NOEUD_1 = ('N145', 'N168',),
                                              GROUP_NO_2 = 'GNO4',
                                              SANS_NOEUD = 'N168',
                                              DDL_1 = ('DY', 'DX',),
                                              COEF_MULT_1 = (1.1,  -3.7,),
                                              DDL_2 = 'DX',
                                              COEF_MULT_2 = 2.8,
                                              COEF_IMPO = FO8,
                                             TRAN = (-0.2, -3.1,)),
                              FORCE_NODALE=_F(  GROUP_NO = 'GNO6',
                                             FY = FO6) )

CHCI=AFFE_CHAR_CINE(       MODELE=MO,
                          MECA_IMPO=_F(  NOEUD = 'N199',
                                      DY = 0.0) )

CHCIF=AFFE_CHAR_CINE_F(       MODELE=MO,
                             MECA_IMPO=_F(  GROUP_NO = 'GNO7',
                                         DX = FO7,
                                         DY = FO9) )

MATELEM1=CALC_MATR_ELEM(        OPTION='RIGI_MECA',
                                  MODELE=MO,
                              CHAM_MATER=CHMAT,
                               CARA_ELEM=CARA1,
                                 CHARGE=(CHMEC, CHMECF, ),
                                    INST=2.9 )

MATELEM2=CALC_MATR_ELEM(        OPTION='MASS_MECA',
                                  MODELE=MO,
                              CHAM_MATER=CHMAT,
                               CARA_ELEM=CARA1,
                                 CHARGE=(CHMEC, CHMECF, ),
                                    INST=1.9 )

# ----------------------------------------------------------------------
#   COMMANDES GLOBALES DE MECANIQUE : STATIQUE LINEAIRE
# ----------------------------------------------------------------------

MSLIN=MECA_STATIQUE(        MODELE=MO,
                           CHAM_MATER=CHMAT,
                            CARA_ELEM=CARA1,
                           EXCIT=_F(  CHARGE = CHMEC,
                                   FONC_MULT = FO11),
                           LIST_INST=LR1,
                         )

CALC_ELEM( reuse= MSLIN ,RESULTAT= MSLIN ,    LIST_INST=LR1,
                           OPTION=(
                            'SIGM_ELNO_DEPL',
                                    'EPME_ELNO_DEPL', 'EPME_ELGA_DEPL',
                                    'EPSI_ELGA_DEPL',
                                    'EPSI_ELNO_DEPL',
                                    'EQUI_ELNO_SIGM',
                                    'EQUI_ELGA_SIGM', 'EQUI_ELNO_EPSI',
                                   'EQUI_ELGA_EPSI', 'EQUI_ELNO_EPME',
                                   'EQUI_ELGA_EPME',
                                   'EPOT_ELEM_DEPL', 'ENEL_ELGA',
                                     'ENEL_ELNO_ELGA',
                                     ) )

CALC_NO( reuse=MSLIN,       OPTION=(
                                  'EQUI_NOEU_EPSI',
                                  'EQUI_NOEU_EPME',),
                       RESULTAT=MSLIN,
                      PRECISION=1.000000000E-03,
                        CRITERE='ABSOLU',
                     NUME_ORDRE=2
                      )

TEST_RESU(RESU=( _F(  RESULTAT = MSLIN,     NUME_ORDRE = 2,
                     NOM_CHAM = 'EQUI_NOEU_EPSI',
                     TYPE_TEST = 'SOMM_ABS',
       REFERENCE = 'NON_REGRESSION', PRECISION = 1.5E-10, VERSION = '6.0.24',
                   VALE = 3.6868847432557E+07),
                   _F(  RESULTAT = MSLIN,    NUME_ORDRE = 2,
                     NOM_CHAM = 'EQUI_NOEU_EPME',
                     TYPE_TEST = 'SOMM_ABS',
       REFERENCE = 'NON_REGRESSION', PRECISION = 1.5E-10, VERSION = '6.0.24',
                   VALE = 3.6890854629678E+07)))

TEST_RESU(RESU=( _F(  RESULTAT = MSLIN,    NUME_ORDRE = 1,
                     NOM_CHAM = 'DEPL',
                     TYPE_TEST = 'SOMM_ABS',
       REFERENCE = 'NON_REGRESSION', PRECISION = 1.5E-10, VERSION = '6.0.24',
                   VALE = 6.2213150447180E+07),
                   _F(  RESULTAT = MSLIN,    NUME_ORDRE = 2,
                     NOM_CHAM = 'DEPL',
                     TYPE_TEST = 'SOMM_ABS',
       REFERENCE = 'NON_REGRESSION', PRECISION = 1.5E-10, VERSION = '6.0.24',
                   VALE = 6.3080698513556E+07),
                   _F(  RESULTAT = MSLIN,    NUME_ORDRE = 3,
                     NOM_CHAM = 'DEPL',
                     TYPE_TEST = 'SOMM_ABS',
       REFERENCE = 'NON_REGRESSION', PRECISION = 1.5E-10, VERSION = '6.0.24',
                   VALE = 6.3948448178333E+07),
                   _F(  RESULTAT = MSLIN,    NUME_ORDRE = 1,
                     NOM_CHAM = 'SIEF_ELGA_DEPL',
                     TYPE_TEST = 'SOMM_ABS',
       REFERENCE = 'NON_REGRESSION', PRECISION = 1.5E-10, VERSION = '6.0.24',
                   VALE = 5.9774274588620E+07),
                   _F(  RESULTAT = MSLIN,    NUME_ORDRE = 2,
                     NOM_CHAM = 'SIEF_ELGA_DEPL',
                     TYPE_TEST = 'SOMM_ABS',
       REFERENCE = 'NON_REGRESSION', PRECISION = 1.5E-10, VERSION = '6.0.24',
                   VALE = 6.0599684182672E+07),
                   _F(  RESULTAT = MSLIN,    NUME_ORDRE = 3,
                     NOM_CHAM = 'SIEF_ELGA_DEPL',
                     TYPE_TEST = 'SOMM_ABS',
       REFERENCE = 'NON_REGRESSION', PRECISION = 1.5E-10, VERSION = '6.0.24',
                   VALE = 6.1424781220670E+07),
                   _F(  RESULTAT = MSLIN,    NUME_ORDRE = 1,
                     NOM_CHAM = 'SIGM_ELNO_DEPL',
                     TYPE_TEST = 'SOMM_ABS',
       REFERENCE = 'NON_REGRESSION', PRECISION = 1.5E-10, VERSION = '6.0.24',
                   VALE = 1.0524160330487E+08),
                   _F(  RESULTAT = MSLIN,    NUME_ORDRE = 2,
                     NOM_CHAM = 'SIGM_ELNO_DEPL',
                     TYPE_TEST = 'SOMM_ABS',
       REFERENCE = 'NON_REGRESSION', PRECISION = 1.5E-10, VERSION = '6.0.24',
                   VALE = 1.0669760037257E+08),
                   _F(  RESULTAT = MSLIN,    NUME_ORDRE = 3,
                     NOM_CHAM = 'SIGM_ELNO_DEPL',
                     TYPE_TEST = 'SOMM_ABS',
       REFERENCE = 'NON_REGRESSION', PRECISION = 1.5E-10, VERSION = '6.0.24',
                   VALE = 1.0815321415481E+08),
                   _F(  RESULTAT = MSLIN,    NUME_ORDRE = 1,
                     NOM_CHAM = 'EPOT_ELEM_DEPL',
                     TYPE_TEST = 'SOMM_ABS',
       REFERENCE = 'NON_REGRESSION', PRECISION = 1.5E-10, VERSION = '6.3.20',
                   VALE = 9.7544583306656E+11),
                   _F(  RESULTAT = MSLIN,    NUME_ORDRE = 2,
                     NOM_CHAM = 'EPOT_ELEM_DEPL',
                     TYPE_TEST = 'SOMM_ABS',
       REFERENCE = 'NON_REGRESSION', PRECISION = 1.5E-10, VERSION = '6.3.20',
                   VALE = 1.0025986041288E+12),
                   _F(  RESULTAT = MSLIN,    NUME_ORDRE = 3,
                     NOM_CHAM = 'EPOT_ELEM_DEPL',
                     TYPE_TEST = 'SOMM_ABS',
       REFERENCE = 'NON_REGRESSION', PRECISION = 1.5E-10, VERSION = '6.3.20',
                   VALE = 1.0301216977633E+12),
                   _F(  RESULTAT = MSLIN,    NUME_ORDRE = 1,
                     NOM_CHAM = 'EPSI_ELGA_DEPL',
                     TYPE_TEST = 'SOMM_ABS',
       REFERENCE = 'NON_REGRESSION', PRECISION = 1.5E-10, VERSION = '6.0.24',
                   VALE = 3.2592006104351E+07),
                   _F(  RESULTAT = MSLIN,    NUME_ORDRE = 2,
                     NOM_CHAM = 'EPSI_ELGA_DEPL',
                     TYPE_TEST = 'SOMM_ABS',
       REFERENCE = 'NON_REGRESSION', PRECISION = 1.5E-10, VERSION = '6.0.24',
                   VALE = 3.3044759301226E+07),
                   _F(  RESULTAT = MSLIN,    NUME_ORDRE = 3,
                     NOM_CHAM = 'EPSI_ELGA_DEPL',
                     TYPE_TEST = 'SOMM_ABS',
       REFERENCE = 'NON_REGRESSION', PRECISION = 1.5E-10, VERSION = '6.0.24',
                   VALE = 3.3497534288405E+07),
                   _F(  RESULTAT = MSLIN,    NUME_ORDRE = 1,
                     NOM_CHAM = 'EPSI_ELNO_DEPL',
                     TYPE_TEST = 'SOMM_ABS',
       REFERENCE = 'NON_REGRESSION', PRECISION = 1.5E-10, VERSION = '6.0.24',
                   VALE = 5.7966363324192E+07),
                   _F(  RESULTAT = MSLIN,    NUME_ORDRE = 2,
                     NOM_CHAM = 'EPSI_ELNO_DEPL',
                     TYPE_TEST = 'SOMM_ABS',
       REFERENCE = 'NON_REGRESSION', PRECISION = 1.5E-10, VERSION = '6.0.24',
                   VALE = 5.8770260969196E+07),
                   _F(  RESULTAT = MSLIN,    NUME_ORDRE = 3,
                     NOM_CHAM = 'EPSI_ELNO_DEPL',
                     TYPE_TEST = 'SOMM_ABS',
       REFERENCE = 'NON_REGRESSION', PRECISION = 1.5E-10, VERSION = '6.0.24',
                   VALE = 5.9574217945377E+07),
                   _F(  RESULTAT = MSLIN,    NUME_ORDRE = 1,
                     NOM_CHAM = 'EQUI_ELNO_SIGM',
                     TYPE_TEST = 'SOMM_ABS',
       REFERENCE = 'NON_REGRESSION', PRECISION = 1.5E-10, VERSION = '7.01.13',
                   VALE = 2.5176462310169E+08),
                   _F(  RESULTAT = MSLIN,    NUME_ORDRE = 2,
                     NOM_CHAM = 'EQUI_ELNO_SIGM',
                     TYPE_TEST = 'SOMM_ABS',
       REFERENCE = 'NON_REGRESSION', PRECISION = 1.5E-10, VERSION = '7.01.13',
                   VALE = 2.5524611833473E+08),
                   _F(  RESULTAT = MSLIN,    NUME_ORDRE = 3,
                     NOM_CHAM = 'EQUI_ELNO_SIGM',
                     TYPE_TEST = 'SOMM_ABS',
       REFERENCE = 'NON_REGRESSION', PRECISION = 1.5E-10, VERSION = '7.01.13',
                   VALE = 2.5872651117250E+08),
                   _F(  RESULTAT = MSLIN,    NUME_ORDRE = 1,
                     NOM_CHAM = 'EQUI_ELGA_SIGM',
                     TYPE_TEST = 'SOMM_ABS',
       REFERENCE = 'NON_REGRESSION', PRECISION = 1.5E-10, VERSION = '6.0.24',
                   VALE = 1.5304639353435E+08),
                   _F(  RESULTAT = MSLIN,    NUME_ORDRE = 2,
                     NOM_CHAM = 'EQUI_ELGA_SIGM',
                     TYPE_TEST = 'SOMM_ABS',
       REFERENCE = 'NON_REGRESSION', PRECISION = 1.5E-10, VERSION = '6.0.24',
                   VALE = 1.5516162567930E+08),
                   _F(  RESULTAT = MSLIN,    NUME_ORDRE = 3,
                     NOM_CHAM = 'EQUI_ELGA_SIGM',
                     TYPE_TEST = 'SOMM_ABS',
       REFERENCE = 'NON_REGRESSION', PRECISION = 1.5E-10, VERSION = '6.0.24',
                   VALE = 1.5727612480531E+08),
                   _F(  RESULTAT = MSLIN,    NUME_ORDRE = 1,
                     NOM_CHAM = 'EQUI_ELNO_EPSI',
                     TYPE_TEST = 'SOMM_ABS',
       REFERENCE = 'NON_REGRESSION', PRECISION = 1.5E-10, VERSION = '6.0.24',
                   VALE = 1.1474011839669E+08),
                   _F(  RESULTAT = MSLIN,    NUME_ORDRE = 2,
                     NOM_CHAM = 'EQUI_ELNO_EPSI',
                     TYPE_TEST = 'SOMM_ABS',
       REFERENCE = 'NON_REGRESSION', PRECISION = 1.5E-10, VERSION = '6.0.24',
                   VALE = 1.1633182568818E+08),
                   _F(  RESULTAT = MSLIN,    NUME_ORDRE = 3,
                     NOM_CHAM = 'EQUI_ELNO_EPSI',
                     TYPE_TEST = 'SOMM_ABS',
       REFERENCE = 'NON_REGRESSION', PRECISION = 1.5E-10, VERSION = '6.0.24',
                   VALE = 1.1792362473777E+08),
                   _F(  RESULTAT = MSLIN,    NUME_ORDRE = 1,
                     NOM_CHAM = 'EQUI_ELGA_EPSI',
                     TYPE_TEST = 'SOMM_ABS',
       REFERENCE = 'NON_REGRESSION', PRECISION = 1.5E-10, VERSION = '6.0.24',
                   VALE = 6.4196017623304E+07),
                   _F(  RESULTAT = MSLIN,    NUME_ORDRE = 2,
                     NOM_CHAM = 'EQUI_ELGA_EPSI',
                     TYPE_TEST = 'SOMM_ABS',
       REFERENCE = 'NON_REGRESSION', PRECISION = 1.5E-10, VERSION = '6.0.24',
                   VALE = 6.5088075727783E+07),
                   _F(  RESULTAT = MSLIN,    NUME_ORDRE = 3,
                     NOM_CHAM = 'EQUI_ELGA_EPSI',
                     TYPE_TEST = 'SOMM_ABS',
       REFERENCE = 'NON_REGRESSION', PRECISION = 1.5E-10, VERSION = '6.0.24',
                   VALE = 6.5980176208541E+07),
                   _F(  RESULTAT = MSLIN,    NUME_ORDRE = 1,
                     NOM_CHAM = 'EQUI_ELNO_EPME',
                     TYPE_TEST = 'SOMM_ABS',
       REFERENCE = 'NON_REGRESSION', PRECISION = 1.5E-10, VERSION = '6.0.24',
                   VALE = 1.1481718107363E+08),
                   _F(  RESULTAT = MSLIN,    NUME_ORDRE = 2,
                     NOM_CHAM = 'EQUI_ELNO_EPME',
                     TYPE_TEST = 'SOMM_ABS',
       REFERENCE = 'NON_REGRESSION', PRECISION = 1.5E-10, VERSION = '6.0.24',
                   VALE = 1.1640998719053E+08),
                   _F(  RESULTAT = MSLIN,    NUME_ORDRE = 3,
                     NOM_CHAM = 'EQUI_ELNO_EPME',
                     TYPE_TEST = 'SOMM_ABS',
       REFERENCE = 'NON_REGRESSION', PRECISION = 1.5E-10, VERSION = '6.0.24',
                   VALE = 1.1800289084519E+08),
                   _F(  RESULTAT = MSLIN,    NUME_ORDRE = 1,
                     NOM_CHAM = 'EQUI_ELGA_EPME',
                     TYPE_TEST = 'SOMM_ABS',
       REFERENCE = 'NON_REGRESSION', PRECISION = 1.5E-10, VERSION = '6.0.24',
                   VALE = 6.4219568545892E+07),
                   _F(  RESULTAT = MSLIN,    NUME_ORDRE = 2,
                     NOM_CHAM = 'EQUI_ELGA_EPME',
                     TYPE_TEST = 'SOMM_ABS',
       REFERENCE = 'NON_REGRESSION', PRECISION = 1.5E-10, VERSION = '6.0.24',
                   VALE = 6.5111988878260E+07),
                   _F(  RESULTAT = MSLIN,    NUME_ORDRE = 3,
                     NOM_CHAM = 'EQUI_ELGA_EPME',
                     TYPE_TEST = 'SOMM_ABS',
       REFERENCE = 'NON_REGRESSION', PRECISION = 1.5E-10, VERSION = '6.0.24',
                   VALE = 6.6004451407496E+07))
            )

# VALIDATION DE PROJ_CHAMP/METHODE:'ELEM' EN 2D :

MSLINP=PROJ_CHAMP(RESULTAT=MSLIN,     METHODE='ELEM',
                     MODELE_1=MO,        MODELE_2=MO  )

TEST_RESU(RESU=( _F(  RESULTAT = MSLINP,    NUME_ORDRE = 1,
                     NOM_CHAM = 'DEPL',
                     TYPE_TEST = 'SOMM_ABS',
       REFERENCE = 'NON_REGRESSION', PRECISION = 1.5E-10, VERSION = '6.3.20',
                   VALE = 5.5866455704374E+07),
                   _F(  RESULTAT = MSLINP,    NUME_ORDRE = 2,
                     NOM_CHAM = 'DEPL',
                     TYPE_TEST = 'SOMM_ABS',
       REFERENCE = 'NON_REGRESSION', PRECISION = 1.5E-10, VERSION = '6.3.20',
                   VALE = 5.6645815227581E+07),
                   _F(  RESULTAT = MSLINP,    NUME_ORDRE = 3,
                     NOM_CHAM = 'DEPL',
                     TYPE_TEST = 'SOMM_ABS',
       REFERENCE = 'NON_REGRESSION', PRECISION = 1.5E-10, VERSION = '6.3.20',
                   VALE =  5.7425380507817E+07))
            )

MSLI2=MECA_STATIQUE(        MODELE=MO,
                          CHAM_MATER=CHMAT,
                           CARA_ELEM=CARA1,
                           EXCIT=(
                              _F(  CHARGE = CHCI,  FONC_MULT = FO12),
                              _F(  CHARGE = CHMECF, FONC_MULT = FO12),
                              _F(  CHARGE = CHCIF, FONC_MULT = FO11),
                              _F(  CHARGE = CHMETH)),
                          LIST_INST=LR1)

TEST_RESU(RESU=( _F(  RESULTAT = MSLI2,    NUME_ORDRE = 1,
                     NOM_CHAM = 'DEPL',
                     TYPE_TEST = 'SOMM_ABS',
       REFERENCE = 'NON_REGRESSION', PRECISION = 1.5E-10, VERSION = '6.0.24',
                   VALE = 5.0040249368851E+05),
                   _F(  RESULTAT = MSLI2,    NUME_ORDRE = 2,
                     NOM_CHAM = 'DEPL',
                     TYPE_TEST = 'SOMM_ABS',
       REFERENCE = 'NON_REGRESSION', PRECISION = 1.5E-10, VERSION = '6.0.24',
                   VALE = 5.2878928406257E+05),
                   _F(  RESULTAT = MSLI2,    NUME_ORDRE = 3,
                     NOM_CHAM = 'DEPL',
                     TYPE_TEST = 'SOMM_ABS',
       REFERENCE = 'NON_REGRESSION', PRECISION = 1.5E-10, VERSION = '6.0.24',
                   VALE = 5.5926291200058E+05))
            )

# ----------------------------------------------------------------------
#   POST_TRAITEMENT DU CALCUL
# ----------------------------------------------------------------------
CALC_ELEM( reuse=MSLI2,   OPTION=(  'SIGM_ELNO_DEPL',
                                    'EPME_ELGA_DEPL',
                                    'EPME_ELNO_DEPL', 'EPOT_ELEM_DEPL',
                                    'EPSG_ELGA_DEPL', 'EPSG_ELNO_DEPL',
                                    'EPSI_ELGA_DEPL', 'EPSI_ELNO_DEPL',
                                    'EQUI_ELNO_SIGM', 'EQUI_ELGA_SIGM',
                                    'EQUI_ELNO_EPSI', 'EQUI_ELGA_EPSI',
                                    'EQUI_ELNO_EPME', ),
                          RESULTAT=MSLI2,
                          NUME_ORDRE=(1, 2, 3,) )

TEST_RESU(RESU=( _F(  RESULTAT = MSLI2,    NUME_ORDRE = 1,
                     NOM_CHAM = 'SIEF_ELGA_DEPL',
                     TYPE_TEST = 'SOMM_ABS',
       REFERENCE = 'NON_REGRESSION', PRECISION = 1.5E-10, VERSION = '6.0.24',
                   VALE = 2.9728453925868E+06),
                   _F(  RESULTAT = MSLI2,    NUME_ORDRE = 2,
                     NOM_CHAM = 'SIEF_ELGA_DEPL',
                     TYPE_TEST = 'SOMM_ABS',
       REFERENCE = 'NON_REGRESSION', PRECISION = 1.5E-10, VERSION = '6.0.24',
                   VALE = 3.1437853027843E+06),
                   _F(  RESULTAT = MSLI2,    NUME_ORDRE = 3,
                     NOM_CHAM = 'SIEF_ELGA_DEPL',
                     TYPE_TEST = 'SOMM_ABS',
       REFERENCE = 'NON_REGRESSION', PRECISION = 1.5E-10, VERSION = '6.0.24',
                   VALE = 3.3270641923174E+06),
                   _F(  RESULTAT = MSLI2,    NUME_ORDRE = 1,
                     NOM_CHAM = 'SIGM_ELNO_DEPL',
                     TYPE_TEST = 'SOMM_ABS',
       REFERENCE = 'NON_REGRESSION', PRECISION = 1.5E-10, VERSION = '6.0.24',
                   VALE = 4.1760902810419E+06),
                   _F(  RESULTAT = MSLI2,    NUME_ORDRE = 2,
                     NOM_CHAM = 'SIGM_ELNO_DEPL',
                     TYPE_TEST = 'SOMM_ABS',
       REFERENCE = 'NON_REGRESSION', PRECISION = 1.5E-10, VERSION = '6.0.24',
                   VALE = 4.4141557950495E+06),
                   _F(  RESULTAT = MSLI2,    NUME_ORDRE = 3,
                     NOM_CHAM = 'SIGM_ELNO_DEPL',
                     TYPE_TEST = 'SOMM_ABS',
       REFERENCE = 'NON_REGRESSION', PRECISION = 1.5E-10, VERSION = '6.0.24',
                   VALE = 4.6695909135822E+06),
                   _F(  RESULTAT = MSLI2,    NUME_ORDRE = 1,
                     NOM_CHAM = 'EPME_ELGA_DEPL',
                     TYPE_TEST = 'SOMM_ABS',
       REFERENCE = 'NON_REGRESSION', PRECISION = 1.5E-10, VERSION = '6.0.24',
                   VALE = 1.1217762210765E+06),
                   _F(  RESULTAT = MSLI2,    NUME_ORDRE = 2,
                     NOM_CHAM = 'EPME_ELGA_DEPL',
                     TYPE_TEST = 'SOMM_ABS',
       REFERENCE = 'NON_REGRESSION', PRECISION = 1.5E-10, VERSION = '6.0.24',
                   VALE = 1.1861408485782E+06),
                   _F(  RESULTAT = MSLI2,    NUME_ORDRE = 3,
                     NOM_CHAM = 'EPME_ELGA_DEPL',
                     TYPE_TEST = 'SOMM_ABS',
       REFERENCE = 'NON_REGRESSION', PRECISION = 1.5E-10, VERSION = '6.0.24',
                   VALE = 1.2551615904483E+06),
                   _F(  RESULTAT = MSLI2,    NUME_ORDRE = 1,
                     NOM_CHAM = 'EPME_ELNO_DEPL',
                     TYPE_TEST = 'SOMM_ABS',
       REFERENCE = 'NON_REGRESSION', PRECISION = 1.5E-10, VERSION = '6.0.24',
                   VALE = 1.6316686707984E+06),
                   _F(  RESULTAT = MSLI2,    NUME_ORDRE = 2,
                     NOM_CHAM = 'EPME_ELNO_DEPL',
                     TYPE_TEST = 'SOMM_ABS',
       REFERENCE = 'NON_REGRESSION', PRECISION = 1.5E-10, VERSION = '6.0.24',
                   VALE = 1.7245741500591E+06),
                   _F(  RESULTAT = MSLI2,    NUME_ORDRE = 3,
                     NOM_CHAM = 'EPME_ELNO_DEPL',
                     TYPE_TEST = 'SOMM_ABS',
       REFERENCE = 'NON_REGRESSION', PRECISION = 1.5E-10, VERSION = '6.0.24',
                   VALE = 1.8243038940929E+06),
                   _F(  RESULTAT = MSLI2,    NUME_ORDRE = 1,
                     NOM_CHAM = 'EPOT_ELEM_DEPL',
                     TYPE_TEST = 'SOMM_ABS',
       REFERENCE = 'NON_REGRESSION', PRECISION = 1.5E-10, VERSION = '6.3.20',
                   VALE = 1.8050674720780E+09),
                   _F(  RESULTAT = MSLI2,    NUME_ORDRE = 2,
                     NOM_CHAM = 'EPOT_ELEM_DEPL',
                     TYPE_TEST = 'SOMM_ABS',
       REFERENCE = 'NON_REGRESSION', PRECISION = 1.5E-10, VERSION = '6.3.20',
                   VALE = 2.0204503234581E+09),
                   _F(  RESULTAT = MSLI2,    NUME_ORDRE = 3,
                     NOM_CHAM = 'EPOT_ELEM_DEPL',
                     TYPE_TEST = 'SOMM_ABS',
       REFERENCE = 'NON_REGRESSION', PRECISION = 1.5E-10, VERSION = '6.3.20',
                   VALE = 2.2647018895933E+09),
                   _F(  RESULTAT = MSLI2,    NUME_ORDRE = 1,
                     NOM_CHAM = 'EPSG_ELGA_DEPL',
                     TYPE_TEST = 'SOMM_ABS',
       REFERENCE = 'NON_REGRESSION', PRECISION = 1.5E-10, VERSION = '6.0.24',
                   VALE = 1.1465458477729E+10),
                   _F(  RESULTAT = MSLI2,    NUME_ORDRE = 2,
                     NOM_CHAM = 'EPSG_ELGA_DEPL',
                     TYPE_TEST = 'SOMM_ABS',
       REFERENCE = 'NON_REGRESSION', PRECISION = 1.5E-10, VERSION = '6.0.24',
                   VALE = 1.2833342062047E+10),
                   _F(  RESULTAT = MSLI2,    NUME_ORDRE = 3,
                     NOM_CHAM = 'EPSG_ELGA_DEPL',
                     TYPE_TEST = 'SOMM_ABS',
       REFERENCE = 'NON_REGRESSION', PRECISION = 1.5E-10, VERSION = '6.0.24',
                   VALE = 1.4384528151804E+10),
                   _F(  RESULTAT = MSLI2,    NUME_ORDRE = 1,
                     NOM_CHAM = 'EPSG_ELNO_DEPL',
                     TYPE_TEST = 'SOMM_ABS',
       REFERENCE = 'NON_REGRESSION', PRECISION = 1.5E-10, VERSION = '6.0.24',
                   VALE = 9.9812176132820E+09),
                   _F(  RESULTAT = MSLI2,    NUME_ORDRE = 2,
                     NOM_CHAM = 'EPSG_ELNO_DEPL',
                     TYPE_TEST = 'SOMM_ABS',
       REFERENCE = 'NON_REGRESSION', PRECISION = 1.5E-10, VERSION = '6.0.24',
                   VALE = 1.1172598569630E+10),
                   _F(  RESULTAT = MSLI2,    NUME_ORDRE = 3,
                     NOM_CHAM = 'EPSG_ELNO_DEPL',
                     TYPE_TEST = 'SOMM_ABS',
       REFERENCE = 'NON_REGRESSION', PRECISION = 1.5E-10, VERSION = '6.0.24',
                   VALE = 1.2523716887162E+10),
                   _F(  RESULTAT = MSLI2,    NUME_ORDRE = 1,
                     NOM_CHAM = 'EPSI_ELGA_DEPL',
                     TYPE_TEST = 'SOMM_ABS',
       REFERENCE = 'NON_REGRESSION', PRECISION = 1.5E-10, VERSION = '6.0.24',
                   VALE = 1.1216316369459E+06),
                   _F(  RESULTAT = MSLI2,    NUME_ORDRE = 2,
                     NOM_CHAM = 'EPSI_ELGA_DEPL',
                     TYPE_TEST = 'SOMM_ABS',
       REFERENCE = 'NON_REGRESSION', PRECISION = 1.5E-10, VERSION = '6.0.24',
                   VALE = 1.1859554358860E+06),
                   _F(  RESULTAT = MSLI2,    NUME_ORDRE = 3,
                     NOM_CHAM = 'EPSI_ELGA_DEPL',
                     TYPE_TEST = 'SOMM_ABS',
       REFERENCE = 'NON_REGRESSION', PRECISION = 1.5E-10, VERSION = '6.0.24',
                   VALE = 1.2549668361568E+06),
                   _F(  RESULTAT = MSLI2,    NUME_ORDRE = 1,
                     NOM_CHAM = 'EPSI_ELNO_DEPL',
                     TYPE_TEST = 'SOMM_ABS',
       REFERENCE = 'NON_REGRESSION', PRECISION = 1.5E-10, VERSION = '6.0.24',
                   VALE = 1.6311837343226E+06),
                   _F(  RESULTAT = MSLI2,    NUME_ORDRE = 2,
                     NOM_CHAM = 'EPSI_ELNO_DEPL',
                     TYPE_TEST = 'SOMM_ABS',
       REFERENCE = 'NON_REGRESSION', PRECISION = 1.5E-10, VERSION = '6.0.24',
                   VALE = 1.7240510462713E+06),
                   _F(  RESULTAT = MSLI2,    NUME_ORDRE = 3,
                     NOM_CHAM = 'EPSI_ELNO_DEPL',
                     TYPE_TEST = 'SOMM_ABS',
       REFERENCE = 'NON_REGRESSION', PRECISION = 1.5E-10, VERSION = '6.0.24',
                   VALE = 1.8237552872508E+06),
                   _F(  RESULTAT = MSLI2,    NUME_ORDRE = 1,
                     NOM_CHAM = 'EQUI_ELNO_SIGM',
                     TYPE_TEST = 'SOMM_ABS',
       REFERENCE = 'NON_REGRESSION', PRECISION = 1.5E-10, VERSION = '7.01.13',
                   VALE = 9.5347098357285E+06),
                   _F(  RESULTAT = MSLI2,    NUME_ORDRE = 2,
                     NOM_CHAM = 'EQUI_ELNO_SIGM',
                     TYPE_TEST = 'SOMM_ABS',
       REFERENCE = 'NON_REGRESSION', PRECISION = 1.5E-10, VERSION = '7.01.13',
                   VALE = 1.0079773123554E+07),
                   _F(  RESULTAT = MSLI2,    NUME_ORDRE = 3,
                     NOM_CHAM = 'EQUI_ELNO_SIGM',
                     TYPE_TEST = 'SOMM_ABS',
       REFERENCE = 'NON_REGRESSION', PRECISION = 1.5E-10, VERSION = '7.01.13',
                   VALE = 1.0664265803158E+07),
                   _F(  RESULTAT = MSLI2,    NUME_ORDRE = 1,
                     NOM_CHAM = 'EQUI_ELGA_SIGM',
                     TYPE_TEST = 'SOMM_ABS',
       REFERENCE = 'NON_REGRESSION', PRECISION = 1.5E-10, VERSION = '6.0.24',
                   VALE = 7.2343419744032E+06),
                   _F(  RESULTAT = MSLI2,    NUME_ORDRE = 2,
                     NOM_CHAM = 'EQUI_ELGA_SIGM',
                     TYPE_TEST = 'SOMM_ABS',
       REFERENCE = 'NON_REGRESSION', PRECISION = 1.5E-10, VERSION = '6.0.24',
                   VALE = 7.6504880886661E+06),
                   _F(  RESULTAT = MSLI2,    NUME_ORDRE = 3,
                     NOM_CHAM = 'EQUI_ELGA_SIGM',
                     TYPE_TEST = 'SOMM_ABS',
       REFERENCE = 'NON_REGRESSION', PRECISION = 1.5E-10, VERSION = '6.0.24',
                   VALE = 8.0966835084760E+06),
                   _F(  RESULTAT = MSLI2,    NUME_ORDRE = 1,
                     NOM_CHAM = 'EQUI_ELNO_EPSI',
                     TYPE_TEST = 'SOMM_ABS',
       REFERENCE = 'NON_REGRESSION', PRECISION = 1.5E-10, VERSION = '6.0.24',
                   VALE = 3.2312509156443E+06),
                   _F(  RESULTAT = MSLI2,    NUME_ORDRE = 2,
                     NOM_CHAM = 'EQUI_ELNO_EPSI',
                     TYPE_TEST = 'SOMM_ABS',
       REFERENCE = 'NON_REGRESSION', PRECISION = 1.5E-10, VERSION = '6.0.24',
                   VALE = 3.4151246836926E+06),
                   _F(  RESULTAT = MSLI2,    NUME_ORDRE = 3,
                     NOM_CHAM = 'EQUI_ELNO_EPSI',
                     TYPE_TEST = 'SOMM_ABS',
       REFERENCE = 'NON_REGRESSION', PRECISION = 1.5E-10, VERSION = '6.0.24',
                   VALE = 3.6125353319814E+06),
                   _F(  RESULTAT = MSLI2,    NUME_ORDRE = 1,
                     NOM_CHAM = 'EQUI_ELGA_EPSI',
                     TYPE_TEST = 'SOMM_ABS',
       REFERENCE = 'NON_REGRESSION', PRECISION = 1.5E-10, VERSION = '6.0.24',
                   VALE = 2.2210108622570E+06),
                   _F(  RESULTAT = MSLI2,    NUME_ORDRE = 2,
                     NOM_CHAM = 'EQUI_ELGA_EPSI',
                     TYPE_TEST = 'SOMM_ABS',
       REFERENCE = 'NON_REGRESSION', PRECISION = 1.5E-10, VERSION = '6.0.24',
                   VALE = 2.3481856864005E+06),
                   _F(  RESULTAT = MSLI2,    NUME_ORDRE = 3,
                     NOM_CHAM = 'EQUI_ELGA_EPSI',
                     TYPE_TEST = 'SOMM_ABS',
       REFERENCE = 'NON_REGRESSION', PRECISION = 1.5E-10, VERSION = '6.0.24',
                   VALE = 2.4846090372798E+06),
                   _F(  RESULTAT = MSLI2,    NUME_ORDRE = 3,
                     NOM_CHAM = 'EQUI_ELNO_EPME',
                     TYPE_TEST = 'SOMM_ABS',
       REFERENCE = 'NON_REGRESSION', PRECISION = 1.5E-10, VERSION = '6.0.24',
                   VALE = 3.6128541270505E+06))
            )

CALC_NO( reuse=MSLI2,       OPTION=( 'EPSI_NOEU_DEPL', 'EQUI_NOEU_SIGM',
                                  'EQUI_NOEU_EPSI', 'SIGM_NOEU_DEPL',
                                  'EQUI_NOEU_EPME',),
                        RESULTAT=MSLI2,
                        PRECISION=1.000000000E-03,
                        CRITERE='ABSOLU',
                           INST=11.5   )

TEST_RESU(RESU=( _F(  RESULTAT = MSLI2,    INST = 11.5,
                     NOM_CHAM = 'EPSI_NOEU_DEPL',
                     TYPE_TEST = 'SOMM_ABS',
       REFERENCE = 'NON_REGRESSION', PRECISION = 1.5E-10, VERSION = '6.0.24',
                   VALE = 5.3763365741384E+05),
                   _F(  RESULTAT = MSLI2,    INST = 11.5,
                     NOM_CHAM = 'EQUI_NOEU_SIGM',
                     TYPE_TEST = 'SOMM_ABS',
       REFERENCE = 'NON_REGRESSION', PRECISION = 1.5E-10, VERSION = '7.01.13',
                   VALE = 3.4810513116520E+06),
                   _F(  RESULTAT = MSLI2,    INST = 11.5,
                     NOM_CHAM = 'EQUI_NOEU_EPSI',
                     TYPE_TEST = 'SOMM_ABS',
       REFERENCE = 'NON_REGRESSION', PRECISION = 1.5E-10, VERSION = '6.0.24',
                   VALE = 1.3391016574828E+06),
                   _F(  RESULTAT = MSLI2,    INST = 11.5,
                     NOM_CHAM = 'SIGM_NOEU_DEPL',
                     TYPE_TEST = 'SOMM_ABS',
       REFERENCE = 'NON_REGRESSION', PRECISION = 1.5E-10, VERSION = '6.0.24',
                   VALE = 1.0013447338397E+06),
                   _F(  RESULTAT = MSLI2,    INST = 11.5,
                     NOM_CHAM = 'EQUI_NOEU_EPME',
                     TYPE_TEST = 'SOMM_ABS',
       REFERENCE = 'NON_REGRESSION', PRECISION = 1.5E-10, VERSION = '6.0.24',
                   VALE = 1.3390428095903E+06))
            )

# --------------------------------------------------------------------
# POUR TESTER LE CALCUL DE REAC_NODA SUR UN GROUP_MA :
# ----------------------------------------------------
CALC_ELEM( reuse=MSLI2, OPTION='SIEF_ELGA_DEPL',
                          RESULTAT=MSLI2,
                      MAILLE=('M11','M12','M14',),
                       NUME_ORDRE=3 )

TEST_RESU(RESU=( _F(  RESULTAT = MSLI2,    NUME_ORDRE = 3,
                     NOM_CHAM = 'SIEF_ELGA_DEPL',
                     TYPE_TEST = 'SOMM_ABS',
       REFERENCE = 'NON_REGRESSION', PRECISION = 1.5E-10, VERSION = '6.0.24',
                   VALE = 4.8908644332410E+02),
                   _F(  RESULTAT = MSLI2,    NUME_ORDRE = 3,
                     NOM_CHAM = 'SIEF_ELGA_DEPL',
                     TYPE_TEST = 'SOMM',
       REFERENCE = 'NON_REGRESSION', PRECISION = 1.5E-10, VERSION = '6.0.24',
                   VALE = 8.6090360368864E+01))
            )

CHME2=AFFE_CHAR_MECA(           MODELE=MO,
                           TEMP_CALCULEE=THLIN,
                               PESANTEUR=(9.8,  0.3,  0.1, -0.4,))

CALC_NO( reuse=MSLI2, OPTION='REAC_NODA', RESULTAT=MSLI2, MAILLE=('M11','M14',),
                       NUME_ORDRE=3 )

TEST_RESU(RESU=( _F(  RESULTAT = MSLI2,    NUME_ORDRE = 3,
                      NOM_CHAM = 'REAC_NODA', TYPE_TEST = 'SOMM_ABS',
                      REFERENCE = 'NON_REGRESSION', PRECISION = 1.5E-10, VERSION = '7.3.16',
                      VALE = 2.0811212436432E+02),
                   _F(  RESULTAT = MSLI2,    NUME_ORDRE = 3,
                      NOM_CHAM = 'REAC_NODA', TYPE_TEST = 'SOMM',
                      REFERENCE = 'NON_REGRESSION', PRECISION = 1.5E-10, VERSION = '7.3.16',
                      VALE = 1.0582630602547E+01),
                   _F(  RESULTAT = MSLI2,    NUME_ORDRE = 3,
                     NOM_CHAM = 'REAC_NODA', TYPE_TEST = 'MAX',
                     REFERENCE = 'NON_REGRESSION', PRECISION = 1.5E-10, VERSION = '6.0.24',
                     VALE = 2.9832432011796E+01),
                   _F(  RESULTAT = MSLI2,    NUME_ORDRE = 3,
                     NOM_CHAM = 'REAC_NODA', TYPE_TEST = 'MIN',
                     REFERENCE = 'NON_REGRESSION', PRECISION = 1.5E-10, VERSION = '6.0.24',
                     VALE = -7.3898706671343E+01),
           ))

# --------------------------------------------------------------------

CHAMNO1=CREA_CHAMP(  OPERATION='EXTR', TYPE_CHAM='NOEU_DEPL_R',
NOM_CHAM='DEPL', RESULTAT=MSLI2,
                       INST=0.7,
                       INTERPOL='LIN'
                        )

TEST_RESU( CHAM_NO=_F(  CHAM_GD = CHAMNO1,
                        TYPE_TEST = 'SOMM_ABS',
       REFERENCE = 'NON_REGRESSION', PRECISION = 1.5E-10, VERSION = '6.0.24',
                   VALE = 5.0607914886943E+05))

CHAMEL1=CREA_CHAMP(  OPERATION='EXTR', TYPE_CHAM='ELGA_SIEF_R',
NOM_CHAM='SIEF_ELGA_DEPL', RESULTAT=MSLI2,
                       INST=1.8,
                       INTERPOL='LIN'
                        )

TEST_RESU( CHAM_ELEM=_F(  CHAM_GD = CHAMEL1,
                          TYPE_TEST = 'SOMM_ABS',
       REFERENCE = 'NON_REGRESSION', PRECISION = 1.5E-10, VERSION = '6.0.24',
                   VALE = 3.0383623431563E+06))

CHAMEL2=CREA_CHAMP(  OPERATION='EXTR', TYPE_CHAM='ELGA_EPSI_R',
NOM_CHAM='EPSI_ELGA_DEPL', RESULTAT=MSLI2,
                       INST=1.8,
                       INTERPOL='LIN'
                        )

TEST_RESU( CHAM_ELEM=_F(  CHAM_GD = CHAMEL2,
                          TYPE_TEST = 'SOMM_ABS',
       REFERENCE = 'NON_REGRESSION', PRECISION = 1.5E-10, VERSION = '6.0.24',
                   VALE = 1.1462823051590E+06))

CHAMEL3=CREA_CHAMP(  OPERATION='EXTR', TYPE_CHAM='ELNO_SIEF_R',
NOM_CHAM='SIGM_ELNO_DEPL', RESULTAT=MSLI2,
                       INST=1.8,
                       INTERPOL='LIN'
                        )

TEST_RESU( CHAM_ELEM=_F(  CHAM_GD = CHAMEL3,
                          TYPE_TEST = 'SOMM_ABS',
       REFERENCE = 'NON_REGRESSION', PRECISION = 1.5E-10, VERSION = '6.0.24',
                   VALE = 4.2673259909136E+06))

CHAMEL4=CREA_CHAMP(  OPERATION='EXTR', TYPE_CHAM='ELNO_EPSI_R',
NOM_CHAM='EPSI_ELNO_DEPL', RESULTAT=MSLI2,
                       INST=7.1,
                       INTERPOL='LIN'
                        )

TEST_RESU( CHAM_ELEM=_F(  CHAM_GD = CHAMEL4,
                          TYPE_TEST = 'SOMM_ABS',
       REFERENCE = 'NON_REGRESSION', PRECISION = 1.5E-10, VERSION = '6.0.24',
                   VALE = 1.7506231547418E+06))

TABLE1=POST_ELEM(        MODELE=MO,
                        CHAM_MATER=CHMAT,
                         CARA_ELEM=CARA1,
                             TITRE='MASSE INERTIE ET CENTRE DE GRAVITE',MASS_INER=(
                         _F( GROUP_MA = 'GMA8'),
                         _F( TOUT = 'OUI'),
                         _F( MAILLE = 'M54')) )

TEST_TABLE(      TABLE=TABLE1,       NOM_PARA='MASSE',
                TYPE_TEST='SOMM_ABS',
       REFERENCE='NON_REGRESSION', PRECISION=1.5E-10, VERSION='6.0.24',
                      VALE=1.0261189481187E+07   )

TEST_TABLE(      TABLE=TABLE1,       NOM_PARA='CDG_X',
                TYPE_TEST='SOMM_ABS',
                  CRITERE='ABSOLU',
       REFERENCE='NON_REGRESSION', PRECISION=1.5E-10, VERSION='6.0.24',
                     VALE=0.0000000000000E+00    )

TEST_TABLE(      TABLE=TABLE1,       NOM_PARA='CDG_Y',
                TYPE_TEST='SOMM_ABS',
                  CRITERE='ABSOLU',
       REFERENCE='NON_REGRESSION', PRECISION=1.5E-10, VERSION='6.0.24',
                     VALE=0.0000000000000E+00    )

TEST_TABLE(      TABLE=TABLE1,       NOM_PARA='CDG_Z',
                TYPE_TEST='SOMM_ABS',
       REFERENCE='NON_REGRESSION', PRECISION=1.5E-10, VERSION='6.0.24',
                     VALE=8.5447077334616E+00    )

TEST_TABLE(      TABLE=TABLE1,       NOM_PARA='IX_G',
                TYPE_TEST='SOMM_ABS',
       REFERENCE='NON_REGRESSION', PRECISION=1.5E-10, VERSION='6.0.24',
                     VALE=1.8214556012303E+08    )

TEST_TABLE(      TABLE=TABLE1,       NOM_PARA='IY_G',
                TYPE_TEST='SOMM_ABS',
       REFERENCE='NON_REGRESSION', PRECISION=1.5E-10, VERSION='6.0.24',
                     VALE=1.8214556012303E+08    )

TEST_TABLE(      TABLE=TABLE1,       NOM_PARA='IZ_G',
                TYPE_TEST='SOMM_ABS',
       REFERENCE='NON_REGRESSION', PRECISION=1.5E-10, VERSION='6.0.24',
                     VALE=2.0799354342910E+08    )

TEST_TABLE(      TABLE=TABLE1,       NOM_PARA='IXY_G',
                TYPE_TEST='SOMM_ABS',
                  CRITERE='ABSOLU',
       REFERENCE='NON_REGRESSION', PRECISION=1.5E-10, VERSION='6.0.24',
                     VALE=0.0000000000000E+00    )

TEST_TABLE(      TABLE=TABLE1,       NOM_PARA='IXZ_G',
                  CRITERE='ABSOLU',
                TYPE_TEST='SOMM_ABS',
       REFERENCE='NON_REGRESSION', PRECISION=1.5E-10, VERSION='6.0.24',
                     VALE=0.0000000000000E+00    )

TEST_TABLE(      TABLE=TABLE1,       NOM_PARA='IYZ_G',
                  CRITERE='ABSOLU',
                TYPE_TEST='SOMM_ABS',
       REFERENCE='NON_REGRESSION', PRECISION=1.5E-10, VERSION='6.0.24',
                     VALE=0.0000000000000E+00    )

TEST_TABLE(      TABLE=TABLE1,       NOM_PARA='IX_PRIN_G',
                TYPE_TEST='SOMM_ABS',
       REFERENCE='NON_REGRESSION', PRECISION=1.5E-10, VERSION='6.0.24',
                     VALE=1.8214556012303E+08    )

TEST_TABLE(      TABLE=TABLE1,       NOM_PARA='IY_PRIN_G',
                TYPE_TEST='SOMM_ABS',
       REFERENCE='NON_REGRESSION', PRECISION=1.5E-10, VERSION='6.0.24',
                     VALE=1.8214556012303E+08    )

TEST_TABLE(      TABLE=TABLE1,       NOM_PARA='IZ_PRIN_G',
                TYPE_TEST='SOMM_ABS',
       REFERENCE='NON_REGRESSION', PRECISION=1.5E-10, VERSION='6.0.24',
                     VALE=2.0799354342910E+08    )

TEST_TABLE(      TABLE=TABLE1,       NOM_PARA='ALPHA',
                TYPE_TEST='SOMM_ABS',
       REFERENCE='NON_REGRESSION', PRECISION=1.5E-10, VERSION='6.0.24',
                     VALE=2.7000000000000E+02    )

TEST_TABLE(      TABLE=TABLE1,       NOM_PARA='BETA',
                TYPE_TEST='SOMM_ABS',
                  CRITERE='ABSOLU',
       REFERENCE='NON_REGRESSION', PRECISION=1.5E-10, VERSION='6.0.24',
                     VALE=0.0000000000000E+00    )

TEST_TABLE(      TABLE=TABLE1,       NOM_PARA='GAMMA',
                TYPE_TEST='SOMM_ABS',
       REFERENCE='NON_REGRESSION', PRECISION=1.5E-10, VERSION='6.0.24',
                     VALE=5.4000000000000E+02    )

TABLE2=POST_ELEM(  RESULTAT=MSLI2,  INST=5.5,
                          ENER_POT=_F( TOUT = 'OUI',
                                    GROUP_MA = 'GMA8',
                                    MAILLE = ('M44', 'M99',)))

TEST_TABLE(      TABLE=TABLE2,       NOM_PARA='NUME_ORDRE',
                TYPE_TEST='SOMM_ABS',
       REFERENCE='NON_REGRESSION', PRECISION=1.5E-10, VERSION='6.0.24',
                          VALE_I=8               )

TEST_TABLE(      TABLE=TABLE2,       NOM_PARA='TOTALE',
                TYPE_TEST='SOMM_ABS',
       REFERENCE='NON_REGRESSION', PRECISION=1.5E-10, VERSION='6.3.20',
                     VALE=1.1948168710101E+08    )

TEST_TABLE(      TABLE=TABLE2,       NOM_PARA='POUR_CENT',
                TYPE_TEST='SOMM_ABS',
       REFERENCE='NON_REGRESSION', PRECISION=1.5E-10, VERSION='6.3.20',
                     VALE=3.3230110119484E+04    )

CHAMEL13=CREA_CHAMP(  OPERATION='EXTR', TYPE_CHAM='ELNO_SIEF_R',
NOM_CHAM='EQUI_ELNO_SIGM', RESULTAT=MSLI2,
                        INST=6.4,
                        INTERPOL='LIN'   )

TEST_RESU( CHAM_ELEM=_F(  CHAM_GD = CHAMEL13,
                          TYPE_TEST = 'SOMM_ABS',
       REFERENCE = 'NON_REGRESSION', PRECISION = 1.5E-10, VERSION = '7.01.13',
                   VALE = 1.0167144705033E+07))

CHAMEL14=CREA_CHAMP(  OPERATION='EXTR', TYPE_CHAM='ELGA_EPSI_R',
                       NOM_CHAM='EPSI_ELGA_DEPL', RESULTAT=MSLI2,
                       TYPE_MAXI='MINI',
                       TYPE_RESU='VALE',
                       TOUT_ORDRE='OUI' )

TEST_RESU( CHAM_ELEM=_F(  CHAM_GD = CHAMEL14,
                          TYPE_TEST = 'SOMM_ABS',
       REFERENCE = 'NON_REGRESSION', PRECISION = 1.5E-10, VERSION = '6.0.24',
                   VALE = 1.1882590697992E+06))

CHAMNO3=CREA_CHAMP( OPERATION='EXTR', TYPE_CHAM='NOEU_DEPL_R',
                      NOM_CHAM='DEPL', RESULTAT=MSLI2,
                      TYPE_MAXI='NORM_TRAN',
                      TYPE_RESU='INST',
                      LIST_INST=LR1    )

TEST_RESU( CHAM_NO=_F(  CHAM_GD = CHAMNO3,
                        TYPE_TEST = 'SOMM_ABS',
       REFERENCE = 'NON_REGRESSION', PRECISION = 1.5E-10, VERSION = '6.0.24',
                   VALE = 2.6842777494110E+04))

LR3=DEFI_LIST_REEL(         DEBUT=0.,
                         INTERVALLE=_F(  JUSQU_A = 10.,
                                      NOMBRE = 5) )

FO18=RECU_FONCTION(       RESULTAT=MSLI2,
                            NOM_CHAM='SIGM_ELNO_DEPL',
                              MAILLE='M71',
                               NOEUD='N156',
                             NOM_CMP='SIXY',
                           LIST_INST=LR3,
                         INTERP_NUME='LIN',
                            NOM_PARA='INST',
                            NOM_RESU='VITE',
                            INTERPOL=('LIN', 'LOG',),
                          PROL_DROITE='LINEAIRE',
                         PROL_GAUCHE='CONSTANT'  )

FO19=RECU_FONCTION(        CHAM_GD=CHAMEL2,
                              MAILLE='M88',
                               POINT=2,
                             NOM_CMP='EPXX',
                            INTERPOL=('LIN', 'LOG',),
                          PROL_DROITE='CONSTANT',
                         PROL_GAUCHE='CONSTANT'  )

FO20=RECU_FONCTION(        CHAM_GD=CHAMNO1,
                             NOM_CMP='DX',
                               NOEUD='N137',
                            INTERPOL=('LIN', 'LOG',),
                          PROL_DROITE='CONSTANT',
                         PROL_GAUCHE='CONSTANT'  )

FO21=CALC_FONCTION( COMB=(   _F(  FONCTION = FO10,
                                COEF = 5.1),
                         _F(  FONCTION = FO11,
                                COEF = -3.7),
                         _F(  FONCTION = FO12,
                                COEF = 0.8)),
                            NOM_PARA='INST',
                            NOM_RESU='VITE',
                          PROL_DROITE='LINEAIRE',
                         PROL_GAUCHE='LINEAIRE'  )

FO22=CALC_FONCTION(      DERIVE=_F(  FONCTION = FO18) )

FO23=CALC_FONCTION(     INTEGRE=_F(  FONCTION = FO21,
                                    COEF = 1.4) )

FO24=INFO_FONCTION(         MAX=_F(  FONCTION = FO21), )

FO25=CALC_FONCTION(    ENVELOPPE=_F(  FONCTION = ( FO10, FO11, FO12, ),
                                     CRITERE = 'INF') )

FO26=CALC_FONCTION(    ENVELOPPE=_F(  FONCTION = ( FO11, FO12, ),
                                     CRITERE = 'SUP') )

CHEM1=INTE_MAIL_2D(        MAILLAGE=MA,
                          DEFI_CHEMIN=_F(  MAILLE = ('M99', 'M147', 'M148', 'M100',)),
                            PRECISION=1.E-05 )

TABLE3=POST_RELEVE_T( ACTION=(   _F(  NOEUD = ( 'N109', 'N110', 'N111',
                                                      'N104', 'N103', ),
                                    RESULTAT = MSLI2,
                                    NOM_CHAM = 'EPSI_ELNO_DEPL',
                                    NUME_ORDRE = 2,
                                    PRECISION = 1.E-05,
                                    CRITERE = 'RELATIF',
                                    NOM_CMP = ('EPXX', 'EPXY',),
                                    REPERE = 'LOCAL',
                                    TRAC_DIR = 'OUI',
                                    DIRECTION = (0.5, 0.6, 0.3,),
                                    INTITULE = 'TABLE_3A',
                                    OPERATION = 'EXTRACTION'),
                           _F(  CHEMIN = CHEM1,
                                    CHAM_GD = CHAMNO1,
                                    RESULTANTE = ('DY', 'DX',),
                                    INTITULE = 'TABLE_3B',
                                    OPERATION = 'MOYENNE',
                                    MOYE_NOEUD = 'NON')) )

TEST_TABLE(      TABLE=TABLE3,       NOM_PARA='DX',
                TYPE_TEST='SOMM_ABS',
       REFERENCE='NON_REGRESSION', PRECISION=1.5E-10, VERSION='6.0.24',
                    VALE=3.3430785922860E+03     )

TEST_TABLE(      TABLE=TABLE3,       NOM_PARA='DY',
                TYPE_TEST='SOMM_ABS',
       REFERENCE='NON_REGRESSION', PRECISION=1.5E-10, VERSION='6.0.24',
                    VALE=1.2403267245684E+04     )

TEST_TABLE(      TABLE=TABLE3,       NOM_PARA='TR_DIR_1',
                TYPE_TEST='SOMM',
       REFERENCE='NON_REGRESSION', PRECISION=1.5E-10, VERSION='6.0.24',
                    VALE=-4.6550577450478E+03     )

TEST_TABLE(      TABLE=TABLE3,       NOM_PARA='TR_DIR_2',
                TYPE_TEST='SOMM_ABS',
       REFERENCE='NON_REGRESSION', PRECISION=1.5E-10, VERSION='6.0.24',
                    VALE=1.6694817868101E+04    )

TEST_TABLE(      TABLE=TABLE3,       NOM_PARA='TR_DIR_2',
                TYPE_TEST='MAX',
       REFERENCE='NON_REGRESSION', PRECISION=1.5E-10, VERSION='6.0.24',
                    VALE=2.6817464661913E+03     )

TEST_TABLE(      TABLE=TABLE3,       NOM_PARA='TR_DIR_2',
                TYPE_TEST='MIN',
       REFERENCE='NON_REGRESSION', PRECISION=1.5E-10, VERSION='6.0.24',
                     VALE=-7.6674994994260E+03   )

TEST_TABLE(      TABLE=TABLE3,       NOM_PARA='TR_DIR_3',
                TYPE_TEST='SOMM',
       REFERENCE='NON_REGRESSION', PRECISION=1.5E-10, VERSION='6.0.24',
                    VALE=3.9042274080533E+01    )

FIN( )
#
