# MODIF  DATE 10/10/2012   AUTEUR COURTOIS M.COURTOIS 
# TITRE TEST DE NON-REGRESSION ASTER : MECANIQUE LINEAIRE AXISYMETRIQUE
# RESPONSABLE PELLET J.PELLET
# ssla200a.para = tps_job 60 mem_job 512Mo ncpus 1 liste_test S
#            CONFIGURATION MANAGEMENT OF EDF VERSION
# ======================================================================
# COPYRIGHT (C) 1991 - 2012  EDF R&D                  WWW.CODE-ASTER.ORG
# THIS PROGRAM IS FREE SOFTWARE; YOU CAN REDISTRIBUTE IT AND/OR MODIFY
# IT UNDER THE TERMS OF THE GNU GENERAL PUBLIC LICENSE AS PUBLISHED BY
# THE FREE SOFTWARE FOUNDATION; EITHER VERSION 2 OF THE LICENSE, OR
# (AT YOUR OPTION) ANY LATER VERSION.
#
# THIS PROGRAM IS DISTRIBUTED IN THE HOPE THAT IT WILL BE USEFUL, BUT
# WITHOUT ANY WARRANTY; WITHOUT EVEN THE IMPLIED WARRANTY OF
# MERCHANTABILITY OR FITNESS FOR A PARTICULAR PURPOSE. SEE THE GNU
# GENERAL PUBLIC LICENSE FOR MORE DETAILS.
#
# YOU SHOULD HAVE RECEIVED A COPY OF THE GNU GENERAL PUBLIC LICENSE
# ALONG WITH THIS PROGRAM; IF NOT, WRITE TO EDF R&D CODE_ASTER,
#    1 AVENUE DU GENERAL DE GAULLE, 92141 CLAMART CEDEX, FRANCE.
# ======================================================================
DEBUT(CODE=_F(NOM='SSLA200A',NIV_PUB_WEB='INTERNET'),DEBUG=_F(SDVERI='NON'))

# ========================================================================
# TEST DE NON REGRESSION :
# (les valeurs de reference ont ete obtenues par Code_Aster)
#
# - On utilise dans le maillage de nombreux types de mailles
#   (pour valider le plus d'elements finis)
#
# - domaines testes :
#      MECANIQUE LINEAIRE 2D, MODELISATION='AXIS'
# =========================================================================

# ----------------------------------------------------------------------
#    DEFINITION DU MODELE
# ----------------------------------------------------------------------
MA=LIRE_MAILLAGE(  )

DEFI_GROUP( reuse=MA,   MAILLAGE=MA,
                     CREA_GROUP_MA=_F(  NOM = 'TOUT', TOUT = 'OUI'))

DEFI_GROUP( reuse=MA, MAILLAGE=MA,
                   CREA_GROUP_MA=_F(  NOM = 'GMX1', MAILLE = 'M95'),
                   CREA_GROUP_NO=_F(  NOM = 'GNX1', NOEUD = 'N198') )

#      TRIA3  QUAD4  TRIA6  QUAD8  QUAD9

MO=AFFE_MODELE(    MAILLAGE=MA,
                         AFFE=_F(  TOUT = 'OUI',
                                PHENOMENE = 'MECANIQUE',
                                MODELISATION = 'AXIS') )

MOTH=AFFE_MODELE(    MAILLAGE=MA,
                           AFFE=_F(  TOUT = 'OUI',
                                  PHENOMENE = 'THERMIQUE',
                                  MODELISATION = 'AXIS') )

# ----------------------------------------------------------------------
#    DEFINITION DE CHAMPS
# ----------------------------------------------------------------------
LR1=DEFI_LIST_REEL(         DEBUT=-0.5,
                         INTERVALLE=_F(  JUSQU_A = 11.5,
                                      NOMBRE = 2) )

FO1=DEFI_FONCTION(    NOM_PARA='TEMP',

                        VALE=( -5.1, 1.05,
                                4.8, 1.12,
                               17.3, 1.14,),
                         PROL_DROITE='LINEAIRE',
                        PROL_GAUCHE='CONSTANT' )

FO2=DEFI_FONCTION(    NOM_PARA='TEMP',
                        VALE=( -8.1,  0.28,
                               12.5,  0.33,
                               25.7,  0.31,      ),
                         PROL_DROITE='LINEAIRE',
                        PROL_GAUCHE='CONSTANT' )

FO2_NU=DEFI_FONCTION(    NOM_PARA='TEMP',
                        VALE=( -8.1,  0.13674,
                               12.5,  0.185909619,
                               25.7,  0.14058841,      ),
                         PROL_DROITE='LINEAIRE',
                        PROL_GAUCHE='CONSTANT' )

FO3=DEFI_FONCTION(    NOM_PARA='TEMP',
                        VALE=( -5.1, 1.06,
                                4.8, 1.11,
                               17.3, 1.02,   ),
                         PROL_DROITE='LINEAIRE',
                        PROL_GAUCHE='CONSTANT' )

FO4=DEFI_FONCTION(    NOM_PARA='INST',
                        VALE=( -1.5, 0.85,
                                0.8, 0.98,
                                8.5, 0.94,   ),
                         PROL_DROITE='LINEAIRE',
                        PROL_GAUCHE='CONSTANT' )

FO5=DEFI_FONCTION(    NOM_PARA='X',
                        VALE=(  0.8, -0.91,
                                1.5, -0.94,
                                3.8, -0.89,  ),
                         PROL_DROITE='CONSTANT',
                        PROL_GAUCHE='LINEAIRE' )

FO6=DEFI_FONCTION(    NOM_PARA='Y',
                        VALE=( -2.1,  1.02E1,
                                3.3,  0.98,
                                8.9,  1.13E1,  ),
                         PROL_DROITE='LINEAIRE',
                        PROL_GAUCHE='LINEAIRE' )

FO7=DEFI_FONCTION(    NOM_PARA='INST',
                        VALE=(  0.,  -4.91,
                               11.2, -1.98,  ),
                         PROL_DROITE='LINEAIRE',
                        PROL_GAUCHE='LINEAIRE' )

FO8=DEFI_FONCTION(    NOM_PARA='X',
                        VALE=( -5.2,  6.11,
                                8.5,  6.04,  ),
                         PROL_DROITE='CONSTANT',
                        PROL_GAUCHE='CONSTANT' )

FO9=DEFI_FONCTION(    NOM_PARA='Y',
                        VALE=( -0.5, -6.05,
                               15.7, -5.88,  ),
                         PROL_DROITE='CONSTANT',
                        PROL_GAUCHE='LINEAIRE' )

FO10=DEFI_FONCTION(    NOM_PARA='INST',
                        VALE=(  2.6,  11.6,
                               19.2,  15.2,      ),
                         PROL_DROITE='CONSTANT',
                        PROL_GAUCHE='LINEAIRE' )

FO11=DEFI_FONCTION(    NOM_PARA='INST',
                        VALE=(  0.6,  0.94,
                               37.3,  1.02,      ),
                         PROL_DROITE='CONSTANT',
                        PROL_GAUCHE='LINEAIRE' )

FO12=DEFI_FONCTION(    NOM_PARA='INST',
                        VALE=( -5.4,  0.91,
                               31.4,  1.08,      ),
                         PROL_DROITE='LINEAIRE',
                        PROL_GAUCHE='LINEAIRE' )

FO13=DEFI_FONCTION(    NOM_PARA='TEMP',
                         VALE=( -1.1, 2.15,
                                 7.8, 1.82,
                                22.4, 2.41, ),
                          PROL_DROITE='LINEAIRE',
                         PROL_GAUCHE='CONSTANT' )

FO14=DEFI_FONCTION(    NOM_PARA='TEMP',
                         VALE=( -8.1,  0.19,
                                12.5,  0.25,
                                25.7,  0.34,      ),
                          PROL_DROITE='LINEAIRE',
                         PROL_GAUCHE='CONSTANT' )

FO15=DEFI_FONCTION(    NOM_PARA='TEMP',
                         VALE=( 9.2,  2.2,
                               11.4,  1.7,
                               15.8,  2.4,    ),
                          PROL_DROITE='LINEAIRE',
                         PROL_GAUCHE='CONSTANT' )

FO16=DEFI_FONCTION(    NOM_PARA='TEMP',
                         VALE=(  8.4, 5.15E1,
                                19.8, 2.82E1,
                                21.4, 4.74E1,   ),
                          PROL_DROITE='LINEAIRE',
                         PROL_GAUCHE='CONSTANT' )

FO17=DEFI_FONCTION(    NOM_PARA='TEMP',
                         VALE=( -12.5, 5.2E1,
                                  6.4, 6.8E1,
                                 11.2, 3.7E1,   ),
                          PROL_DROITE='LINEAIRE',
                         PROL_GAUCHE='CONSTANT' )

# ----------------------------------------------------------------------
#    DEFINITION DES CARACTERISTIQUES ELEMENTAIRES : AXES LOCAUX
# ----------------------------------------------------------------------
CARA1=AFFE_CARA_ELEM(    MODELE=MO,MASSIF=(
                           _F( GROUP_MA = 'TOUT', ANGL_REP = 21.4),
                           _F(  GROUP_MA = ('GMA10', 'GMA11', 'GMA12',), ANGL_REP = 0.),
                          ))

# ----------------------------------------------------------------------
#    DEFINITION ET AFFECTATION DES MATERIAUX : COMPORTEMENTS ELASTIQUES
# ----------------------------------------------------------------------
MAT1=DEFI_MATERIAU(    ELAS=_F(  E = 1.2,
                                NU = 0.3,
                                RHO = 7800.,
                                ALPHA = 1.2),
                         THER=_F(  RHO_CP = 1.4,
                                LAMBDA = 0.8) )

MAT2=DEFI_MATERIAU(    ELAS_FO=_F(  E = FO1,
                                   NU = FO2,
                                   RHO = 7820.,
                                   ALPHA = FO3,TEMP_DEF_ALPHA=6.9),
                         THER=_F(  RHO_CP = 1.2,
                                LAMBDA = 0.9) )

MAT3=DEFI_MATERIAU(    ELAS_ISTR=_F(  E_L = 1.5,
                                     E_N = 0.4,
                                     NU_LT = 0.25,
                                     NU_LN = 0.4,
                                     G_LN = 3.1E1,
                                     RHO = 8500.,
                                     ALPHA_L = 2.1,
                                     ALPHA_N = 0.8),
                         THER=_F(  RHO_CP = 2.2,
                                LAMBDA = 1.9) )

MAT4=DEFI_MATERIAU(    ELAS_ISTR_FO=_F(  E_L = FO1,
                                        E_N = FO13,
                                        NU_LT = FO2,
                                        NU_LN = FO14,
                                        G_LN = FO16,
                                        RHO = 6700.,
                                        ALPHA_L = FO3,
                                        ALPHA_N = FO15,
                                        TEMP_DEF_ALPHA=11.7),
                         THER=_F(  RHO_CP = 2.7,
                                LAMBDA = 0.4) )

MAT5=DEFI_MATERIAU(    ELAS_ORTH=_F(  E_L = 1.6,
                                     E_T = 0.8,
                                     E_N = 2.8,
                                     NU_LT = 0.4,
                                     NU_LN = 0.3,
                                     NU_TN = 0.4,
                                     G_LT = 1.1E1,
                                     G_LN = 2.2E1,
                                     G_TN = 3.5E1,
                                     RHO = 6820.,
                                     ALPHA_L = 3.2,
                                     ALPHA_T = 1.9,
                                     ALPHA_N = 1.7,
                                     XT = 1.2,
                                     XC = 3.5,
                                     YT = 2.7,
                                     YC = 3.4,
                                     S_LT = 2.6),
                         THER=_F(  RHO_CP = 3.2,
                                LAMBDA = 1.9) )

MAT6=DEFI_MATERIAU(    ELAS_ORTH_FO=_F(  E_L = FO1,
                                        E_T = FO13,
                                        E_N = FO1,
                                        NU_LT = FO2_NU,
                                        NU_LN = FO14,
                                        NU_TN = FO14,
                                        G_LT = FO16,
                                        G_LN = FO17,
                                        G_TN = FO16,
                                        RHO = 5240.,
                                        ALPHA_L = FO3,
                                        ALPHA_T = FO15,
                                        ALPHA_N = FO15,
                                        TEMP_DEF_ALPHA=0.),
                         THER=_F(  RHO_CP = 2.5,
                                LAMBDA = 1.7) )

CHMAT=AFFE_MATERIAU(    MAILLAGE=MA,AFFE=(
                          _F(  TOUT = 'OUI',
                                 MATER = MAT1,
                                 ),
                          _F(  GROUP_MA = 'GMA0',
                                 MATER = MAT2,
                                 ),
                          _F(  GROUP_MA = 'GMA9',
                                 MATER = MAT3),
                          _F(  GROUP_MA = 'GMA10',
                                 MATER = MAT4,
                                 ),
                          _F(  GROUP_MA = 'GMA11',
                                 MATER = MAT5),
                          _F(  GROUP_MA = 'GMA12',
                                 MATER = MAT6)) )

# DANS CHAQUE GROUP_MA, TOUS LES TYPES DE MAILLES SONT REPRESENTES

# ----------------------------------------------------------------------
#    AFFECTATION DES CHARGEMENTS ET DES CONDITIONS LIMITES
# ----------------------------------------------------------------------
CHTHF=AFFE_CHAR_THER_F(       MODELE=MOTH,TEMP_IMPO=(
                             _F(  TOUT = 'OUI',
                                         TEMP = FO11),
                             _F(  NOEUD = ('N85', 'N109', 'N38', 'N143',),
                                         TEMP = FO10)) )

THLIN=THER_LINEAIRE(        MODELE=MOTH,
                          CHAM_MATER=CHMAT,
                           CARA_ELEM=CARA1,
                           INCREMENT=_F(  LIST_INST = LR1),
                               EXCIT=_F(  CHARGE = CHTHF) )

#ENGENDRE_TEST (  CO = THLIN, )

TEST_RESU(RESU=(_F(NUME_ORDRE=0,
                   TYPE_TEST='SOMM_ABS',
                   RESULTAT=THLIN,
                   NOM_CHAM='TEMP',
                   VALE_CALC=1236.4868353257,
                   ),
                _F(NUME_ORDRE=1,
                   TYPE_TEST='SOMM_ABS',
                   RESULTAT=THLIN,
                   NOM_CHAM='TEMP',
                   VALE_CALC=1319.704107114,
                   ),
                _F(NUME_ORDRE=2,
                   TYPE_TEST='SOMM_ABS',
                   RESULTAT=THLIN,
                   NOM_CHAM='TEMP',
                   VALE_CALC=1457.4659478033,
                   ),
                ),
          )

CHMEC=AFFE_CHAR_MECA(           MODELE=MO,
                               VERI_NORM='NON',
                               PESANTEUR=_F(GRAVITE=9.8,
                                            DIRECTION=(0.3,  0.1, -0.4,),),
                               ROTATION= _F(VITESSE=0.069631062,
                                            AXE=(0.0,-1.0,0.0,),),
#  ----  MAILLES 2D
                           FORCE_INTERNE=_F(  MAILLE = ('M42', 'M77',),
                                           FX = 0.84),
                           PRE_EPSI=_F(  MAILLE = 'M67',
                                       EPXX = 2.2),
#  ----  MAILLES DE FACE 1D
                           FACE_IMPO=_F(  MAILLE = 'M101',
                                       DNOR = -6.07),
                           FORCE_CONTOUR=_F(  MAILLE = 'M126',
                                           FX = 2.01E1,
                                           FY = 1.05E1),
                           PRES_REP=_F(  MAILLE = 'M120',
                                      PRES = -1.07E1),
#  ----  MAILLES DE TYPE QUELCONQUE
                           LIAISON_GROUP=_F(  MAILLE_1 = 'M87',
                                           GROUP_MA_2 = 'GMA6',
                                           DDL_1 = 'DX',
                                           COEF_MULT_1 = 1.8,
                                           DDL_2 = 'DY',
                                           COEF_MULT_2 = 0.7,
                                           COEF_IMPO = -5.22,
                                           TRAN = (1.6, 1.1,),
                                           SOMMET = 'OUI'),
                           LIAISON_UNIF=_F(  MAILLE = 'M24',
                                          DDL = ('DX', 'DY',)),LIAISON_SOLIDE=(
                           _F(  MAILLE = ('M31', 'M135',),
                                            NUME_LAGR = 'NORMAL'),
                           _F(  NOEUD = ('N37', 'N195',),
                                            NUME_LAGR = 'NORMAL')),
#  ----  NOEUDS
                           DDL_IMPO=_F(  NOEUD = 'N130',
                                      DY = 7.1),
                           LIAISON_DDL=_F(  NOEUD = ('N97',  'N97',),
                                         DDL = ('DY', 'DX',),
                                         COEF_MULT = (1.3,   1.1,),
                                         COEF_IMPO = 6.1),
                           LIAISON_OBLIQUE=_F(  NOEUD = 'N76',
                                             ANGL_NAUT = (18.7, 35.1,),
                                             DX = 5.95),
                           LIAISON_MAIL=_F(  GROUP_MA_MAIT = 'GMX1',
                                          GROUP_NO_ESCL = 'GNX1'),
                           FORCE_NODALE=_F(  NOEUD = 'N30',
                                          FX = 0.86,
                                          FY = 0.98,
                                          ANGL_NAUT = (25.8, 7.1, 29.3,)))

CHMAT2=AFFE_MATERIAU(    MAILLAGE=MA,AFFE=(
                          _F(  TOUT = 'OUI',
                                 MATER = MAT1,
                                 ),
                          _F(  GROUP_MA = 'GMA0',
                                 MATER = MAT2,
                                 ),
                          _F(  GROUP_MA = 'GMA9',
                                 MATER = MAT3),
                          _F(  GROUP_MA = 'GMA10',
                                 MATER = MAT4,
                                 ),
                          _F(  GROUP_MA = 'GMA11',
                                 MATER = MAT5),
                          _F(  GROUP_MA = 'GMA12',
                                 MATER = MAT6)),
                                    AFFE_VARC=(
                          _F(  TOUT = 'OUI',
                                 EVOL = THLIN,
                                 NOM_VARC='TEMP',
                                 VALE_REF = 4.8),
                          _F(  GROUP_MA = 'GMA0',
                                 EVOL = THLIN,
                                 NOM_VARC='TEMP',
                                 VALE_REF = 6.9),
                          _F(  GROUP_MA = 'GMA9',
                                 NOM_VARC='TEMP',
                                 VALE_REF=0.,
                                 EVOL = THLIN,),
                          _F(  GROUP_MA = 'GMA10',
                                 EVOL = THLIN,
                                 NOM_VARC='TEMP',
                                 VALE_REF = 11.7),
                          _F(  GROUP_MA = 'GMA11',
                                 NOM_VARC='TEMP',
                                 VALE_REF=0.,
                                 EVOL = THLIN,),
                          _F(  GROUP_MA = 'GMA12',
                                 NOM_VARC='TEMP',
                                 VALE_REF=0.,
                                 EVOL = THLIN,)),);

CHMECF=AFFE_CHAR_MECA_F(         MODELE=MO,
                                VERI_NORM='NON',

#  ----  MAILLES 2D
                              FORCE_INTERNE=_F(  GROUP_MA = 'GMA1',
                                              FY = FO4),
                              PRE_EPSI=_F(  GROUP_MA = 'GMA2',
                                          EPYY = FO7),
#  ----  MAILLES DE BORD 1D
                              FACE_IMPO=_F(  GROUP_MA = 'GMA3',
                                          DX = FO9),
                              FORCE_CONTOUR=_F(  GROUP_MA = 'GMA4',
                                              FX = FO6),
                              PRES_REP=_F(  GROUP_MA = 'GMA5',
                                         CISA_2D = FO6),
#  ----  MAILLES DE TYPE QUELCONQUE
                              LIAISON_UNIF=_F(  GROUP_MA = 'GMA7',
                                             DDL = 'DY'),
#  ----  NOEUDS
                              DDL_IMPO=_F(  GROUP_NO = 'GNO1',
                                         DY = FO7),
                              LIAISON_DDL=_F(  GROUP_NO = 'GNO2',
                                            DDL = ('DX', 'DY',),
                                            COEF_MULT = (2.5,  -1.3,),
                                            COEF_IMPO = FO9),
                              LIAISON_OBLIQUE=_F(  GROUP_NO = 'GNO3',
                                                ANGL_NAUT = (-25.4, 2.7,
                                                              18.9, ),
                                                DX = FO9),
                              LIAISON_GROUP=_F(  NOEUD_1 = ('N145', 'N168',),
                                              GROUP_NO_2 = 'GNO4',
                                              SANS_NOEUD = 'N168',
                                              DDL_1 = ('DY', 'DX',),
                                              COEF_MULT_1 = (1.1,  -3.7,),
                                              DDL_2 = 'DX',
                                              COEF_MULT_2 = 2.8,
                                              COEF_IMPO = FO8,
                                             TRAN = (-0.2, -3.1,)),
                              FORCE_NODALE=_F(  GROUP_NO = 'GNO6',
                                             FY = FO6) )

CHCI=AFFE_CHAR_CINE(       MODELE=MO,
                          MECA_IMPO=_F(  NOEUD = 'N199',
                                      DY = 0.0) )

CHCIF=AFFE_CHAR_CINE_F(       MODELE=MO,
                             MECA_IMPO=_F(  GROUP_NO = 'GNO7',
                                         DX = FO7,
                                         DY = FO9) )

# ----------------------------------------------------------------------
#   COMMANDES GLOBALES DE MECANIQUE : STATIQUE LINEAIRE
# ----------------------------------------------------------------------

MSLIN=MECA_STATIQUE(        MODELE=MO,
                           CHAM_MATER=CHMAT2,
                            CARA_ELEM=CARA1,
                           EXCIT=_F(  CHARGE = CHMEC,
                                   FONC_MULT = FO11),
                           LIST_INST=LR1,  )

MSLIN=CALC_CHAMP(reuse=MSLIN,
                 RESULTAT=MSLIN,
                 LIST_INST=LR1,
                 CRITERES=('SIEQ_ELNO','SIEQ_ELGA','EPEQ_ELNO','EPEQ_ELGA','EPMQ_ELNO','EPMQ_ELGA'),
                 DEFORMATION=('EPME_ELGA','EPME_ELNO','EPSI_ELGA','EPSI_ELNO'),
                 ENERGIE=('EPOT_ELEM'),
                 CONTRAINTE=('SIGM_ELNO'),);

MSLIN=CALC_CHAMP(reuse=MSLIN,
                 RESULTAT=MSLIN,
                 NUME_ORDRE=2,
                 CRITERES=('EPEQ_NOEU','EPMQ_NOEU',),);

#ENGENDRE_TEST (  CO = MSLIN )

TEST_RESU(RESU=(_F(NUME_ORDRE=2,
                   TYPE_TEST='SOMM_ABS',
                   RESULTAT=MSLIN,
                   NOM_CHAM='EPEQ_NOEU',
                   VALE_CALC=2.3774720074879E7,
                   ),
                _F(NUME_ORDRE=2,
                   TYPE_TEST='SOMM_ABS',
                   RESULTAT=MSLIN,
                   NOM_CHAM='EPMQ_NOEU',
                   VALE_CALC=2.3783796038169E7,
                   ),
                ),
          )

TEST_RESU(RESU=(_F(NUME_ORDRE=1,
                   TYPE_TEST='SOMM_ABS',
                   RESULTAT=MSLIN,
                   NOM_CHAM='DEPL',
                   VALE_CALC=5.1852719822273E7,
                   ),
                _F(NUME_ORDRE=2,
                   TYPE_TEST='SOMM_ABS',
                   RESULTAT=MSLIN,
                   NOM_CHAM='DEPL',
                   VALE_CALC=5.2576721969698E7,
                   ),
                _F(NUME_ORDRE=3,
                   TYPE_TEST='SOMM_ABS',
                   RESULTAT=MSLIN,
                   NOM_CHAM='DEPL',
                   VALE_CALC=5.330074543849E7,
                   ),
                _F(NUME_ORDRE=1,
                   TYPE_TEST='SOMM_ABS',
                   RESULTAT=MSLIN,
                   NOM_CHAM='SIEF_ELGA',
                   VALE_CALC=4.9686743194576E7,
                   ),
                _F(NUME_ORDRE=2,
                   TYPE_TEST='SOMM_ABS',
                   RESULTAT=MSLIN,
                   NOM_CHAM='SIEF_ELGA',
                   VALE_CALC=5.0376966748923E7,
                   ),
                _F(NUME_ORDRE=3,
                   TYPE_TEST='SOMM_ABS',
                   RESULTAT=MSLIN,
                   NOM_CHAM='SIEF_ELGA',
                   VALE_CALC=5.1067092901411E7,
                   ),
                _F(NUME_ORDRE=1,
                   TYPE_TEST='SOMM_ABS',
                   RESULTAT=MSLIN,
                   NOM_CHAM='SIGM_ELNO',
                   VALE_CALC=6.3239467384838E7,
                   ),
                _F(NUME_ORDRE=2,
                   TYPE_TEST='SOMM_ABS',
                   RESULTAT=MSLIN,
                   NOM_CHAM='SIGM_ELNO',
                   VALE_CALC=6.4116561792605E7,
                   ),
                _F(NUME_ORDRE=3,
                   TYPE_TEST='SOMM_ABS',
                   RESULTAT=MSLIN,
                   NOM_CHAM='SIGM_ELNO',
                   VALE_CALC=6.4993497157165E7,
                   ),
                _F(NUME_ORDRE=1,
                   TYPE_TEST='SOMM_ABS',
                   RESULTAT=MSLIN,
                   NOM_CHAM='EPOT_ELEM',
                   VALE_CALC=3.2025942785898E11,
                   ),
                _F(NUME_ORDRE=2,
                   TYPE_TEST='SOMM_ABS',
                   RESULTAT=MSLIN,
                   NOM_CHAM='EPOT_ELEM',
                   VALE_CALC=3.2926071616879E11,
                   ),
                _F(NUME_ORDRE=3,
                   TYPE_TEST='SOMM_ABS',
                   RESULTAT=MSLIN,
                   NOM_CHAM='EPOT_ELEM',
                   VALE_CALC=3.383868420865E11,
                   ),
                _F(NUME_ORDRE=1,
                   TYPE_TEST='SOMM_ABS',
                   RESULTAT=MSLIN,
                   NOM_CHAM='EPSI_ELGA',
                   VALE_CALC=2.4916145432073E7,
                   ),
                _F(NUME_ORDRE=2,
                   TYPE_TEST='SOMM_ABS',
                   RESULTAT=MSLIN,
                   NOM_CHAM='EPSI_ELGA',
                   VALE_CALC=2.5264714901156E7,
                   ),
                _F(NUME_ORDRE=3,
                   TYPE_TEST='SOMM_ABS',
                   RESULTAT=MSLIN,
                   NOM_CHAM='EPSI_ELGA',
                   VALE_CALC=2.5613311834593E7,
                   ),
                _F(NUME_ORDRE=1,
                   TYPE_TEST='SOMM_ABS',
                   RESULTAT=MSLIN,
                   NOM_CHAM='EPSI_ELNO',
                   VALE_CALC=3.4575486902937E7,
                   ),
                _F(NUME_ORDRE=2,
                   TYPE_TEST='SOMM_ABS',
                   RESULTAT=MSLIN,
                   NOM_CHAM='EPSI_ELNO',
                   VALE_CALC=3.5058593561833E7,
                   ),
                _F(NUME_ORDRE=3,
                   TYPE_TEST='SOMM_ABS',
                   RESULTAT=MSLIN,
                   NOM_CHAM='EPSI_ELNO',
                   VALE_CALC=3.5541720793773E7,
                   ),
                _F(NUME_ORDRE=1,
                   TYPE_TEST='SOMM_ABS',
                   RESULTAT=MSLIN,
                   NOM_CHAM='SIEQ_ELNO',
                   VALE_CALC=2.1312744029749E+08,
                   ),
                _F(NUME_ORDRE=2,
                   TYPE_TEST='SOMM_ABS',
                   RESULTAT=MSLIN,
                   NOM_CHAM='SIEQ_ELNO',
                   VALE_CALC=2.1608773152926E+08,
                   ),
                _F(NUME_ORDRE=3,
                   TYPE_TEST='SOMM_ABS',
                   RESULTAT=MSLIN,
                   NOM_CHAM='SIEQ_ELNO',
                   VALE_CALC=2.1904765166382E+08,
                   ),
                _F(NUME_ORDRE=1,
                   TYPE_TEST='SOMM_ABS',
                   RESULTAT=MSLIN,
                   NOM_CHAM='SIEQ_ELGA',
                   VALE_CALC=1.6664394978982E+08,
                   ),
                _F(NUME_ORDRE=2,
                   TYPE_TEST='SOMM_ABS',
                   RESULTAT=MSLIN,
                   NOM_CHAM='SIEQ_ELGA',
                   VALE_CALC=1.6896242914186E8,
                   ),
                _F(NUME_ORDRE=3,
                   TYPE_TEST='SOMM_ABS',
                   RESULTAT=MSLIN,
                   NOM_CHAM='SIEQ_ELGA',
                   VALE_CALC=1.7128074636211E8,
                   ),
                _F(NUME_ORDRE=1,
                   TYPE_TEST='SOMM_ABS',
                   RESULTAT=MSLIN,
                   NOM_CHAM='EPEQ_ELNO',
                   VALE_CALC=7.0177520544848E7,
                   ),
                _F(NUME_ORDRE=2,
                   TYPE_TEST='SOMM_ABS',
                   RESULTAT=MSLIN,
                   NOM_CHAM='EPEQ_ELNO',
                   VALE_CALC=7.1157844624327E7,
                   ),
                _F(NUME_ORDRE=3,
                   TYPE_TEST='SOMM_ABS',
                   RESULTAT=MSLIN,
                   NOM_CHAM='EPEQ_ELNO',
                   VALE_CALC=7.2138205412423E7,
                   ),
                _F(NUME_ORDRE=1,
                   TYPE_TEST='SOMM_ABS',
                   RESULTAT=MSLIN,
                   NOM_CHAM='EPEQ_ELGA',
                   VALE_CALC=5.0595199622253E7,
                   ),
                _F(NUME_ORDRE=2,
                   TYPE_TEST='SOMM_ABS',
                   RESULTAT=MSLIN,
                   NOM_CHAM='EPEQ_ELGA',
                   VALE_CALC=5.1302921268402E7,
                   ),
                _F(NUME_ORDRE=3,
                   TYPE_TEST='SOMM_ABS',
                   RESULTAT=MSLIN,
                   NOM_CHAM='EPEQ_ELGA',
                   VALE_CALC=5.2010696696309E7,
                   ),
                _F(NUME_ORDRE=1,
                   TYPE_TEST='SOMM_ABS',
                   RESULTAT=MSLIN,
                   NOM_CHAM='EPMQ_ELNO',
                   VALE_CALC=7.0222884663258E7,
                   ),
                _F(NUME_ORDRE=2,
                   TYPE_TEST='SOMM_ABS',
                   RESULTAT=MSLIN,
                   NOM_CHAM='EPMQ_ELNO',
                   VALE_CALC=7.1203870959475E7,
                   ),
                _F(NUME_ORDRE=3,
                   TYPE_TEST='SOMM_ABS',
                   RESULTAT=MSLIN,
                   NOM_CHAM='EPMQ_ELNO',
                   VALE_CALC=7.2184893898339E7,
                   ),
                _F(NUME_ORDRE=1,
                   TYPE_TEST='SOMM_ABS',
                   RESULTAT=MSLIN,
                   NOM_CHAM='EPMQ_ELGA',
                   VALE_CALC=5.0609475686152E7,
                   ),
                _F(NUME_ORDRE=2,
                   TYPE_TEST='SOMM_ABS',
                   RESULTAT=MSLIN,
                   NOM_CHAM='EPMQ_ELGA',
                   VALE_CALC=5.1317420778577E7,
                   ),
                _F(NUME_ORDRE=3,
                   TYPE_TEST='SOMM_ABS',
                   RESULTAT=MSLIN,
                   NOM_CHAM='EPMQ_ELGA',
                   VALE_CALC=5.2025419637355E7,
                   ),
                ),
          )

MSLI2=MECA_STATIQUE(        MODELE=MO,
                          CHAM_MATER=CHMAT2,
                           CARA_ELEM=CARA1,EXCIT=(
                          _F(  CHARGE = CHCI,
                                  FONC_MULT = FO12),
                          _F(  CHARGE = CHMECF,
                                 FONC_MULT = FO12),
                          _F(  CHARGE = CHCIF,
                                 FONC_MULT = FO11),),
                          LIST_INST=LR1)

# ----------------------------------------------------------------------
#   POST_TRAITEMENT DU CALCUL
# ----------------------------------------------------------------------
CALC_CHAMP(reuse=MSLI2,
           RESULTAT=MSLI2,
           NUME_ORDRE=(1,2,3),
           CRITERES=('SIEQ_ELNO','SIEQ_ELGA','EPEQ_ELNO','EPEQ_ELGA','EPMQ_ELNO'),
           DEFORMATION=('EPME_ELGA','EPME_ELNO','EPSG_ELGA','EPSG_ELNO','EPSI_ELGA','EPSI_ELNO'),
           ENERGIE=('EPOT_ELEM'),
           CONTRAINTE=('SIGM_ELNO'),);


MSLI2=CALC_CHAMP(reuse=MSLI2,
                 RESULTAT=MSLI2,
                 PRECISION=1.000000000E-03,
                 CRITERE='ABSOLU',
                 INST=11.5,
                 DEFORMATION='EPSI_NOEU',
                 CRITERES=('SIEQ_NOEU','EPEQ_NOEU','EPMQ_NOEU',),
                 CONTRAINTE='SIGM_NOEU',);

#ENGENDRE_TEST (  CO = MSLI2, )

TEST_RESU(RESU=(_F(NUME_ORDRE=1,
                   TYPE_TEST='SOMM_ABS',
                   RESULTAT=MSLI2,
                   NOM_CHAM='DEPL',
                   VALE_CALC=6625.1881663972,
                   ),
                _F(NUME_ORDRE=2,
                   TYPE_TEST='SOMM_ABS',
                   RESULTAT=MSLI2,
                   NOM_CHAM='DEPL',
                   VALE_CALC=6643.0450325365,
                   ),
                _F(NUME_ORDRE=3,
                   TYPE_TEST='SOMM_ABS',
                   RESULTAT=MSLI2,
                   NOM_CHAM='DEPL',
                   VALE_CALC=6670.6925331727,
                   ),
                ),
          )

TEST_RESU(RESU=(_F(NUME_ORDRE=1,
                   TYPE_TEST='SOMM_ABS',
                   RESULTAT=MSLI2,
                   NOM_CHAM='SIEF_ELGA',
                   VALE_CALC=1.6459987122358E4,
                   ),
                _F(NUME_ORDRE=2,
                   TYPE_TEST='SOMM_ABS',
                   RESULTAT=MSLI2,
                   NOM_CHAM='SIEF_ELGA',
                   VALE_CALC=1.6537094707406E4,
                   ),
                _F(NUME_ORDRE=3,
                   TYPE_TEST='SOMM_ABS',
                   RESULTAT=MSLI2,
                   NOM_CHAM='SIEF_ELGA',
                   VALE_CALC=1.6655181412311E4,
                   ),
                _F(NUME_ORDRE=1,
                   TYPE_TEST='SOMM_ABS',
                   RESULTAT=MSLI2,
                   NOM_CHAM='SIGM_ELNO',
                   VALE_CALC=2.1608437589199E4,
                   ),
                _F(NUME_ORDRE=2,
                   TYPE_TEST='SOMM_ABS',
                   RESULTAT=MSLI2,
                   NOM_CHAM='SIGM_ELNO',
                   VALE_CALC=2.1765508519835E4,
                   ),
                _F(NUME_ORDRE=3,
                   TYPE_TEST='SOMM_ABS',
                   RESULTAT=MSLI2,
                   NOM_CHAM='SIGM_ELNO',
                   VALE_CALC=2.1985795423028E4,
                   ),
                _F(NUME_ORDRE=1,
                   TYPE_TEST='SOMM_ABS',
                   RESULTAT=MSLI2,
                   NOM_CHAM='EPME_ELGA',
                   VALE_CALC=6917.4614549016,
                   ),
                _F(NUME_ORDRE=2,
                   TYPE_TEST='SOMM_ABS',
                   RESULTAT=MSLI2,
                   NOM_CHAM='EPME_ELGA',
                   VALE_CALC=6971.0771298173,
                   ),
                _F(NUME_ORDRE=3,
                   TYPE_TEST='SOMM_ABS',
                   RESULTAT=MSLI2,
                   NOM_CHAM='EPME_ELGA',
                   VALE_CALC=7031.7697019482,
                   ),
                _F(NUME_ORDRE=1,
                   TYPE_TEST='SOMM_ABS',
                   RESULTAT=MSLI2,
                   NOM_CHAM='EPME_ELNO',
                   VALE_CALC=9284.40693894,
                   ),
                _F(NUME_ORDRE=2,
                   TYPE_TEST='SOMM_ABS',
                   RESULTAT=MSLI2,
                   NOM_CHAM='EPME_ELNO',
                   VALE_CALC=9365.5633925253,
                   ),
                _F(NUME_ORDRE=3,
                   TYPE_TEST='SOMM_ABS',
                   RESULTAT=MSLI2,
                   NOM_CHAM='EPME_ELNO',
                   VALE_CALC=9462.1205243044,
                   ),
                _F(NUME_ORDRE=1,
                   TYPE_TEST='SOMM_ABS',
                   RESULTAT=MSLI2,
                   NOM_CHAM='EPOT_ELEM',
                   VALE_CALC=2.3774605586027E4,
                   ),
                _F(NUME_ORDRE=2,
                   TYPE_TEST='SOMM_ABS',
                   RESULTAT=MSLI2,
                   NOM_CHAM='EPOT_ELEM',
                   VALE_CALC=2.4154177934713E4,
                   ),
                _F(NUME_ORDRE=3,
                   TYPE_TEST='SOMM_ABS',
                   RESULTAT=MSLI2,
                   NOM_CHAM='EPOT_ELEM',
                   VALE_CALC=2.4669842733012E4,
                   ),
                _F(NUME_ORDRE=1,
                   TYPE_TEST='SOMM_ABS',
                   RESULTAT=MSLI2,
                   NOM_CHAM='EPSG_ELGA',
                   VALE_CALC=2.6915050854998E5,
                   ),
                _F(NUME_ORDRE=2,
                   TYPE_TEST='SOMM_ABS',
                   RESULTAT=MSLI2,
                   NOM_CHAM='EPSG_ELGA',
                   VALE_CALC=2.7990795837629E5,
                   ),
                _F(NUME_ORDRE=3,
                   TYPE_TEST='SOMM_ABS',
                   RESULTAT=MSLI2,
                   NOM_CHAM='EPSG_ELGA',
                   VALE_CALC=2.9104306007143E5,
                   ),
                _F(NUME_ORDRE=1,
                   TYPE_TEST='SOMM_ABS',
                   RESULTAT=MSLI2,
                   NOM_CHAM='EPSG_ELNO',
                   VALE_CALC=2.8860768972669E5,
                   ),
                _F(NUME_ORDRE=2,
                   TYPE_TEST='SOMM_ABS',
                   RESULTAT=MSLI2,
                   NOM_CHAM='EPSG_ELNO',
                   VALE_CALC=2.9968539424042E5,
                   ),
                _F(NUME_ORDRE=3,
                   TYPE_TEST='SOMM_ABS',
                   RESULTAT=MSLI2,
                   NOM_CHAM='EPSG_ELNO',
                   VALE_CALC=3.1124223247508E5,
                   ),
                _F(NUME_ORDRE=1,
                   TYPE_TEST='SOMM_ABS',
                   RESULTAT=MSLI2,
                   NOM_CHAM='EPSI_ELGA',
                   VALE_CALC=7477.873985382,
                   ),
                _F(NUME_ORDRE=2,
                   TYPE_TEST='SOMM_ABS',
                   RESULTAT=MSLI2,
                   NOM_CHAM='EPSI_ELGA',
                   VALE_CALC=7462.4388940656,
                   ),
                _F(NUME_ORDRE=3,
                   TYPE_TEST='SOMM_ABS',
                   RESULTAT=MSLI2,
                   NOM_CHAM='EPSI_ELGA',
                   VALE_CALC=7466.1577625128,
                   ),
                _F(NUME_ORDRE=1,
                   TYPE_TEST='SOMM_ABS',
                   RESULTAT=MSLI2,
                   NOM_CHAM='EPSI_ELNO',
                   VALE_CALC=9893.9371638382,
                   ),
                _F(NUME_ORDRE=2,
                   TYPE_TEST='SOMM_ABS',
                   RESULTAT=MSLI2,
                   NOM_CHAM='EPSI_ELNO',
                   VALE_CALC=9873.3664553676,
                   ),
                _F(NUME_ORDRE=3,
                   TYPE_TEST='SOMM_ABS',
                   RESULTAT=MSLI2,
                   NOM_CHAM='EPSI_ELNO',
                   VALE_CALC=9868.6868808982,
                   ),
                _F(NUME_ORDRE=1,
                   TYPE_TEST='SOMM_ABS',
                   RESULTAT=MSLI2,
                   NOM_CHAM='SIEQ_ELNO',
                   VALE_CALC=7.3398114532827E4,
                   ),
                _F(NUME_ORDRE=2,
                   TYPE_TEST='SOMM_ABS',
                   RESULTAT=MSLI2,
                   NOM_CHAM='SIEQ_ELNO',
                   VALE_CALC=7.3931451906267E+04,
                   ),
                _F(NUME_ORDRE=3,
                   TYPE_TEST='SOMM_ABS',
                   RESULTAT=MSLI2,
                   NOM_CHAM='SIEQ_ELNO',
                   VALE_CALC=7.4624883347017E+04,
                   ),
                _F(NUME_ORDRE=1,
                   TYPE_TEST='SOMM_ABS',
                   RESULTAT=MSLI2,
                   NOM_CHAM='SIEQ_ELGA',
                   VALE_CALC=5.6950208809712E4,
                   ),
                _F(NUME_ORDRE=2,
                   TYPE_TEST='SOMM_ABS',
                   RESULTAT=MSLI2,
                   NOM_CHAM='SIEQ_ELGA',
                   VALE_CALC=5.7371229938018E4,
                   ),
                _F(NUME_ORDRE=3,
                   TYPE_TEST='SOMM_ABS',
                   RESULTAT=MSLI2,
                   NOM_CHAM='SIEQ_ELGA',
                   VALE_CALC=5.7890329368778002E4,
                   ),
                _F(NUME_ORDRE=1,
                   TYPE_TEST='SOMM_ABS',
                   RESULTAT=MSLI2,
                   NOM_CHAM='EPEQ_ELNO',
                   VALE_CALC=1.9191478465466E+04,
                   ),
                _F(NUME_ORDRE=2,
                   TYPE_TEST='SOMM_ABS',
                   RESULTAT=MSLI2,
                   NOM_CHAM='EPEQ_ELNO',
                   VALE_CALC=1.9249519864373E+04,
                   ),
                _F(NUME_ORDRE=3,
                   TYPE_TEST='SOMM_ABS',
                   RESULTAT=MSLI2,
                   NOM_CHAM='EPEQ_ELNO',
                   VALE_CALC=1.9341376373372E+04,
                   ),
                _F(NUME_ORDRE=1,
                   TYPE_TEST='SOMM_ABS',
                   RESULTAT=MSLI2,
                   NOM_CHAM='EPEQ_ELGA',
                   VALE_CALC=1.4360253078086E4,
                   ),
                _F(NUME_ORDRE=2,
                   TYPE_TEST='SOMM_ABS',
                   RESULTAT=MSLI2,
                   NOM_CHAM='EPEQ_ELGA',
                   VALE_CALC=1.4400871844585999E4,
                   ),
                _F(NUME_ORDRE=3,
                   TYPE_TEST='SOMM_ABS',
                   RESULTAT=MSLI2,
                   NOM_CHAM='EPEQ_ELGA',
                   VALE_CALC=1.4473282607245001E4,
                   ),
                _F(NUME_ORDRE=3,
                   TYPE_TEST='SOMM_ABS',
                   RESULTAT=MSLI2,
                   NOM_CHAM='EPMQ_ELNO',
                   VALE_CALC=1.9829888567256E+04,
                   ),
                ),
          )

TEST_RESU(RESU=(_F(INST=11.5,
                   TYPE_TEST='SOMM_ABS',
                   RESULTAT=MSLI2,
                   NOM_CHAM='EPSI_NOEU',
                   VALE_CALC=3.7138855529536E+03,
                   ),
                _F(INST=11.5,
                   TYPE_TEST='SOMM_ABS',
                   RESULTAT=MSLI2,
                   NOM_CHAM='SIEQ_NOEU',
                   VALE_CALC=2.3558756017992E+04,
                   ),
                _F(INST=11.5,
                   TYPE_TEST='SOMM_ABS',
                   RESULTAT=MSLI2,
                   NOM_CHAM='EPEQ_NOEU',
                   VALE_CALC=7.5098937996241E+03,
                   ),
                _F(INST=11.5,
                   TYPE_TEST='SOMM_ABS',
                   RESULTAT=MSLI2,
                   NOM_CHAM='SIGM_NOEU',
                   VALE_CALC=6.1751981419978E+03,
                   ),
                _F(INST=11.5,
                   TYPE_TEST='SOMM_ABS',
                   RESULTAT=MSLI2,
                   NOM_CHAM='EPMQ_NOEU',
                   VALE_CALC=7.5091511594656E+03,
                   ),
                ),
          )

# --------------------------------------------------------------------
# POUR TESTER LE CALCUL DE REAC_NODA SUR UN GROUP_MA :
# ----------------------------------------------------

MSLI2=CALC_CHAMP(reuse=MSLI2,
                 RESULTAT=MSLI2,
                 MAILLE=('M11','M14',),
                 NUME_ORDRE=3,
                 FORCE='REAC_NODA',);

TEST_RESU(RESU=(_F(NUME_ORDRE=3,
                   TYPE_TEST='SOMM_ABS',
                   RESULTAT=MSLI2,
                   NOM_CHAM='REAC_NODA',
                   VALE_CALC=30.571091611097,
                   ),
                _F(NUME_ORDRE=3,
                   TYPE_TEST='SOMM',
                   RESULTAT=MSLI2,
                   NOM_CHAM='REAC_NODA',
                   VALE_CALC=3.9368608000480001,
                   ),
                _F(NUME_ORDRE=3,
                   TYPE_TEST='MAX',
                   RESULTAT=MSLI2,
                   NOM_CHAM='REAC_NODA',
                   VALE_CALC=8.5500893930484008,
                   ),
                _F(NUME_ORDRE=3,
                   TYPE_TEST='MIN',
                   RESULTAT=MSLI2,
                   NOM_CHAM='REAC_NODA',
                   VALE_CALC=-4.7656938865361003,
                   ),
                ),
          )

# --------------------------------------------------------------------

CHAMNO1=CREA_CHAMP(  OPERATION='EXTR', TYPE_CHAM='NOEU_DEPL_R',
                     NOM_CHAM='DEPL', RESULTAT=MSLI2,
                       INST=0.7,
                       INTERPOL='LIN'
                        )

CHAMNO2=CREA_CHAMP( OPERATION='EXTR', TYPE_CHAM='NOEU_DEPL_R',
                      NOM_CHAM='DEPL', RESULTAT=MSLI2,
                      TYPE_MAXI='NORM_TRAN',
                      TYPE_RESU='INST',
                      LIST_INST=LR1    )

CHAMEL1=CREA_CHAMP(  OPERATION='EXTR', TYPE_CHAM='ELGA_SIEF_R',
                     NOM_CHAM='SIEF_ELGA', RESULTAT=MSLI2,
                       INST=1.8,
                       INTERPOL='LIN'
                        )

CHAMEL2=CREA_CHAMP(  OPERATION='EXTR', TYPE_CHAM='ELGA_EPSI_R',
                     NOM_CHAM='EPSI_ELGA', RESULTAT=MSLI2,
                       INST=1.8,
                       INTERPOL='LIN'
                        )

CHAMEL3=CREA_CHAMP(  OPERATION='EXTR', TYPE_CHAM='ELNO_SIEF_R',
                     NOM_CHAM='SIGM_ELNO', RESULTAT=MSLI2,
                       INST=1.8,
                       INTERPOL='LIN'
                        )

CHAMEL4=CREA_CHAMP(  OPERATION='EXTR', TYPE_CHAM='ELNO_EPSI_R',
                     NOM_CHAM='EPSI_ELNO', RESULTAT=MSLI2,
                       INST=7.1,
                       INTERPOL='LIN'
                        )

CHAMEL5=CREA_CHAMP(  OPERATION='EXTR', TYPE_CHAM='ELNO_SIEF_R',
                      NOM_CHAM='SIEQ_ELNO', RESULTAT=MSLI2,
                        INST=6.4,
                        INTERPOL='LIN'   )

CHAMEL6=CREA_CHAMP(  OPERATION='EXTR', TYPE_CHAM='ELGA_EPSI_R',
                       NOM_CHAM='EPSI_ELGA', RESULTAT=MSLI2,
                       TYPE_MAXI='MINI',
                       TYPE_RESU='VALE',
                       TOUT_ORDRE='OUI' )

#ENGENDRE_TEST (  CO = (CHAMNO1, CHAMNO2 ), )
#ENGENDRE_TEST (  CO = (CHAMEL1,CHAMEL2,CHAMEL3,CHAMEL4,CHAMEL5,CHAMEL6 ), )

TEST_RESU(CHAM_NO=_F(
                     TYPE_TEST='SOMM_ABS',
                     CHAM_GD=CHAMNO1,
                     VALE_CALC=6628.4090734026004,),
          )

TEST_RESU(CHAM_NO=_F(
                     TYPE_TEST='SOMM_ABS',
                     CHAM_GD=CHAMNO2,
                     VALE_CALC=2304.9953695147001,),
          )

TEST_RESU(CHAM_ELEM=_F(
                       TYPE_TEST='SOMM_ABS',
                       CHAM_GD=CHAMEL1,
                       VALE_CALC=1.6483148312546E4,),
          )

TEST_RESU(CHAM_ELEM=_F(
                       TYPE_TEST='SOMM_ABS',
                       CHAM_GD=CHAMEL2,
                       VALE_CALC=7469.4360466526005,),
          )

TEST_RESU(CHAM_ELEM=_F(
                       TYPE_TEST='SOMM_ABS',
                       CHAM_GD=CHAMEL3,
                       VALE_CALC=2.1661667488511001E4,),
          )

TEST_RESU(CHAM_ELEM=_F(
                       TYPE_TEST='SOMM_ABS',
                       CHAM_GD=CHAMEL4,
                       VALE_CALC=9870.5902630912005,),
          )

TEST_RESU(CHAM_ELEM=_F(
                       TYPE_TEST='SOMM_ABS',
                       CHAM_GD=CHAMEL5,
                       VALE_CALC=74010.171871376,),
          )

TEST_RESU(CHAM_ELEM=_F(
                       TYPE_TEST='SOMM_ABS',
                       CHAM_GD=CHAMEL6,
                       VALE_CALC=7536.4081754862,),
          )

# --------------------------------------------------------------------

TABLE1=POST_ELEM(        MODELE=MO,
                        CHAM_MATER=CHMAT2,
                         CARA_ELEM=CARA1,
                             TITRE='MASSE INERTIE ET CENTRE DE GRAVITE',MASS_INER=(
                         _F( GROUP_MA = 'GMA8'),
                         _F( TOUT = 'OUI'),
                         _F( MAILLE = 'M54')) )

TABLE2=POST_ELEM(         RESULTAT=MSLI2,
                              INST=5.5,
                          ENER_POT=(_F( TOUT = 'OUI',),
                                    _F(GROUP_MA = 'GMA8',),
                                    _F(MAILLE = ('M44', 'M99',))) )

#ENGENDRE_TEST (  CO=(TABLE1,TABLE2), )

TEST_TABLE(
           VALE_CALC=1.0261189481187001E7,
           NOM_PARA='MASSE',
           TYPE_TEST='SOMM_ABS',
           TABLE=TABLE1,
           )

TEST_TABLE(CRITERE='ABSOLU',
           VALE_CALC=0.0,
           NOM_PARA='CDG_X',
           TYPE_TEST='SOMM_ABS',
           TABLE=TABLE1,
           )

TEST_TABLE(CRITERE='ABSOLU',
           VALE_CALC=0.0,
           NOM_PARA='CDG_Y',
           TYPE_TEST='SOMM_ABS',
           TABLE=TABLE1,
           )

TEST_TABLE(
           VALE_CALC=8.5447077334616,
           NOM_PARA='CDG_Z',
           TYPE_TEST='SOMM_ABS',
           TABLE=TABLE1,
           )

TEST_TABLE(
           VALE_CALC=1.8214556012303001E8,
           NOM_PARA='IX_G',
           TYPE_TEST='SOMM_ABS',
           TABLE=TABLE1,
           )

TEST_TABLE(
           VALE_CALC=1.8214556012303001E8,
           NOM_PARA='IY_G',
           TYPE_TEST='SOMM_ABS',
           TABLE=TABLE1,
           )

TEST_TABLE(
           VALE_CALC=2.0799354342910001E8,
           NOM_PARA='IZ_G',
           TYPE_TEST='SOMM_ABS',
           TABLE=TABLE1,
           )

TEST_TABLE(CRITERE='ABSOLU',
           VALE_CALC=0.0,
           NOM_PARA='IXY_G',
           TYPE_TEST='SOMM_ABS',
           TABLE=TABLE1,
           )

TEST_TABLE(CRITERE='ABSOLU',
           VALE_CALC=0.0,
           NOM_PARA='IXZ_G',
           TYPE_TEST='SOMM_ABS',
           TABLE=TABLE1,
           )

TEST_TABLE(CRITERE='ABSOLU',
           VALE_CALC=0.0,
           NOM_PARA='IYZ_G',
           TYPE_TEST='SOMM_ABS',
           TABLE=TABLE1,
           )

TEST_TABLE(
           VALE_CALC=1.8214556012303001E8,
           NOM_PARA='IX_PRIN_G',
           TYPE_TEST='SOMM_ABS',
           TABLE=TABLE1,
           )

TEST_TABLE(
           VALE_CALC=1.8214556012303001E8,
           NOM_PARA='IY_PRIN_G',
           TYPE_TEST='SOMM_ABS',
           TABLE=TABLE1,
           )

TEST_TABLE(
           VALE_CALC=2.0799354342910001E8,
           NOM_PARA='IZ_PRIN_G',
           TYPE_TEST='SOMM_ABS',
           TABLE=TABLE1,
           )

TEST_TABLE(
           VALE_CALC=270.0,
           NOM_PARA='ALPHA',
           TYPE_TEST='SOMM_ABS',
           TABLE=TABLE1,
           )

TEST_TABLE(CRITERE='ABSOLU',
           VALE_CALC=0.0,
           NOM_PARA='BETA',
           TYPE_TEST='SOMM_ABS',
           TABLE=TABLE1,
           )

TEST_TABLE(
           VALE_CALC=540.0,
           NOM_PARA='GAMMA',
           TYPE_TEST='SOMM_ABS',
           TABLE=TABLE1,
           )

TEST_TABLE(
           VALE_CALC_I=8,
           NOM_PARA='NUME_ORDRE',
           TYPE_TEST='SOMM_ABS',
           TABLE=TABLE2,
           )

TEST_TABLE(
           VALE_CALC=2.8231894857095998E4,
           NOM_PARA='TOTALE',
           TYPE_TEST='SOMM_ABS',
           TABLE=TABLE2,
           )

TEST_TABLE(
           VALE_CALC=116.88203561887001,
           NOM_PARA='POUR_CENT',
           TYPE_TEST='SOMM_ABS',
           TABLE=TABLE2,
           )

# --------------------------------------------------------------------

LR3=DEFI_LIST_REEL(         DEBUT=0.,
                         INTERVALLE=_F(  JUSQU_A = 10.,
                                      NOMBRE = 5) )

FO18=RECU_FONCTION(       RESULTAT=MSLI2,
                            NOM_CHAM='SIGM_ELNO',
                              MAILLE='M71',
                               NOEUD='N156',
                             NOM_CMP='SIXY',
                           LIST_INST=LR3,
                         INTERP_NUME='LIN',
                            NOM_PARA='INST',
                            NOM_RESU='VITE',
                            INTERPOL=('LIN', 'LOG',),
                          PROL_DROITE='LINEAIRE',
                         PROL_GAUCHE='CONSTANT'  )

FO19=RECU_FONCTION(        CHAM_GD=CHAMEL2,
                              MAILLE='M88',
                               POINT=2,
                             NOM_CMP='EPXX',
                            INTERPOL=('LIN', 'LOG',),
                          PROL_DROITE='CONSTANT',
                         PROL_GAUCHE='CONSTANT'  )

FO20=RECU_FONCTION(        CHAM_GD=CHAMNO1,
                             NOM_CMP='DX',
                               NOEUD='N137',
                            INTERPOL=('LIN', 'LOG',),
                          PROL_DROITE='CONSTANT',
                         PROL_GAUCHE='CONSTANT'  )

FO21=CALC_FONCTION( COMB=(   _F(  FONCTION = FO10,
                                COEF = 5.1),
                         _F(  FONCTION = FO11,
                                COEF = -3.7),
                         _F(  FONCTION = FO12,
                                COEF = 0.8)),
                            NOM_PARA='INST',
                            NOM_RESU='VITE',
                          PROL_DROITE='LINEAIRE',
                         PROL_GAUCHE='LINEAIRE'  )

FO22=CALC_FONCTION(      DERIVE=_F(  FONCTION = FO18) )

FO23=CALC_FONCTION(     INTEGRE=_F(  FONCTION = FO21,
                                    COEF = 1.4) )

FO24=INFO_FONCTION(   MAX=_F(  FONCTION = FO21), )

FO25=CALC_FONCTION(    ENVELOPPE=_F(  FONCTION = ( FO10, FO11, FO12, ),
                                     CRITERE = 'INF') )

FO26=CALC_FONCTION(    ENVELOPPE=_F(  FONCTION = ( FO11, FO12, ),
                                     CRITERE = 'SUP') )

CHEM1=INTE_MAIL_2D(        MAILLAGE=MA,
                          DEFI_CHEMIN=_F(  MAILLE = ('M99', 'M147', 'M148', 'M100',)),
                            PRECISION=1.E-05 )

TABLE3=POST_RELEVE_T( ACTION=(   _F(  NOEUD = ( 'N109', 'N110', 'N111',
                                                      'N104', 'N103', ),
                                    RESULTAT = MSLI2,
                                    NOM_CHAM = 'EPSI_ELNO',
                                    NUME_ORDRE = 2,
                                    PRECISION = 1.E-05,
                                    CRITERE = 'RELATIF',
                                    NOM_CMP = ('EPXX', 'EPXY',),
                                    REPERE = 'LOCAL',
                                    TRAC_DIR = 'OUI',
                                    DIRECTION = (0.5, 0.6, 0.3,),
                                    INTITULE = 'TABLE_3A',
                                    OPERATION = 'EXTRACTION'),
                           _F(  CHEMIN = CHEM1,
                                    CHAM_GD = CHAMNO1,
                                    RESULTANTE = ('DY', 'DX',),
                                    INTITULE = 'TABLE_3B',
                                    OPERATION = 'MOYENNE',
                                    MOYE_NOEUD = 'NON')) )

#ENGENDRE_TEST (  CO=TABLE3, )

TEST_TABLE(
           VALE_CALC=108.83218752582,
           NOM_PARA='DX',
           TYPE_TEST='SOMM_ABS',
           TABLE=TABLE3,
           )

FIN( )

