
# -----------------------------------------------------------------
# TITRE CALCUL DU RETRAIT DE DESSICCATION ET D'HYDRATATION
#       SUR UN CYLINDRE - LOI ELASTIQUE - 3D
# ======================================================================
# COPYRIGHT (C) 1991 - 2012  EDF R&D                  WWW.CODE-ASTER.ORG
# THIS PROGRAM IS FREE SOFTWARE; YOU CAN REDISTRIBUTE IT AND/OR MODIFY
# IT UNDER THE TERMS OF THE GNU GENERAL PUBLIC LICENSE AS PUBLISHED BY
# THE FREE SOFTWARE FOUNDATION; EITHER VERSION 2 OF THE LICENSE, OR
# (AT YOUR OPTION) ANY LATER VERSION.
#
# THIS PROGRAM IS DISTRIBUTED IN THE HOPE THAT IT WILL BE USEFUL, BUT
# WITHOUT ANY WARRANTY; WITHOUT EVEN THE IMPLIED WARRANTY OF
# MERCHANTABILITY OR FITNESS FOR A PARTICULAR PURPOSE. SEE THE GNU
# GENERAL PUBLIC LICENSE FOR MORE DETAILS.
#
# YOU SHOULD HAVE RECEIVED A COPY OF THE GNU GENERAL PUBLIC LICENSE
# ALONG WITH THIS PROGRAM; IF NOT, WRITE TO EDF R&D CODE_ASTER,
#    1 AVENUE DU GENERAL DE GAULLE, 92141 CLAMART CEDEX, FRANCE.
# ======================================================================
# -----------------------------------------------------------------

DEBUT(CODE=_F(NIV_PUB_WEB='INTERNET'),DEBUG=_F(SDVERI='OUI'))

M=LIRE_MAILLAGE();

MO=AFFE_MODELE(MAILLAGE=M,
               AFFE=_F(TOUT='OUI',
                       PHENOMENE='MECANIQUE',
                       MODELISATION='3D',),);

E=DEFI_CONSTANTE(VALE=3.E10,);

NU=DEFI_CONSTANTE(VALE=0.2,);

ALPHA=DEFI_CONSTANTE(VALE= 1.E-5)

BETON=DEFI_MATERIAU(ELAS_FO=_F(E=E,
                               NU=NU,
                               K_DESSIC=1.66e-05,
                               B_ENDOGE = 1.5E-5,
                               ALPHA = ALPHA,
                               TEMP_DEF_ALPHA =20),);


SECHI=CREA_CHAMP(TYPE_CHAM='NOEU_TEMP_R',
                 OPERATION='AFFE',
                 MAILLAGE=M,
                 AFFE=_F(TOUT='OUI',
                         NOM_CMP='TEMP',
                         VALE=100.,),);

SECHF=CREA_CHAMP(TYPE_CHAM='NOEU_TEMP_R',
                 OPERATION='AFFE',
                 MAILLAGE=M,
                 AFFE=_F(TOUT='OUI',
                         NOM_CMP='TEMP',
                         VALE=80.0,),);

SECH1=CREA_RESU(OPERATION='AFFE',
                TYPE_RESU='EVOL_THER',
                NOM_CHAM='TEMP',
                AFFE=(
                _F(CHAM_GD=SECHI,
                   INST=0.0,),
                _F(CHAM_GD=SECHF,
                   INST=3600.0,),),);

TEMPI=CREA_CHAMP(TYPE_CHAM='NOEU_TEMP_R',
                OPERATION='AFFE',
                MAILLAGE=M,
                AFFE=_F(TOUT='OUI',
                        NOM_CMP='TEMP',
                        VALE=20.0,),);
TEMPF=CREA_CHAMP(TYPE_CHAM='NOEU_TEMP_R',
                OPERATION='AFFE',
                MAILLAGE=M,
                AFFE=_F(TOUT='OUI',
                        NOM_CMP='TEMP',
                        VALE=120.0,),);

TEMP1=CREA_RESU(OPERATION='AFFE',
                TYPE_RESU='EVOL_THER',
                NOM_CHAM='TEMP',
                AFFE=(
                _F(CHAM_GD=TEMPI,
                   INST=0.0,),
                _F(CHAM_GD=TEMPF,
                   INST=3600.0,),   ),);

HYDRI=CREA_CHAMP(TYPE_CHAM='NOEU_HYDR_R',
                OPERATION='AFFE',
                MODELE = MO,
                AFFE=_F(TOUT='OUI',
                        NOM_CMP='HYDR',
                        VALE=0.0,),);

HYDRF=CREA_CHAMP(TYPE_CHAM='NOEU_HYDR_R',
                OPERATION='AFFE',
                MODELE = MO,
                AFFE=_F(TOUT='OUI',
                        NOM_CMP='HYDR',
                        VALE=1.0,),);

HYDR1=CREA_RESU(OPERATION='AFFE',
                TYPE_RESU='EVOL_THER',
                NOM_CHAM='HYDR_NOEU',
                AFFE=(
                _F(CHAM_GD=HYDRI,
                   INST=0.0,),
                _F(CHAM_GD=HYDRF,
                   INST=3600.0,  ),),);

CM=AFFE_MATERIAU(MAILLAGE=M,
                 AFFE=_F(TOUT='OUI',
                         MATER=BETON,),
                 AFFE_VARC=(_F(TOUT='OUI',EVOL=HYDR1,NOM_VARC='HYDR',NOM_CHAM='HYDR_NOEU'),
                            _F(TOUT='OUI',EVOL=SECH1,NOM_VARC='SECH',NOM_CHAM='TEMP',VALE_REF=100),
                            _F(TOUT='OUI',EVOL=TEMP1,NOM_VARC='TEMP',NOM_CHAM='TEMP',VALE_REF=20),),);

CH1=AFFE_CHAR_MECA(MODELE=MO,
                   FACE_IMPO=(_F(GROUP_MA='FACEXY',
                                DZ=0.0,),
                             _F(GROUP_MA='FACEYZ',
                                DX=0.0,),
                             _F(GROUP_MA='FACEXZ',
                                DY=0.0,),),);


L_INST=DEFI_LIST_REEL(DEBUT=0.0,
                      INTERVALLE=_F(JUSQU_A=3600.0,
                                     NOMBRE=2,  ),);

U=STAT_NON_LINE(MODELE=MO,
                CHAM_MATER=CM,
                EXCIT=_F(CHARGE=CH1,),
                COMPORTEMENT=_F(RELATION='ELAS',),
                INCREMENT=_F(LIST_INST=L_INST,),
                NEWTON=_F(MATRICE='TANGENTE',
                          REAC_ITER=1,),
                CONVERGENCE=_F(RESI_GLOB_MAXI=1e-06,
                               ITER_GLOB_MAXI=25,),);

U=CALC_CHAMP(reuse=U,RESULTAT=U,CONTRAINTE=('SIGM_ELNO'),DEFORMATION=('EPSI_ELNO','EPSP_ELNO'))


U=CALC_CHAMP(reuse =U,
          RESULTAT=U,
          DEFORMATION=('EPSI_NOEU','EPSP_NOEU'),CONTRAINTE='SIGM_NOEU');

TEST_RESU(RESU=(_F(INST=3600.0,
                   REFERENCE='ANALYTIQUE',
                   RESULTAT=U,
                   NOM_CHAM='EPSI_NOEU',
                   NOEUD='N5',
                   NOM_CMP='EPXX',
                   VALE_CALC= 6.53000000E-04,
                   VALE_REFE=6.5300000000000004E-4,
                   PRECISION=5.0000000000000001E-3,),
                _F(INST=3600.0,
                   REFERENCE='ANALYTIQUE',
                   RESULTAT=U,
                   NOM_CHAM='EPSI_NOEU',
                   NOEUD='N5',
                   NOM_CMP='EPYY',
                   VALE_CALC= 6.53000000E-04,
                   VALE_REFE=6.5300000000000004E-4,
                   PRECISION=5.0000000000000001E-3,),
                _F(INST=3600.0,
                   REFERENCE='ANALYTIQUE',
                   RESULTAT=U,
                   NOM_CHAM='SIGM_NOEU',
                   NOEUD='N5',
                   NOM_CMP='SIXX',
                   VALE_CALC= 1.52060502E-08,
                   VALE_REFE=0.0,
                   CRITERE='ABSOLU',
                   PRECISION=9.9999999999999995E-07,),
                _F(INST=3600.0,
                   REFERENCE='ANALYTIQUE',
                   RESULTAT=U,
                   NOM_CHAM='SIGM_NOEU',
                   NOEUD='N5',
                   NOM_CMP='SIYY',
                   VALE_CALC= 1.22297087E-08,
                   VALE_REFE=0.0,
                   CRITERE='ABSOLU',
                   PRECISION=9.9999999999999995E-07,),
                _F(INST=3600.0,
                   REFERENCE='ANALYTIQUE',
                   RESULTAT=U,
                   NOM_CHAM='EPSP_NOEU',
                   NOEUD='N5',
                   NOM_CMP='EPXX',
                   VALE_CALC= 9.92113845E-21,
                   VALE_REFE=0.0,
                   CRITERE='ABSOLU',
                   PRECISION=9.9999999999999995E-07,),
                _F(INST=3600.0,
                   REFERENCE='ANALYTIQUE',
                   RESULTAT=U,
                   NOM_CHAM='EPSP_NOEU',
                   NOEUD='N5',
                   NOM_CMP='EPYY',
                   VALE_CALC= 1.58025909E-19,
                   VALE_REFE=0.0,
                   CRITERE='ABSOLU',
                   PRECISION=9.9999999999999995E-07,),
                ),
          )

#
# RESULTAT AVEC COMPORTEMENT
U3=STAT_NON_LINE(MODELE=MO,
                CHAM_MATER=CM,
                EXCIT=_F(CHARGE=CH1,),
                COMPORTEMENT=_F(RELATION='ELAS',),
                INCREMENT=_F(LIST_INST=L_INST,),
                NEWTON=_F(MATRICE='TANGENTE',
                          REAC_ITER=1,),
                CONVERGENCE=_F(RESI_GLOB_MAXI=1e-06,
                               ITER_GLOB_MAXI=25,),);

U3=CALC_CHAMP(reuse=U3,RESULTAT=U3,CONTRAINTE=('SIGM_ELNO'),DEFORMATION=('EPSI_ELNO','EPSP_ELNO'))


U3=CALC_CHAMP(reuse =U3,
          RESULTAT=U3,
          DEFORMATION=('EPSI_NOEU','EPSP_NOEU'),CONTRAINTE='SIGM_NOEU');

TEST_RESU(RESU=(_F(INST=3600.0,
                   REFERENCE='ANALYTIQUE',
                   RESULTAT=U3,
                   NOM_CHAM='EPSI_NOEU',
                   NOEUD='N5',
                   NOM_CMP='EPXX',
                   VALE_CALC= 6.53000000E-04,
                   VALE_REFE=6.5300000000000004E-4,
                   PRECISION=5.0000000000000001E-3,),
                _F(INST=3600.0,
                   REFERENCE='ANALYTIQUE',
                   RESULTAT=U3,
                   NOM_CHAM='EPSI_NOEU',
                   NOEUD='N5',
                   NOM_CMP='EPYY',
                   VALE_CALC= 6.53000000E-04,
                   VALE_REFE=6.5300000000000004E-4,
                   PRECISION=5.0000000000000001E-3,),
                _F(INST=3600.0,
                   REFERENCE='ANALYTIQUE',
                   RESULTAT=U3,
                   NOM_CHAM='SIGM_NOEU',
                   NOEUD='N5',
                   NOM_CMP='SIXX',
                   VALE_CALC= 1.42463706E-08,
                   VALE_REFE=0.0,
                   CRITERE='ABSOLU',
                   PRECISION=9.9999999999999995E-07,),
                _F(INST=3600.0,
                   REFERENCE='ANALYTIQUE',
                   RESULTAT=U3,
                   NOM_CHAM='SIGM_NOEU',
                   NOEUD='N5',
                   NOM_CMP='SIYY',
                   VALE_CALC= 5.12274050E-09,
                   VALE_REFE=0.0,
                   CRITERE='ABSOLU',
                   PRECISION=9.9999999999999995E-07,),
                _F(INST=3600.0,
                   REFERENCE='ANALYTIQUE',
                   RESULTAT=U3,
                   NOM_CHAM='EPSP_NOEU',
                   NOEUD='N5',
                   NOM_CMP='EPXX',
                   VALE_CALC=-1.45255548E-20,
                   VALE_REFE=0.0,
                   CRITERE='ABSOLU',
                   PRECISION=9.9999999999999995E-07,),
                _F(INST=3600.0,
                   REFERENCE='ANALYTIQUE',
                   RESULTAT=U3,
                   NOM_CHAM='EPSP_NOEU',
                   NOEUD='N5',
                   NOM_CMP='EPYY',
                   VALE_CALC=-1.98422769E-20,
                   VALE_REFE=0.0,
                   CRITERE='ABSOLU',
                   PRECISION=9.9999999999999995E-07,),
                ),
          )

# CALCUL AVEC MECA_STATIQUE

U2=MECA_STATIQUE(MODELE=MO,
                 CHAM_MATER=CM,
                 EXCIT=_F(CHARGE=CH1,),
                 INST=3600.0,);

U2=CALC_CHAMP(reuse=U2,RESULTAT=U2,CONTRAINTE=('SIGM_ELNO'),DEFORMATION=('EPSI_ELNO'))

U2=CALC_CHAMP(reuse =U2,
             RESULTAT = U2,
             DEFORMATION='EPSI_NOEU',CONTRAINTE='SIGM_NOEU')

TEST_RESU(RESU=(_F(INST=3600.0,
                   REFERENCE='ANALYTIQUE',
                   RESULTAT=U2,
                   NOM_CHAM='EPSI_NOEU',
                   NOEUD='N5',
                   NOM_CMP='EPXX',
                   VALE_CALC= 6.53000000E-04,
                   VALE_REFE=6.5300000000000004E-4,
                   PRECISION=5.0000000000000001E-3,),
                _F(INST=3600.0,
                   REFERENCE='ANALYTIQUE',
                   RESULTAT=U2,
                   NOM_CHAM='EPSI_NOEU',
                   NOEUD='N5',
                   NOM_CMP='EPYY',
                   VALE_CALC= 6.53000000E-04,
                   VALE_REFE=6.5300000000000004E-4,
                   PRECISION=5.0000000000000001E-3,),
                _F(INST=3600.0,
                   REFERENCE='ANALYTIQUE',
                   RESULTAT=U2,
                   NOM_CHAM='SIGM_NOEU',
                   NOEUD='N5',
                   NOM_CMP='SIXX',
                   VALE_CALC= 3.43920693E-08,
                   VALE_REFE=0.0,
                   CRITERE='ABSOLU',
                   PRECISION=9.9999999999999995E-07,),
                _F(INST=3600.0,
                   REFERENCE='ANALYTIQUE',
                   RESULTAT=U2,
                   NOM_CHAM='SIGM_NOEU',
                   NOEUD='N5',
                   NOM_CMP='SIYY',
                   VALE_CALC= 1.42193858E-08,
                   VALE_REFE=0.0,
                   CRITERE='ABSOLU',
                   PRECISION=9.9999999999999995E-07,),
                ),
          )

FIN();
