
# MODIF  DATE 10/10/2012   AUTEUR COURTOIS M.COURTOIS 
# TITRE CALCUL DU RETRAIT DE DESSICCATION SUR UN CYLINDRE
# ssla103d.para = tps_job 60 mem_job 512Mo ncpus 1 liste_test R
#            CONFIGURATION MANAGEMENT OF EDF VERSION
# ======================================================================
# COPYRIGHT (C) 1991 - 2012  EDF R&D                  WWW.CODE-ASTER.ORG
# THIS PROGRAM IS FREE SOFTWARE; YOU CAN REDISTRIBUTE IT AND/OR MODIFY
# IT UNDER THE TERMS OF THE GNU GENERAL PUBLIC LICENSE AS PUBLISHED BY
# THE FREE SOFTWARE FOUNDATION; EITHER VERSION 2 OF THE LICENSE, OR
# (AT YOUR OPTION) ANY LATER VERSION.
#
# THIS PROGRAM IS DISTRIBUTED IN THE HOPE THAT IT WILL BE USEFUL, BUT
# WITHOUT ANY WARRANTY; WITHOUT EVEN THE IMPLIED WARRANTY OF
# MERCHANTABILITY OR FITNESS FOR A PARTICULAR PURPOSE. SEE THE GNU
# GENERAL PUBLIC LICENSE FOR MORE DETAILS.
#
# YOU SHOULD HAVE RECEIVED A COPY OF THE GNU GENERAL PUBLIC LICENSE
# ALONG WITH THIS PROGRAM; IF NOT, WRITE TO EDF R&D CODE_ASTER,
#    1 AVENUE DU GENERAL DE GAULLE, 92141 CLAMART CEDEX, FRANCE.
# ======================================================================
#        ET D'HYDRATATION - LOI MAZARS NON LOCALE
# ======================================================================

DEBUT(CODE=_F(NOM='SSLA103D', NIV_PUB_WEB='INTERNET'), DEBUG=_F(SDVERI='OUI'))

M=LIRE_MAILLAGE();

MO=AFFE_MODELE(MAILLAGE=M,
               AFFE=_F(TOUT='OUI',
                              PHENOMENE='MECANIQUE',
                              MODELISATION='3D_GRAD_EPSI',),
                              );

E=DEFI_FONCTION(NOM_PARA='SECH',
                VALE=( 80.,  3.E10,
                      100. , 1.E10),)

NU=DEFI_FONCTION(NOM_PARA='HYDR',
                VALE=(  0.,  0.15,
                        1,   0.25),)

ALPHA=DEFI_CONSTANTE(VALE= 1.E-5)

EPSD0=DEFI_CONSTANTE(VALE=1.E-4,);

AT=DEFI_FONCTION(NOM_PARA='SECH',
                VALE=( 80., 0.8,
                      100., 0.6),)

BT=DEFI_FONCTION(NOM_PARA='HYDR',
                VALE=(  0., 10000.,
                        1., 11000.),)

AC   =DEFI_CONSTANTE(VALE = 1.4)

BC   =DEFI_CONSTANTE(VALE = 2000.)

K   =DEFI_CONSTANTE(VALE = 0.7)

BETON=DEFI_MATERIAU(ELAS_FO=_F(E=E,
                               NU=NU,
                               K_DESSIC =1.66E-5,
                               B_ENDOGE = 1.5E-5,
                               TEMP_DEF_ALPHA = 20.,
                               ALPHA=ALPHA),
                    NON_LOCAL = _F(LONG_CARA=0.0,),
                    MAZARS_FO  =_F(K = K,
                                   EPSD0= EPSD0,
                                   AC   = AC,
                                   AT   = AT,
                                   BC   = BC,
                                   BT   = BT),)

SECHI=CREA_CHAMP(TYPE_CHAM='NOEU_TEMP_R',
                 OPERATION='AFFE',
                 MAILLAGE=M,
                 AFFE=_F(TOUT='OUI',
                         NOM_CMP='TEMP',
                         VALE=100.,),);

SECHF=CREA_CHAMP(TYPE_CHAM='NOEU_TEMP_R',
                 OPERATION='AFFE',
                 MAILLAGE=M,
                 AFFE=_F(TOUT='OUI',
                         NOM_CMP='TEMP',
                         VALE=80.0,),);

SECH1=CREA_RESU(OPERATION='AFFE',
                TYPE_RESU='EVOL_THER',
                NOM_CHAM='TEMP',
                AFFE=(
                _F(CHAM_GD=SECHI,
                   INST=0.0,),
                _F(CHAM_GD=SECHF,
                   INST=3600.0,),),);

TEMPI=CREA_CHAMP(TYPE_CHAM='NOEU_TEMP_R',
                OPERATION='AFFE',
                MAILLAGE=M,
                AFFE=_F(TOUT='OUI',
                        NOM_CMP='TEMP',
                        VALE=20.0,),);
TEMPF=CREA_CHAMP(TYPE_CHAM='NOEU_TEMP_R',
                OPERATION='AFFE',
                MAILLAGE=M,
                AFFE=_F(TOUT='OUI',
                        NOM_CMP='TEMP',
                        VALE=120.0,),);

TEMP1=CREA_RESU(OPERATION='AFFE',
                TYPE_RESU='EVOL_THER',
                NOM_CHAM='TEMP',
                AFFE=(
                _F(CHAM_GD=TEMPI,
                   INST=0.0,),
                _F(CHAM_GD=TEMPF,
                   INST=3600.0,),   ),);

HYDRI=CREA_CHAMP(TYPE_CHAM='NOEU_HYDR_R',
                OPERATION='AFFE',
                MODELE = MO,
                AFFE=_F(MAILLE='M1',
                        NOM_CMP='HYDR',
                        VALE=0.0,),);

HYDRF=CREA_CHAMP(TYPE_CHAM='NOEU_HYDR_R',
                OPERATION='AFFE',
                MODELE = MO,
                AFFE=_F(MAILLE='M1',
                        NOM_CMP='HYDR',
                        VALE=1.0,),);

HYDR1=CREA_RESU(OPERATION='AFFE',
                TYPE_RESU='EVOL_THER',
                NOM_CHAM='HYDR_NOEU',
                AFFE=(
                _F(CHAM_GD=HYDRI,
                   INST=0.0,),
                _F(CHAM_GD=HYDRF,
                   INST=3600.0,  ),),);

CM=AFFE_MATERIAU(MAILLAGE=M,
                 AFFE=_F(TOUT='OUI',
                         MATER=BETON,),
                 AFFE_VARC=(_F(TOUT='OUI',EVOL=HYDR1,NOM_VARC='HYDR',NOM_CHAM='HYDR_NOEU'),
                            _F(TOUT='OUI',EVOL=SECH1,NOM_VARC='SECH',NOM_CHAM='TEMP',VALE_REF=100),
                            _F(TOUT='OUI',EVOL=TEMP1,NOM_VARC='TEMP',NOM_CHAM='TEMP',VALE_REF=20),),);

CH1=AFFE_CHAR_MECA(MODELE=MO,
                   FACE_IMPO=(_F(GROUP_MA='FACEXY',
                                DZ=0.0,),
                             _F(GROUP_MA='FACEYZ',
                                DX=0.0,),
                             _F(GROUP_MA='FACEXZ',
                                DY=0.0,),),);

L_INST=DEFI_LIST_REEL(DEBUT=0.0,
                      INTERVALLE=_F(JUSQU_A=3600.0,
                                     NOMBRE=20,  ),);

U=STAT_NON_LINE(MODELE=MO,
                CHAM_MATER=CM,
                EXCIT=_F(CHARGE=CH1,),
                COMP_INCR=_F(RELATION='MAZARS'),
                INCREMENT=_F(LIST_INST=L_INST,),
                NEWTON=_F(MATRICE='TANGENTE',
                          REAC_ITER=1,),
                CONVERGENCE=_F(RESI_GLOB_MAXI=1e-06,
                               ITER_GLOB_MAXI=25),);

U=CALC_CHAMP(reuse=U,RESULTAT=U,CONTRAINTE=('SIGM_ELNO'),VARI_INTERNE=('VARI_ELNO'),DEFORMATION=('EPSI_ELNO','EPSP_ELNO'))


U=CALC_CHAMP(reuse =U,
          RESULTAT=U,
          DEFORMATION=('EPSI_NOEU','EPSP_NOEU'),CONTRAINTE='SIGM_NOEU',VARI_INTERNE='VARI_NOEU',
          );

TEST_RESU(RESU=(_F(INST=3600.0,
                   REFERENCE='ANALYTIQUE',
                   RESULTAT=U,
                   NOM_CHAM='EPSI_NOEU',
                   NOEUD='N5',
                   NOM_CMP='EPXX',
                   VALE_CALC= 6.53000000E-04,
                   VALE_REFE=6.5300000000000004E-4,
                   PRECISION=5.0000000000000001E-3,),
                _F(INST=3600.0,
                   REFERENCE='ANALYTIQUE',
                   RESULTAT=U,
                   NOM_CHAM='EPSI_NOEU',
                   NOEUD='N5',
                   NOM_CMP='EPYY',
                   VALE_CALC= 6.53000000E-04,
                   VALE_REFE=6.5300000000000004E-4,
                   PRECISION=5.0000000000000001E-3,),
                _F(INST=3600.0,
                   REFERENCE='ANALYTIQUE',
                   RESULTAT=U,
                   NOM_CHAM='SIGM_NOEU',
                   NOEUD='N5',
                   NOM_CMP='SIXX',
                   VALE_CALC= 3.34659798E-08,
                   VALE_REFE=0.0,
                   CRITERE='ABSOLU',
                   PRECISION=9.9999999999999995E-07,),
                _F(INST=3600.0,
                   REFERENCE='ANALYTIQUE',
                   RESULTAT=U,
                   NOM_CHAM='SIGM_NOEU',
                   NOEUD='N5',
                   NOM_CMP='SIYY',
                   VALE_CALC= 1.97241364E-08,
                   VALE_REFE=0.0,
                   CRITERE='ABSOLU',
                   PRECISION=9.9999999999999995E-07,),
                _F(INST=3600.0,
                   REFERENCE='ANALYTIQUE',
                   RESULTAT=U,
                   NOM_CHAM='EPSP_NOEU',
                   NOEUD='N5',
                   NOM_CMP='EPXX',
                   VALE_CALC=-1.03673340E-18,
                   VALE_REFE=0.0,
                   CRITERE='ABSOLU',
                   PRECISION=9.9999999999999995E-07,),
                _F(INST=3600.0,
                   REFERENCE='ANALYTIQUE',
                   RESULTAT=U,
                   NOM_CHAM='EPSP_NOEU',
                   NOEUD='N5',
                   NOM_CMP='EPYY',
                   VALE_CALC=-2.61841710E-19,
                   VALE_REFE=0.0,
                   CRITERE='ABSOLU',
                   PRECISION=9.9999999999999995E-07,),
                _F(INST=3600.0,
                   REFERENCE='ANALYTIQUE',
                   RESULTAT=U,
                   NOM_CHAM='VARI_NOEU',
                   NOEUD='N5',
                   NOM_CMP='V1',
                   VALE_CALC= 0.00000000E+00,
                   VALE_REFE=0.0,
                   CRITERE='ABSOLU',
                   PRECISION=9.9999999999999995E-07,),
                ),
          )

FIN();
