# MODIF  DATE 10/10/2012   AUTEUR COURTOIS M.COURTOIS 
# TITRE POUTRE DROITE APPUYEE EN SES DEUX EXTREMITES SOUMISE A UN
# ssll102f.para = tps_job 60 mem_job 512Mo ncpus 1 liste_test R
#            CONFIGURATION MANAGEMENT OF EDF VERSION
# ======================================================================
# COPYRIGHT (C) 1991 - 2012  EDF R&D                  WWW.CODE-ASTER.ORG
# THIS PROGRAM IS FREE SOFTWARE; YOU CAN REDISTRIBUTE IT AND/OR MODIFY
# IT UNDER THE TERMS OF THE GNU GENERAL PUBLIC LICENSE AS PUBLISHED BY
# THE FREE SOFTWARE FOUNDATION; EITHER VERSION 2 OF THE LICENSE, OR
# (AT YOUR OPTION) ANY LATER VERSION.
#
# THIS PROGRAM IS DISTRIBUTED IN THE HOPE THAT IT WILL BE USEFUL, BUT
# WITHOUT ANY WARRANTY; WITHOUT EVEN THE IMPLIED WARRANTY OF
# MERCHANTABILITY OR FITNESS FOR A PARTICULAR PURPOSE. SEE THE GNU
# GENERAL PUBLIC LICENSE FOR MORE DETAILS.
#
# YOU SHOULD HAVE RECEIVED A COPY OF THE GNU GENERAL PUBLIC LICENSE
# ALONG WITH THIS PROGRAM; IF NOT, WRITE TO EDF R&D CODE_ASTER,
#    1 AVENUE DU GENERAL DE GAULLE, 92141 CLAMART CEDEX, FRANCE.
# ======================================================================
# CHARGEMENT REPARTI LINEAIRE. (INTRODUIT EN 4.2.14)
# CALCUL DE LA FLECHE, DE L'EFFORT TRANCHANT, DU MOMENT DE FLEXION ET
# DE LA CONTRAINTE MAXIMALE ASSOCIEE.
# MODELISATION POU_D_E
#======================================================================
#
DEBUT(CODE=_F(NOM='SSLL102F', NIV_PUB_WEB='INTERNET'), DEBUG=_F(SDVERI='OUI'))

#
MA=LIRE_MAILLAGE(  )

MA=DEFI_GROUP( reuse=MA,   MAILLAGE=MA,
  CREA_GROUP_MA=_F(  NOM = 'TOUT', TOUT = 'OUI'))

#
MO=AFFE_MODELE(    MAILLAGE=MA,
                        AFFE=_F( TOUT = 'OUI',
                              PHENOMENE = 'MECANIQUE',
                              MODELISATION = 'POU_D_E')
                 )

#
MATR=DEFI_MATERIAU(    ELAS=_F( E = 2.E11,
                               NU = 0.3)
                     )

#
CHMAT=AFFE_MATERIAU(    MAILLAGE=MA,
                              AFFE=_F( TOUT = 'OUI',
                                    MATER = MATR)
                        )

#
CAREL=AFFE_CARA_ELEM(    MODELE=MO,
                           POUTRE=_F(
       GROUP_MA = 'TOUT',

                                    SECTION = 'GENERALE',
                                    CARA = ('A',  'IY',
                                               'IZ', 'JX',
                                               'RY', 'RZ',  'RT',
                                              ),
                                    VALE = ( 3.14159E-2, 7.85398E-5,
                                                7.85398E-5, 1.57080E-4,
                                                0.100,   0.100,   0.100,
                                              ))
                       )

#
F1=DEFI_FONCTION(    NOM_PARA='X',
                           VALE=(0.,  0.,
                                 6.,  6000.,
                                ),
                       INTERPOL='LIN'
                   )

#
CHARG1=AFFE_CHAR_MECA(      MODELE=MO,DDL_IMPO=(
                            _F( NOEUD = 'N1',
                                      DX = 0.,
                                      DY = 0.,
                                      DZ = 0.,
                                      DRX = 0.,
                                      DRY = 0.),
                            _F( NOEUD = 'N11',
                                      DY = 0.))
                        )

#
CHARG2=AFFE_CHAR_MECA_F(          MODELE=MO,
                              FORCE_POUTRE=_F(
       GROUP_MA = 'TOUT',

                                            FY = F1)
                          )

#
MEST1=MECA_STATIQUE(        MODELE=MO,
                         SOLVEUR=_F( STOP_SINGULIER = 'OUI'),
                          CHAM_MATER=CHMAT,
                           CARA_ELEM=CAREL,EXCIT=(
                               _F( CHARGE = CHARG1),
                                     _F( CHARGE = CHARG2))
                      )

#
MEST1=CALC_CHAMP(reuse=MEST1,RESULTAT=MEST1,CONTRAINTE=('EFGE_ELNO','SIPM_ELNO'))


#
TEST_RESU(RESU=_F(NUME_ORDRE=1,
                  REFERENCE='ANALYTIQUE',
                  RESULTAT=MEST1,
                  NOM_CHAM='DEPL',
                  NOEUD='N7',
                  NOM_CMP='DY',
                  VALE_CALC= 3.22871363E-03,
                  VALE_REFE=3.2287129999999998E-3,
                  CRITERE='RELATIF',
                  PRECISION=9.9999999999999995E-07,),
          )

#
TEST_RESU(RESU=_F(NUME_ORDRE=1,
                  REFERENCE='ANALYTIQUE',
                  RESULTAT=MEST1,
                  NOM_CHAM='EFGE_ELNO',
                  NOEUD='N1',
                  NOM_CMP='VY',
                  VALE_CALC= 6.00000000E+03,
                  VALE_REFE=6000.0,
                  CRITERE='RELATIF',
                  PRECISION=9.9999999999999995E-07,
                  MAILLE='S11',),
          )

#
TEST_RESU(RESU=_F(NUME_ORDRE=1,
                  REFERENCE='ANALYTIQUE',
                  RESULTAT=MEST1,
                  NOM_CHAM='EFGE_ELNO',
                  NOEUD='N11',
                  NOM_CMP='VY',
                  VALE_CALC=-1.20000000E+04,
                  VALE_REFE=-1.2000E4,
                  CRITERE='RELATIF',
                  PRECISION=9.9999999999999995E-07,
                  MAILLE='S110',),
          )

#
TEST_RESU(RESU=_F(NUME_ORDRE=1,
                  REFERENCE='ANALYTIQUE',
                  RESULTAT=MEST1,
                  NOM_CHAM='EFGE_ELNO',
                  NOEUD='N8',
                  NOM_CMP='MFZ',
                  VALE_CALC=-1.38564065E+04,
                  VALE_REFE=-1.385641E4,
                  CRITERE='RELATIF',
                  PRECISION=9.9999999999999995E-07,
                  MAILLE='S17',),
          )

#
TEST_RESU(RESU=_F(NUME_ORDRE=1,
                  REFERENCE='ANALYTIQUE',
                  RESULTAT=MEST1,
                  NOM_CHAM='SIPM_ELNO',
                  NOEUD='N8',
                  NOM_CMP='SIXX',
                  VALE_CALC= 1.76425283E+07,
                  VALE_REFE=1.7642520E7,
                  CRITERE='RELATIF',
                  PRECISION=9.9999999999999995E-07,
                  MAILLE='S18',),
          )

#
FIN( )
#
#
