# MODIF  DATE 11/06/2012   AUTEUR PELLET J.PELLET 
# TITRE PROBLEME DE HOVGAARD : CALCUL DES EFFORTS POU_C_T + POU_D_T
# ssll101f.para = tps_job 60 mem_job 250Mo ncpus 1 liste_test S
#            CONFIGURATION MANAGEMENT OF EDF VERSION
# ======================================================================
# COPYRIGHT (C) 1991 - 2012  EDF R&D                  WWW.CODE-ASTER.ORG
# THIS PROGRAM IS FREE SOFTWARE; YOU CAN REDISTRIBUTE IT AND/OR MODIFY
# IT UNDER THE TERMS OF THE GNU GENERAL PUBLIC LICENSE AS PUBLISHED BY
# THE FREE SOFTWARE FOUNDATION; EITHER VERSION 2 OF THE LICENSE, OR
# (AT YOUR OPTION) ANY LATER VERSION.
#
# THIS PROGRAM IS DISTRIBUTED IN THE HOPE THAT IT WILL BE USEFUL, BUT
# WITHOUT ANY WARRANTY; WITHOUT EVEN THE IMPLIED WARRANTY OF
# MERCHANTABILITY OR FITNESS FOR A PARTICULAR PURPOSE. SEE THE GNU
# GENERAL PUBLIC LICENSE FOR MORE DETAILS.
#
# YOU SHOULD HAVE RECEIVED A COPY OF THE GNU GENERAL PUBLIC LICENSE
# ALONG WITH THIS PROGRAM; IF NOT, WRITE TO EDF R&D CODE_ASTER,
#    1 AVENUE DU GENERAL DE GAULLE, 92141 CLAMART CEDEX, FRANCE.
# ======================================================================
#       VALIDATION : COMP_ELAS=_F(RELATION='ELAS',),

DEBUT(CODE=_F(NOM='SSLL101F',NIV_PUB_WEB='INTERNET'),DEBUG=_F(SDVERI='OUI'),)

#
MAILLAGE=LIRE_MAILLAGE(FORMAT='MED',VERI_MAIL=_F(APLAT=0.0,VERIF='OUI'))

MODELE=AFFE_MODELE(  MAILLAGE=MAILLAGE,AFFE=(
                      _F(  GROUP_MA = 'POU_D_T',PHENOMENE = 'MECANIQUE',
                             MODELISATION = 'POU_D_T'),
                      _F(  GROUP_MA = 'POU_C_T',PHENOMENE = 'MECANIQUE',
                             MODELISATION = 'POU_C_T'),
                      _F(  GROUP_MA = ('APA','APB'),PHENOMENE = 'MECANIQUE',
                             MODELISATION = 'DIS_TR',),),
                  )

#
# ----------------------------------------------------------------------
#  DEFINITION DES MATERIAUX
MAT_1=DEFI_MATERIAU(  ELAS=_F(
                         E = 1.658000000E+11,NU = 3.000000000E-01,
                         RHO = 1.340410000E+04,ALPHA = 1.288000000E-05) )

#

CHAMPMAT=AFFE_MATERIAU(   MAILLAGE=MAILLAGE,
                     AFFE=_F(  GROUP_MA = 'MAT_1',    MATER = MAT_1) )

#
# ----------------------------------------------------------------------
#       CONDITIONS LIMITES

CON_LIM=AFFE_CHAR_MECA( MODELE=MODELE,
                        DDL_IMPO=_F(  GROUP_NO = 'ENCASTRE',
                              DX = 0., DY = 0., DZ = 0.,
                              DRX = 0., DRY = 0., DRZ = 0.)
                  )

#

# ---------- AFFECTATION DES CARACTERISTIQUES ELEMENTAIRES ----------
grd = 1.0E+12
CARA_ELE=AFFE_CARA_ELEM( MODELE=MODELE,
#
       POUTRE=(
          _F(  GROUP_MA = 'SEC_1',
             SECTION = 'GENERALE',
              CARA = ('A', 'IZ', 'IY', 'AY', 'AZ', 'JX',
                      'EZ', 'EY', 'RY', 'RZ', 'RT', ),
              VALE = ( 3.439000000E-03, 1.377000000E-05, 1.377000000E-05,
                      2.000000000E+00, 2.000000000E+00, 2.754000000E-05,
                      0.000000000E+00, 0.000000000E+00, 1.000000000E+00,
                      1.000000000E+00, 1.000000000E+00, )),
          _F(  GROUP_MA = 'SEC_2',   SECTION = 'GENERALE',
             CARA = ('A', 'IZ', 'IY', 'AY', 'AZ', 'JX',
                      'EZ', 'EY', 'RY', 'RZ', 'RT', ),
               VALE = ( 3.439000000E-03, 5.887000000E-06, 5.887000000E-06,
                      2.000000000E+00, 2.000000000E+00, 2.754000000E-05,
                      0.000000000E+00, 0.000000000E+00, 1.000000000E+00,
                      1.000000000E+00, 1.000000000E+00, )),
      ),
      DISCRET=(_F(GROUP_MA=('APA','APB'),CARA='K_TR_D_L',VALE=(grd,grd,grd,grd,grd,grd),),
               _F(GROUP_MA=('APA','APB'),CARA='M_TR_L',VALE=(0.,0.,0.,0.,0.,0.,0.,0.,0.,0.,0.,0.,0.,0.,0.,0.,0.,0.,0.,0.,
                                                                       0.,0.,0.,0.,0.,0.,0.,0.,0.,0.,0.,0.,0.,0.,0.,0.,0.,0.,0.,0.,
                                                                0.,0.,0.,0.,0.,0.,0.,0.,0.,0.,0.,0.,0.,0.,0.,0.,0.,0.,0.,0.,
                                                                0.,0.,0.,0.,0.,0.,0.,0.,0.,0.,0.,0.,0.,0.,0.,0.,0.,0.,),),),
      ORIENTATION=(
         _F(GROUP_MA='APA', CARA='ANGL_NAUT',VALE=( 0.0, -90.0, 0.0),),
         _F(GROUP_MA='APB', CARA='ANGL_NAUT',VALE=( 0.0,   0.0, 0.0),),
      ),
      DEFI_ARC=(
         _F( MAILLE = ('E9', 'E10',),
             POIN_TANG = (0.,     0.,     0.), ),
         _F( MAILLE = ('E3','E4',),
             CENTRE = (0., -1.828, -0.922),), )
)

# ----------------------------------------------------------------------
# CALCUL STATIQUE

#CHARGEMENT 1
CH1=AFFE_CHAR_MECA( MODELE=MODELE, PESANTEUR=_F(GRAVITE=-9.81,
                                                DIRECTION=(0., 0., 1.,), ),)


#CHARGEMENT 2
TEMPER0=CREA_CHAMP( OPERATION='AFFE', TYPE_CHAM='NOEU_TEMP_R',
MAILLAGE=MAILLAGE,AFFE=(
       _F( NOEUD = 'N100',    NOM_CMP = 'TEMP',VALE = 0.),
       _F( NOEUD = 'N200',    NOM_CMP = 'TEMP',VALE = 0.),
       _F( NOEUD = 'N200',    NOM_CMP = 'TEMP',VALE = 0.),
       _F( NOEUD = 'N300',    NOM_CMP = 'TEMP',VALE = 0.),
       _F( NOEUD = 'N500',    NOM_CMP = 'TEMP',VALE = 0.),
       _F( NOEUD = 'N600',    NOM_CMP = 'TEMP',VALE = 0.),
       _F( NOEUD = 'N600',    NOM_CMP = 'TEMP',VALE = 0.),
       _F( NOEUD = 'N700',    NOM_CMP = 'TEMP',VALE = 0.),
       _F( NOEUD = 'N700',    NOM_CMP = 'TEMP',VALE = 0.),
       _F( NOEUD = 'N800',    NOM_CMP = 'TEMP',VALE = 0.),
       _F( NOEUD = 'N800',    NOM_CMP = 'TEMP',VALE = 0.),
       _F( NOEUD = 'N900',    NOM_CMP = 'TEMP',VALE = 0.),
       _F( NOEUD = 'N1100',   NOM_CMP = 'TEMP',VALE = 0.),
       _F( NOEUD = 'N1200',   NOM_CMP = 'TEMP',VALE = 0.),
       _F( NOEUD = 'N1200',   NOM_CMP = 'TEMP',VALE = 0.),
       _F( NOEUD = 'N1300',   NOM_CMP = 'TEMP',VALE = 0.),
       _F( NOEUD = 'N1300',   NOM_CMP = 'TEMP',VALE = 0.),
       _F( NOEUD = 'N1400',   NOM_CMP = 'TEMP',VALE = 0.),
       _F( NOEUD = 'N1400',   NOM_CMP = 'TEMP',VALE = 0.),
       _F( NOEUD = 'N1500',   NOM_CMP = 'TEMP',VALE = 0.),
# ... 7 like lines cut
       _F( NOEUD = 'N1100',   NOM_CMP = 'TEMP',VALE = 0.)
         ))

TEMPER=CREA_CHAMP( OPERATION='AFFE', TYPE_CHAM='NOEU_TEMP_R',
MAILLAGE=MAILLAGE,AFFE=(
       _F( NOEUD = 'N100',    NOM_CMP = 'TEMP',VALE = 4.722200000E+02),
       _F( NOEUD = 'N200',    NOM_CMP = 'TEMP',VALE = 4.722200000E+02),
       _F( NOEUD = 'N200',    NOM_CMP = 'TEMP',VALE = 4.722200000E+02),
       _F( NOEUD = 'N300',    NOM_CMP = 'TEMP',VALE = 4.722200000E+02),
       _F( NOEUD = 'N500',    NOM_CMP = 'TEMP',VALE = 4.722200000E+02),
       _F( NOEUD = 'N600',    NOM_CMP = 'TEMP',VALE = 4.722200000E+02),
       _F( NOEUD = 'N600',    NOM_CMP = 'TEMP',VALE = 4.722200000E+02),
       _F( NOEUD = 'N700',    NOM_CMP = 'TEMP',VALE = 4.722200000E+02),
       _F( NOEUD = 'N700',    NOM_CMP = 'TEMP',VALE = 4.722200000E+02),
       _F( NOEUD = 'N800',    NOM_CMP = 'TEMP',VALE = 4.722200000E+02),
       _F( NOEUD = 'N800',    NOM_CMP = 'TEMP',VALE = 4.722200000E+02),
       _F( NOEUD = 'N900',    NOM_CMP = 'TEMP',VALE = 4.722200000E+02),
       _F( NOEUD = 'N1100',   NOM_CMP = 'TEMP',VALE = 4.722200000E+02),
       _F( NOEUD = 'N1200',   NOM_CMP = 'TEMP',VALE = 4.722200000E+02),
       _F( NOEUD = 'N1200',   NOM_CMP = 'TEMP',VALE = 4.722200000E+02),
       _F( NOEUD = 'N1300',   NOM_CMP = 'TEMP',VALE = 4.722200000E+02),
       _F( NOEUD = 'N1300',   NOM_CMP = 'TEMP',VALE = 4.722200000E+02),
       _F( NOEUD = 'N1400',   NOM_CMP = 'TEMP',VALE = 4.722200000E+02),
       _F( NOEUD = 'N1400',   NOM_CMP = 'TEMP',VALE = 4.722200000E+02),
       _F( NOEUD = 'N1500',   NOM_CMP = 'TEMP',VALE = 4.722200000E+02),
# ... 7 like lines cut
       _F( NOEUD = 'N1100',   NOM_CMP = 'TEMP',VALE = 4.722200000E+02))
         )

#CHARGEMENT 3

CH3=AFFE_CHAR_MECA( MODELE=MODELE,FORCE_NODALE=(
             _F( NOEUD = 'N200',    FZ = -6.248970000E+02),
             _F( NOEUD = 'N300',    FZ = -7.887240000E+02),
             _F( NOEUD = 'N400',    FZ = -3.276540000E+02),
             _F( NOEUD = 'N500',    FZ = -2.148390000E+02),
             _F( NOEUD = 'N600',    FZ = -1.025140000E+02),
             _F( NOEUD = 'N700',    FZ = -1.025140000E+02),
             _F( NOEUD = 'N800',    FZ = -1.025140000E+02),
             _F( NOEUD = 'N900',    FZ = -2.148390000E+02),
             _F( NOEUD = 'N1000',   FZ = -3.276540000E+02),
             _F( NOEUD = 'N1100',   FZ = -2.226870000E+02),
             _F( NOEUD = 'N1200',   FZ = -1.177200000E+02),
             _F( NOEUD = 'N1300',   FZ = -1.177200000E+02),
             _F( NOEUD = 'N1400',   FZ = -1.765800000E+02))
               )

TEMPE=CREA_RESU(
                OPERATION='AFFE', TYPE_RESU='EVOL_THER',
                NOM_CHAM='TEMP',
                AFFE=(_F(INST = 0.0, CHAM_GD = TEMPER0),
                      _F(INST = 1.0, CHAM_GD = TEMPER),
                ))

CHAMTH=AFFE_MATERIAU(   MAILLAGE=MAILLAGE,
                     AFFE=_F(  GROUP_MA = 'MAT_1',    MATER = MAT_1),
                    );

CHAMTH1=AFFE_MATERIAU(   MAILLAGE=MAILLAGE,
                     AFFE=_F(  GROUP_MA = 'MAT_1',    MATER = MAT_1),
                     AFFE_VARC=_F( TOUT='OUI',
                              EVOL=TEMPE,VALE_REF=0.,
                              NOM_VARC='TEMP',
                              NOM_CHAM='TEMP',),
                    );

L_INST=DEFI_LIST_REEL(DEBUT=0.0,
                      INTERVALLE=_F(JUSQU_A=1.,
                                     NOMBRE=1,),);

# POIDS PROPRE

RESU1 =STAT_NON_LINE(MODELE=MODELE,
                    CHAM_MATER=CHAMTH,
                    CARA_ELEM=CARA_ELE,
                    EXCIT=(_F(CHARGE=CON_LIM,),
                           _F(CHARGE=CH1,),),
                     COMP_ELAS=_F(RELATION='ELAS'),
                     INCREMENT=_F(LIST_INST=L_INST),);


RESU1=CALC_CHAMP(reuse=RESU1,RESULTAT=RESU1,CONTRAINTE=('SIEF_ELNO'))


IMPR_RESU(RESU=_F(RESULTAT=RESU1, NUME_ORDRE=1))


# DILATATION
RESU2 =STAT_NON_LINE(MODELE=MODELE,
                    CHAM_MATER=CHAMTH1,
                    CARA_ELEM=CARA_ELE,
                    EXCIT=_F(CHARGE=CON_LIM,),
                    COMP_ELAS=_F(RELATION='ELAS',DEFORMATION='PETIT'),
                    INCREMENT=_F(LIST_INST=L_INST),);


RESU2=CALC_CHAMP(reuse=RESU2,RESULTAT=RESU2,CONTRAINTE=('SIEF_ELNO'))



# FORCES NODALES

RESU3 =STAT_NON_LINE(MODELE=MODELE,
                    CHAM_MATER=CHAMTH,
                    CARA_ELEM=CARA_ELE,
                    EXCIT=(_F(CHARGE=CON_LIM,),
                           _F(CHARGE=CH3,),),
                    COMP_ELAS=_F(RELATION='ELAS',TOUT='OUI'),
                    INCREMENT=_F(LIST_INST=L_INST),);


RESU3=CALC_CHAMP(reuse=RESU3,RESULTAT=RESU3,CONTRAINTE=('SIEF_ELNO'))



TEST_RESU(RESU=(

# DEPLACEMENT : POIDS PROPRE

         _F( REFERENCE='SOURCE_EXTERNE', RESULTAT = RESU1, NOM_CHAM='DEPL', NUME_ORDRE=1,
         NOEUD = 'N300', NOM_CMP = 'DX', VALE = -0.1658E-3),

         _F( REFERENCE='SOURCE_EXTERNE', RESULTAT = RESU1, NOM_CHAM='DEPL', NUME_ORDRE=1,
         NOEUD = 'N300', NOM_CMP = 'DY', VALE = -0.2040E-4,PRECISION = 8.E-3),

         _F( REFERENCE='SOURCE_EXTERNE', RESULTAT = RESU1, NOM_CHAM='DEPL', NUME_ORDRE=1,
         NOEUD = 'N300', NOM_CMP = 'DZ', VALE = -0.8010E-5),

         _F( REFERENCE='SOURCE_EXTERNE', RESULTAT = RESU1, NOM_CHAM='DEPL', NUME_ORDRE=1,
         NOEUD = 'N500', NOM_CMP = 'DX', VALE = -0.2397E-3),

         _F( REFERENCE='SOURCE_EXTERNE', RESULTAT = RESU1, NOM_CHAM='DEPL', NUME_ORDRE=1,
         NOEUD = 'N500', NOM_CMP = 'DY', VALE = 0.1777E-3),

         _F( REFERENCE='SOURCE_EXTERNE', RESULTAT = RESU1, NOM_CHAM='DEPL', NUME_ORDRE=1,
         NOEUD = 'N500', NOM_CMP = 'DZ', VALE = -0.2681E-3),

         _F( REFERENCE='SOURCE_EXTERNE', RESULTAT = RESU1, NOM_CHAM='DEPL', NUME_ORDRE=1,
         NOEUD = 'N700', NOM_CMP = 'DX', VALE = -0.1855E-3),

         _F( REFERENCE='SOURCE_EXTERNE', RESULTAT = RESU1, NOM_CHAM='DEPL', NUME_ORDRE=1,
         NOEUD = 'N700', NOM_CMP = 'DY', VALE = 0.1775E-3),

         _F( REFERENCE='SOURCE_EXTERNE', RESULTAT = RESU1, NOM_CHAM='DEPL', NUME_ORDRE=1,
         NOEUD = 'N700', NOM_CMP = 'DZ', VALE = -0.3940E-3),

         _F( REFERENCE='SOURCE_EXTERNE', RESULTAT = RESU1, NOM_CHAM='DEPL', NUME_ORDRE=1,
         NOEUD = 'N900', NOM_CMP = 'DX', VALE = -0.1278E-3),

         _F( REFERENCE='SOURCE_EXTERNE', RESULTAT = RESU1, NOM_CHAM='DEPL', NUME_ORDRE=1,
         NOEUD = 'N900', NOM_CMP = 'DY', VALE = 0.1774E-3),

         _F( REFERENCE='SOURCE_EXTERNE', RESULTAT = RESU1, NOM_CHAM='DEPL', NUME_ORDRE=1,
         NOEUD = 'N900', NOM_CMP = 'DZ', VALE = -0.4977E-3),

         _F( REFERENCE='SOURCE_EXTERNE', RESULTAT = RESU1, NOM_CHAM='DEPL', NUME_ORDRE=1,
         NOEUD = 'N1100', NOM_CMP = 'DX', VALE = 0.0,CRITERE = 'ABSOLU'),

         _F( REFERENCE='SOURCE_EXTERNE', RESULTAT = RESU1, NOM_CHAM='DEPL', NUME_ORDRE=1,
         NOEUD = 'N1100', NOM_CMP = 'DY', VALE = 0.5682E-4),

         _F( REFERENCE='SOURCE_EXTERNE', RESULTAT = RESU1, NOM_CHAM='DEPL', NUME_ORDRE=1,
         NOEUD = 'N1100', NOM_CMP = 'DZ', VALE = -0.2207E-3),

# EFFORT GENERALISE : POIDS PROPRE

         _F( REFERENCE='SOURCE_EXTERNE', RESULTAT = RESU1, NOM_CHAM='SIEF_ELNO', NUME_ORDRE=1,
             MAILLE = 'EAA',NOEUD = 'N100',NOM_CMP = 'N',VALE = -2276.,PRECISION = 5.E-3),

         _F( REFERENCE='SOURCE_EXTERNE', RESULTAT = RESU1, NOM_CHAM='SIEF_ELNO', NUME_ORDRE=1,
             MAILLE = 'EAA',NOEUD = 'N100',NOM_CMP = 'VY',VALE = -161.1),

         _F( REFERENCE='SOURCE_EXTERNE', RESULTAT = RESU1, NOM_CHAM='SIEF_ELNO', NUME_ORDRE=1,
             MAILLE = 'EAA',NOEUD = 'N100',NOM_CMP = 'VZ',VALE = -10.095,PRECISION = 5.E-3),

         _F( REFERENCE='SOURCE_EXTERNE', RESULTAT = RESU1, NOM_CHAM='SIEF_ELNO', NUME_ORDRE=1,
             MAILLE = 'EAA',NOEUD = 'N100',NOM_CMP = 'MT', VALE = -53.40),

         _F( REFERENCE='SOURCE_EXTERNE', RESULTAT = RESU1, NOM_CHAM='SIEF_ELNO', NUME_ORDRE=1,
             MAILLE = 'EAA',NOEUD = 'N100',NOM_CMP = 'MFY',VALE = -89.66),

         _F( REFERENCE='SOURCE_EXTERNE', RESULTAT = RESU1, NOM_CHAM='SIEF_ELNO', NUME_ORDRE=1,
             MAILLE = 'EAA',NOEUD = 'N100',NOM_CMP = 'MFZ',VALE = -158.5),

         _F( REFERENCE='SOURCE_EXTERNE', RESULTAT = RESU1, NOM_CHAM='SIEF_ELNO', NUME_ORDRE=1,
             MAILLE = 'EBB',NOEUD = 'N1500',NOM_CMP = 'N',VALE = 10.095,PRECISION = 5.E-3),

         _F( REFERENCE='SOURCE_EXTERNE', RESULTAT = RESU1, NOM_CHAM='SIEF_ELNO', NUME_ORDRE=1,
             MAILLE = 'EBB',NOEUD = 'N1500',NOM_CMP = 'VY',VALE = -161.1),

         _F( REFERENCE='SOURCE_EXTERNE', RESULTAT = RESU1, NOM_CHAM='SIEF_ELNO', NUME_ORDRE=1,
             MAILLE = 'EBB',NOEUD = 'N1500',NOM_CMP = 'VZ',VALE = 1165.,PRECISION = 5.E-3),

         _F( REFERENCE='SOURCE_EXTERNE', RESULTAT = RESU1, NOM_CHAM='SIEF_ELNO', NUME_ORDRE=1,
             MAILLE = 'EBB',NOEUD = 'N1500',NOM_CMP = 'MT',VALE = 15.60,PRECISION = 5.E-3),

         _F( REFERENCE='SOURCE_EXTERNE', RESULTAT = RESU1, NOM_CHAM='SIEF_ELNO', NUME_ORDRE=1,
             MAILLE = 'EBB',NOEUD = 'N1500',NOM_CMP = 'MFY',VALE = 1260.5,PRECISION = 5.E-3),

         _F( REFERENCE='SOURCE_EXTERNE', RESULTAT = RESU1, NOM_CHAM='SIEF_ELNO', NUME_ORDRE=1,
            MAILLE = 'EBB',NOEUD = 'N1500',NOM_CMP = 'MFZ',VALE = 290.1,),
         ))


# TESTS DE LA CHARGE THERMIQUE (DILATATION)


TEST_RESU(RESU=(

#DEPLACEMENT DILATATION

         _F( REFERENCE='SOURCE_EXTERNE', RESULTAT = RESU2, NOM_CHAM='DEPL', NUME_ORDRE=1,
         NOEUD = 'N300', NOM_CMP = 'DX', VALE = -6.1418E-3),

         _F( REFERENCE='SOURCE_EXTERNE', RESULTAT = RESU2, NOM_CHAM='DEPL', NUME_ORDRE=1,
         NOEUD = 'N300', NOM_CMP = 'DY', VALE = -13.090E-3),

         _F( REFERENCE='SOURCE_EXTERNE', RESULTAT = RESU2, NOM_CHAM='DEPL', NUME_ORDRE=1,
         NOEUD = 'N300', NOM_CMP = 'DZ', VALE = 16.799E-3),

         _F( REFERENCE='SOURCE_EXTERNE', RESULTAT = RESU2, NOM_CHAM='DEPL', NUME_ORDRE=1,
         NOEUD = 'N500', NOM_CMP = 'DX', VALE = -10.302E-3),

         _F( REFERENCE='SOURCE_EXTERNE', RESULTAT = RESU2, NOM_CHAM='DEPL', NUME_ORDRE=1,
         NOEUD = 'N500', NOM_CMP = 'DY', VALE = -8.132E-3),

         _F( REFERENCE='SOURCE_EXTERNE', RESULTAT = RESU2, NOM_CHAM='DEPL', NUME_ORDRE=1,
         NOEUD = 'N500', NOM_CMP = 'DZ', VALE = 19.723E-3),

         _F( REFERENCE='SOURCE_EXTERNE', RESULTAT = RESU2, NOM_CHAM='DEPL',NUME_ORDRE=1,
         NOEUD = 'N700', NOM_CMP = 'DX', VALE = -11.370E-3),

         _F( REFERENCE='SOURCE_EXTERNE', RESULTAT = RESU2, NOM_CHAM='DEPL', NUME_ORDRE=1,
         NOEUD = 'N700', NOM_CMP = 'DY', VALE = -5.383E-3),

         _F( REFERENCE='SOURCE_EXTERNE', RESULTAT = RESU2, NOM_CHAM='DEPL',NUME_ORDRE=1,
         NOEUD = 'N700', NOM_CMP = 'DZ', VALE = 16.135E-3),

         _F( REFERENCE='SOURCE_EXTERNE', RESULTAT = RESU2, NOM_CHAM='DEPL',NUME_ORDRE=1,
         NOEUD = 'N900', NOM_CMP = 'DX', VALE = -12.238E-3),

         _F( REFERENCE='SOURCE_EXTERNE', RESULTAT = RESU2, NOM_CHAM='DEPL', NUME_ORDRE=1,
         NOEUD = 'N900', NOM_CMP = 'DY', VALE = -2.633E-3),

         _F( REFERENCE='SOURCE_EXTERNE', RESULTAT = RESU2, NOM_CHAM='DEPL', NUME_ORDRE=1,
         NOEUD = 'N900', NOM_CMP = 'DZ', VALE = 12.262E-3),

         _F( REFERENCE='SOURCE_EXTERNE', RESULTAT = RESU2, NOM_CHAM='DEPL',NUME_ORDRE=1,
         NOEUD = 'N1100', NOM_CMP = 'DX', VALE = -6.308E-3),

         _F( REFERENCE='SOURCE_EXTERNE', RESULTAT = RESU2, NOM_CHAM='DEPL', NUME_ORDRE=1,
         NOEUD = 'N1100', NOM_CMP = 'DY', VALE = 1.542E-3),

         _F( REFERENCE='SOURCE_EXTERNE', RESULTAT = RESU2, NOM_CHAM='DEPL', NUME_ORDRE=1,
         NOEUD = 'N1100', NOM_CMP = 'DZ', VALE = 1.931E-3),


#EFFORT GENERALISE

   _F( REFERENCE='SOURCE_EXTERNE', RESULTAT = RESU2,MAILLE = 'E1', NOM_CHAM='SIEF_ELNO',NUME_ORDRE=1,
   NOEUD = 'N100',NOM_CMP = 'N',VALE = -7431.),

   _F( REFERENCE='SOURCE_EXTERNE', RESULTAT = RESU2,MAILLE = 'E1', NOM_CHAM='SIEF_ELNO', NUME_ORDRE=1,
   NOEUD = 'N100',NOM_CMP = 'VY',VALE = -7613.),

   _F( REFERENCE='SOURCE_EXTERNE', RESULTAT = RESU2,MAILLE = 'E1', NOM_CHAM='SIEF_ELNO', NUME_ORDRE=1,
   NOEUD = 'N100',NOM_CMP = 'VZ',VALE = 2791.),

   _F( REFERENCE='SOURCE_EXTERNE', RESULTAT = RESU2,MAILLE = 'E1', NOM_CHAM='SIEF_ELNO',NUME_ORDRE=1,
   NOEUD = 'N100',NOM_CMP = 'MT',VALE = 1615.),

   _F( REFERENCE='SOURCE_EXTERNE', RESULTAT = RESU2,MAILLE = 'E1', NOM_CHAM='SIEF_ELNO', NUME_ORDRE=1,
   NOEUD = 'N100',NOM_CMP = 'MFY',VALE = -6193.),

   _F( REFERENCE='SOURCE_EXTERNE', RESULTAT = RESU2,MAILLE = 'E1', NOM_CHAM='SIEF_ELNO',NUME_ORDRE=1,
   NOEUD = 'N100',NOM_CMP = 'MFZ',VALE = -14712.),

   _F( REFERENCE='SOURCE_EXTERNE', RESULTAT = RESU2,MAILLE = 'E14', NOM_CHAM='SIEF_ELNO', NUME_ORDRE=1,
   NOEUD = 'N1500',NOM_CMP = 'N',VALE = -2791.),

   _F( REFERENCE='SOURCE_EXTERNE', RESULTAT = RESU2,MAILLE = 'E14', NOM_CHAM='SIEF_ELNO', NUME_ORDRE=1,
   NOEUD = 'N1500',NOM_CMP = 'VY',VALE = -7613.),

   _F( REFERENCE='SOURCE_EXTERNE', RESULTAT = RESU2,MAILLE = 'E14', NOM_CHAM='SIEF_ELNO',NUME_ORDRE=1,
   NOEUD = 'N1500',NOM_CMP = 'VZ',VALE = -7433.),

   _F( REFERENCE='SOURCE_EXTERNE', RESULTAT = RESU2,MAILLE = 'E14', NOM_CHAM='SIEF_ELNO', NUME_ORDRE=1,
   NOEUD = 'N1500',NOM_CMP = 'MT',VALE = 7052.),

   _F( REFERENCE='SOURCE_EXTERNE', RESULTAT = RESU2,MAILLE = 'E14', NOM_CHAM='SIEF_ELNO',NUME_ORDRE=1,
   NOEUD = 'N1500',NOM_CMP = 'MFY',VALE = -10460.),

   _F( REFERENCE='SOURCE_EXTERNE', RESULTAT = RESU2,MAILLE = 'E14', NOM_CHAM='SIEF_ELNO', NUME_ORDRE=1,
   NOEUD = 'N1500',NOM_CMP = 'MFZ',VALE = 8862.,),),
           );

## TESTS DE LA CHARGE FORCE NODALE

TEST_RESU(RESU=(

# DEPLACEMENTS FORCES NODALES

        _F( REFERENCE='SOURCE_EXTERNE', RESULTAT = RESU3, NOM_CHAM='DEPL', NUME_ORDRE=1,
        NOEUD = 'N300', NOM_CMP = 'DX', VALE = -0.1651E-3),

        _F( REFERENCE='SOURCE_EXTERNE', RESULTAT = RESU3, NOM_CHAM='DEPL', NUME_ORDRE=1,
        NOEUD = 'N300', NOM_CMP = 'DY', VALE = -0.2080E-4),

        _F( REFERENCE='SOURCE_EXTERNE', RESULTAT = RESU3, NOM_CHAM='DEPL', NUME_ORDRE=1,
        NOEUD = 'N300', NOM_CMP = 'DZ', VALE = -0.9516E-5),

        _F( REFERENCE='SOURCE_EXTERNE', RESULTAT = RESU3, NOM_CHAM='DEPL', NUME_ORDRE=1,
        NOEUD = 'N500', NOM_CMP = 'DX', VALE = -0.2386E-3),

        _F( REFERENCE='SOURCE_EXTERNE', RESULTAT = RESU3, NOM_CHAM='DEPL', NUME_ORDRE=1,
        NOEUD = 'N500', NOM_CMP = 'DY', VALE = 0.1773E-3),

        _F( REFERENCE='SOURCE_EXTERNE', RESULTAT = RESU3, NOM_CHAM='DEPL', NUME_ORDRE=1,
        NOEUD = 'N500', NOM_CMP = 'DZ', VALE = -0.2697E-3),

        _F( REFERENCE='SOURCE_EXTERNE', RESULTAT = RESU3, NOM_CHAM='DEPL', NUME_ORDRE=1,
        NOEUD = 'N700', NOM_CMP = 'DX', VALE = -0.1848E-3),

        _F( REFERENCE='SOURCE_EXTERNE', RESULTAT = RESU3, NOM_CHAM='DEPL', NUME_ORDRE=1,
        NOEUD = 'N700', NOM_CMP = 'DY', VALE = 0.1771E-3),

        _F( REFERENCE='SOURCE_EXTERNE', RESULTAT = RESU3, NOM_CHAM='DEPL', NUME_ORDRE=1,
        NOEUD = 'N700', NOM_CMP = 'DZ', VALE = -0.3948E-3),

        _F( REFERENCE='SOURCE_EXTERNE', RESULTAT = RESU3, NOM_CHAM='DEPL', NUME_ORDRE=1,
        NOEUD = 'N900', NOM_CMP = 'DX', VALE = -0.1274E-3),

        _F( REFERENCE='SOURCE_EXTERNE', RESULTAT = RESU3, NOM_CHAM='DEPL', NUME_ORDRE=1,
        NOEUD = 'N900', NOM_CMP = 'DY', VALE = 0.1770E-3),

        _F( REFERENCE='SOURCE_EXTERNE', RESULTAT = RESU3, NOM_CHAM='DEPL', NUME_ORDRE=1,
        NOEUD = 'N900', NOM_CMP = 'DZ', VALE = -0.4964E-3),

        _F( REFERENCE='SOURCE_EXTERNE', RESULTAT = RESU3, NOM_CHAM='DEPL', NUME_ORDRE=1,
        NOEUD = 'N1100', NOM_CMP = 'DX', VALE = 0.0,CRITERE = 'ABSOLU'),

        _F( REFERENCE='SOURCE_EXTERNE', RESULTAT = RESU3, NOM_CHAM='DEPL', NUME_ORDRE=1,
        NOEUD = 'N1100', NOM_CMP = 'DY', VALE = 0.5674E-4),

        _F( REFERENCE='SOURCE_EXTERNE', RESULTAT = RESU3, NOM_CHAM='DEPL', NUME_ORDRE=1,
        NOEUD = 'N1100', NOM_CMP = 'DZ', VALE = -0.2186E-3),

# EFFORTS GENERALISES (FORCES NODALES)

   _F( REFERENCE='SOURCE_EXTERNE', RESULTAT = RESU3,MAILLE = 'E1', NOM_CHAM='SIEF_ELNO', NUME_ORDRE=1,
   NOEUD = 'N100',NOM_CMP = 'N',  VALE = -2273.),

   _F( REFERENCE='SOURCE_EXTERNE', RESULTAT = RESU3,MAILLE = 'E1', NOM_CHAM='SIEF_ELNO', NUME_ORDRE=1,
   NOEUD = 'N100',NOM_CMP = 'VY', VALE = -161.1),

   _F( REFERENCE='SOURCE_EXTERNE', RESULTAT = RESU3,MAILLE = 'E1', NOM_CHAM='SIEF_ELNO', NUME_ORDRE=1,
   NOEUD = 'N100',NOM_CMP = 'VZ', VALE = -9.810),

   _F( REFERENCE='SOURCE_EXTERNE', RESULTAT = RESU3,MAILLE = 'E1', NOM_CHAM='SIEF_ELNO', NUME_ORDRE=1,
   NOEUD = 'N100',NOM_CMP = 'MT', VALE = -53.02),

   _F( REFERENCE='SOURCE_EXTERNE', RESULTAT = RESU3,MAILLE = 'E1', NOM_CHAM='SIEF_ELNO', NUME_ORDRE=1,
   NOEUD = 'N100',NOM_CMP = 'MFY',VALE = -89.53),

   _F( REFERENCE='SOURCE_EXTERNE', RESULTAT = RESU3,MAILLE = 'E1', NOM_CHAM='SIEF_ELNO', NUME_ORDRE=1,
   NOEUD = 'N100',NOM_CMP = 'MFZ',VALE = -158.63),

   _F( REFERENCE='SOURCE_EXTERNE', RESULTAT = RESU3,MAILLE = 'E14', NOM_CHAM='SIEF_ELNO', NUME_ORDRE=1,
   NOEUD = 'N1500',NOM_CMP = 'N',VALE = 9.810),

   _F( REFERENCE='SOURCE_EXTERNE', RESULTAT = RESU3,MAILLE = 'E14', NOM_CHAM='SIEF_ELNO', NUME_ORDRE=1,
   NOEUD = 'N1500',NOM_CMP = 'VY',VALE = -161.1),

   _F( REFERENCE='SOURCE_EXTERNE', RESULTAT = RESU3,MAILLE = 'E14', NOM_CHAM='SIEF_ELNO', NUME_ORDRE=1,
   NOEUD = 'N1500',NOM_CMP = 'VZ',VALE = 1168.),

   _F( REFERENCE='SOURCE_EXTERNE', RESULTAT = RESU3,MAILLE = 'E14', NOM_CHAM='SIEF_ELNO', NUME_ORDRE=1,
   NOEUD = 'N1500',NOM_CMP = 'MT',VALE = 11.90,PRECISION = 5.E-3),

   _F( REFERENCE='SOURCE_EXTERNE', RESULTAT = RESU3,MAILLE = 'E14', NOM_CHAM='SIEF_ELNO', NUME_ORDRE=1,
   NOEUD = 'N1500',NOM_CMP = 'MFY',VALE = 1261.),

   _F( REFERENCE='SOURCE_EXTERNE', RESULTAT = RESU3,MAILLE = 'E14', NOM_CHAM='SIEF_ELNO', NUME_ORDRE=1,
   NOEUD = 'N1500',NOM_CMP = 'MFZ',VALE = 289.7,),),
           );

# ----------------------------------------------------------------------
FIN()
#
