# MODIF  DATE 26/11/2002   AUTEUR MCOURTOI M.COURTOIS 
# TITRE PROBLEME DE HOVGAARD : CALCUL DES EFFORTS POU_C_T + POU_D_T
#            CONFIGURATION MANAGEMENT OF EDF VERSION
# ======================================================================
# COPYRIGHT (C) 1991 - 2001  EDF R&D                  WWW.CODE-ASTER.ORG
# THIS PROGRAM IS FREE SOFTWARE; YOU CAN REDISTRIBUTE IT AND/OR MODIFY
# IT UNDER THE TERMS OF THE GNU GENERAL PUBLIC LICENSE AS PUBLISHED BY
# THE FREE SOFTWARE FOUNDATION; EITHER VERSION 2 OF THE LICENSE, OR   
# (AT YOUR OPTION) ANY LATER VERSION.                                 
#
# THIS PROGRAM IS DISTRIBUTED IN THE HOPE THAT IT WILL BE USEFUL, BUT 
# WITHOUT ANY WARRANTY; WITHOUT EVEN THE IMPLIED WARRANTY OF          
# MERCHANTABILITY OR FITNESS FOR A PARTICULAR PURPOSE. SEE THE GNU    
# GENERAL PUBLIC LICENSE FOR MORE DETAILS.                            
#
# YOU SHOULD HAVE RECEIVED A COPY OF THE GNU GENERAL PUBLIC LICENSE   
# ALONG WITH THIS PROGRAM; IF NOT, WRITE TO EDF R&D CODE_ASTER,       
#    1 AVENUE DU GENERAL DE GAULLE, 92141 CLAMART CEDEX, FRANCE.      
# ======================================================================
# RESPONSABLE JMBHH01 J.M.PROIX
#                               +----------------------+
#                               ! INTERFACE POUX-ASTER !
#                               +----------------------+
#
#       CONVERSION EFFECTUEE LE  ME-08-JANV-92 14:52:58
#       +     RAJOUT DES TEST_RESU
# ----------------------------------------------------------------------
# * MEMBRE CODES C / A --- EFPOU  ---             *** OCTOBRE 87 ***
# * - PROBLEME DE HOVGAARD : CALCUL DE CONTRAINTES STATIQUES ET THERMIQU
# * - COMPARAISON AVEC TITUS-T  &  ADL
# *
# ----------------------------------------------------------------------

DEBUT(CODE=_F( NOM = 'SSLL101B',NIV_PUB_WEB='INTERNET') )

#

MAILLAGE=LIRE_MAILLAGE(VERI_MAIL=_F(VERIF='NON'), )

MODELE=AFFE_MODELE(  MAILLAGE=MAILLAGE,AFFE=(
                      _F(  GROUP_MA = 'POU_D_T',PHENOMENE = 'MECANIQUE',
                             MODELISATION = 'POU_D_T'),
                           _F(  GROUP_MA = 'POU_C_T',PHENOMENE = 'MECANIQUE',
                             MODELISATION = 'POU_C_T'))
                  )

#
# ----------------------------------------------------------------------
#  DEFINITION DES MATERIAUX



MAT_1=DEFI_MATERIAU(  ELAS=_F( 
                         E = 1.658000000E+11,NU = 3.000000000E-01,
                         RHO = 1.340410000E+04,ALPHA = 1.288000000E-05) )

#

CHAMPMAT=AFFE_MATERIAU(   MAILLAGE=MAILLAGE,
                     AFFE=_F(  GROUP_MA = 'MAT_1',    MATER = MAT_1) )

#
# ----------------------------------------------------------------------
#       CONDITIONS LIMITES

CON_LIM=AFFE_CHAR_MECA( MODELE=MODELE,
                        DDL_IMPO=_F(  GROUP_NO = 'ENCASTRE',
                              DX = 0., DY = 0., DZ = 0.,
                              DRX = 0., DRY = 0., DRZ = 0.)
                  )

#

# ---------- AFFECTATION DES CARACTERISTIQUES ELEMENTAIRES ----------

CARA_ELE=AFFE_CARA_ELEM( MODELE=MODELE,POUTRE=(

          
          _F(  GROUP_MA = 'SEC_1',   
             SECTION = 'GENERALE', 
              CARA = ('A', 'IZ', 'IY', 'AY', 'AZ', 'JX',
                      'EZ', 'EY', 'RY', 'RZ', 'RT', ),
              VALE = ( 3.439000000E-03, 1.377000000E-05, 1.377000000E-05,
                      2.000000000E+00, 2.000000000E+00, 2.754000000E-05,
                      0.000000000E+00, 0.000000000E+00, 1.000000000E+00,
                      1.000000000E+00, 1.000000000E+00, )),
          _F(  GROUP_MA = 'SEC_2',   SECTION = 'GENERALE', 
             CARA = ('A', 'IZ', 'IY', 'AY', 'AZ', 'JX',
                      'EZ', 'EY', 'RY', 'RZ', 'RT', ),
               VALE = ( 3.439000000E-03, 5.887000000E-06, 5.887000000E-06,
                      2.000000000E+00, 2.000000000E+00, 2.754000000E-05,
                      0.000000000E+00, 0.000000000E+00, 1.000000000E+00,
                      1.000000000E+00, 1.000000000E+00, ))),DEFI_ARC=(
#
#          DEFI_ARC:(MAILLE:(E9, E10)
#                     POIN_TANG :(0.,     0.,     0.))
#          DEFI_ARC:(MAILLE:(E9, E10)
#                    NOEUD_POIN_TANG : N2000)
          _F( MAILLE = ('E9', 'E10',),
                    GROUP_NO_POIN_TG = 'TANG'),

#          DEFI_ARC:(MAILLE:(E3, E4 )
#                     CENTRE :(0., -1.828, -0.922))
          _F(  MAILLE = 'E3',
                     NOEUD_CENTRE = 'N2001'),
          _F(  MAILLE = 'E4',
                     GROUP_NO_CENTRE = 'CENT'))
                  )

#
# MATRICE DE RIGIDITE ELEMENTAIRE

RIGI_ELE=CALC_MATR_ELEM( MODELE=MODELE,  OPTION='RIGI_MECA',
                CHAM_MATER=CHAMPMAT,
                CARA_ELEM=CARA_ELE,
                   CHARGE=( CON_LIM,  ) )

#
# NUMEROTATION DES DDL

NUME_DDL=NUME_DDL(  MATR_RIGI=RIGI_ELE)

#
# MATRICE DE RIGIDITE GLOBALE

RIGIDITE=ASSE_MATRICE(  MATR_ELEM=RIGI_ELE,  NUME_DDL=NUME_DDL )

# ----------------------------------------------------------------------
# CALCUL STATIQUE
#  0) FACTORISATION DE LA MATRICE  RIGIDITE

RIGI_FAC=FACT_LDLT( MATR_ASSE=RIGIDITE )

CH1=AFFE_CHAR_MECA( MODELE=MODELE,
                 PESANTEUR=(-9.81, 0., 0., 1.,) )

TEMPER=CREA_CHAMP( OPERATION='AFFE', TYPE_CHAM='NOEU_TEMP_R',
MAILLAGE=MAILLAGE,AFFE=(
       _F( NOEUD = 'N100',    NOM_CMP = 'TEMP',VALE = 4.722200000E+02),
       _F( NOEUD = 'N200',    NOM_CMP = 'TEMP',VALE = 4.722200000E+02),
       _F( NOEUD = 'N200',    NOM_CMP = 'TEMP',VALE = 4.722200000E+02),
       _F( NOEUD = 'N300',    NOM_CMP = 'TEMP',VALE = 4.722200000E+02),
       _F( NOEUD = 'N500',    NOM_CMP = 'TEMP',VALE = 4.722200000E+02),
       _F( NOEUD = 'N600',    NOM_CMP = 'TEMP',VALE = 4.722200000E+02),
       _F( NOEUD = 'N600',    NOM_CMP = 'TEMP',VALE = 4.722200000E+02),
       _F( NOEUD = 'N700',    NOM_CMP = 'TEMP',VALE = 4.722200000E+02),
       _F( NOEUD = 'N700',    NOM_CMP = 'TEMP',VALE = 4.722200000E+02),
       _F( NOEUD = 'N800',    NOM_CMP = 'TEMP',VALE = 4.722200000E+02),
       _F( NOEUD = 'N800',    NOM_CMP = 'TEMP',VALE = 4.722200000E+02),
       _F( NOEUD = 'N900',    NOM_CMP = 'TEMP',VALE = 4.722200000E+02),
       _F( NOEUD = 'N1100',   NOM_CMP = 'TEMP',VALE = 4.722200000E+02),
       _F( NOEUD = 'N1200',   NOM_CMP = 'TEMP',VALE = 4.722200000E+02),
       _F( NOEUD = 'N1200',   NOM_CMP = 'TEMP',VALE = 4.722200000E+02),
       _F( NOEUD = 'N1300',   NOM_CMP = 'TEMP',VALE = 4.722200000E+02),
       _F( NOEUD = 'N1300',   NOM_CMP = 'TEMP',VALE = 4.722200000E+02),
       _F( NOEUD = 'N1400',   NOM_CMP = 'TEMP',VALE = 4.722200000E+02),
       _F( NOEUD = 'N1400',   NOM_CMP = 'TEMP',VALE = 4.722200000E+02),
       _F( NOEUD = 'N1500',   NOM_CMP = 'TEMP',VALE = 4.722200000E+02),
# ... 7 like lines cut
       _F( NOEUD = 'N1100',   NOM_CMP = 'TEMP',VALE = 4.722200000E+02))
         )

CH2=AFFE_CHAR_MECA( MODELE=MODELE,
                 TEMP_CALCULEE=TEMPER )

#

# DEFINITION DES CAS DE CHARGES

# FORCES PONCTUELLES APPLIQUEES AUX NOEUDS DANS LA DIRECTION -Z

CH3=AFFE_CHAR_MECA( MODELE=MODELE,FORCE_NODALE=(
             _F( NOEUD = 'N200',    FZ = -6.248970000E+02),
             _F( NOEUD = 'N300',    FZ = -7.887240000E+02),
             _F( NOEUD = 'N400',    FZ = -3.276540000E+02),
             _F( NOEUD = 'N500',    FZ = -2.148390000E+02),
             _F( NOEUD = 'N600',    FZ = -1.025140000E+02),
             _F( NOEUD = 'N700',    FZ = -1.025140000E+02),
             _F( NOEUD = 'N800',    FZ = -1.025140000E+02),
             _F( NOEUD = 'N900',    FZ = -2.148390000E+02),
             _F( NOEUD = 'N1000',   FZ = -3.276540000E+02),
             _F( NOEUD = 'N1100',   FZ = -2.226870000E+02),
             _F( NOEUD = 'N1200',   FZ = -1.177200000E+02),
             _F( NOEUD = 'N1300',   FZ = -1.177200000E+02),
             _F( NOEUD = 'N1400',   FZ = -1.765800000E+02))
               )

#
# -------------------- CAS DE CHARGE N  1  --------------------
# VECTEUR ELEMENTAIRE

VE_1=CALC_VECT_ELEM(  OPTION='CHAR_MECA',
                CHAM_MATER=CHAMPMAT,
                 CARA_ELEM=CARA_ELE,
               CHARGE=(CON_LIM,
                       CH1,     ) )

# VECTEUR GLOBAL

POIDS_PR=ASSE_VECTEUR(VECT_ELEM=VE_1,     NUME_DDL=NUME_DDL)

# RESOLUTION

POIDS_PR=RESO_LDLT(reuse=POIDS_PR,MATR_FACT=RIGI_FAC,CHAM_NO=POIDS_PR )

TEST_RESU(CHAM_NO=(
         _F( CHAM_GD = POIDS_PR, NOEUD = 'N300', NOM_CMP = 'DX', VALE = -0.1658E-3),
         _F( CHAM_GD = POIDS_PR, NOEUD = 'N300', NOM_CMP = 'DY', VALE = -0.2040E-4,
                                               PRECISION = 8.E-3),
         _F( CHAM_GD = POIDS_PR, NOEUD = 'N300', NOM_CMP = 'DZ', VALE = -0.8010E-5),
         _F( CHAM_GD = POIDS_PR, NOEUD = 'N500', NOM_CMP = 'DX', VALE = -0.2397E-3),
         _F( CHAM_GD = POIDS_PR, NOEUD = 'N500', NOM_CMP = 'DY', VALE = 0.1777E-3),
         _F( CHAM_GD = POIDS_PR, NOEUD = 'N500', NOM_CMP = 'DZ', VALE = -0.2681E-3),
         _F( CHAM_GD = POIDS_PR, NOEUD = 'N700', NOM_CMP = 'DX', VALE = -0.1855E-3),
         _F( CHAM_GD = POIDS_PR, NOEUD = 'N700', NOM_CMP = 'DY', VALE = 0.1775E-3),
         _F( CHAM_GD = POIDS_PR, NOEUD = 'N700', NOM_CMP = 'DZ', VALE = -0.3940E-3),
         _F( CHAM_GD = POIDS_PR, NOEUD = 'N900', NOM_CMP = 'DX', VALE = -0.1278E-3),
         _F( CHAM_GD = POIDS_PR, NOEUD = 'N900', NOM_CMP = 'DY', VALE = 0.1774E-3),
         _F( CHAM_GD = POIDS_PR, NOEUD = 'N900', NOM_CMP = 'DZ', VALE = -0.4977E-3),
         _F( CHAM_GD = POIDS_PR, NOEUD = 'N1100', NOM_CMP = 'DX', VALE = 0.0,
                                                  CRITERE = 'ABSOLU'),
         _F( CHAM_GD = POIDS_PR, NOEUD = 'N1100', NOM_CMP = 'DY', VALE = 0.5682E-4),
         _F( CHAM_GD = POIDS_PR, NOEUD = 'N1100', NOM_CMP = 'DZ', VALE = -0.2207E-3))
          )

#
# EFFORT EN REPERE LOCAL

EFFORT_P=CALC_CHAM_ELEM(MODELE=MODELE,  OPTION='EFGE_ELNO_DEPL',
                CHAM_MATER=CHAMPMAT, CARA_ELEM=CARA_ELE,
               EXCIT=_F(  CHARGE = CH1),      DEPL=POIDS_PR )

TEST_RESU(CHAM_ELEM=(
   _F( CHAM_GD = EFFORT_P,MAILLE = 'E1',NOEUD = 'N100',NOM_CMP = 'N',VALE = -2276.,
                                                       PRECISION = 5.E-3),
   _F( CHAM_GD = EFFORT_P,MAILLE = 'E1',NOEUD = 'N100',NOM_CMP = 'VY',VALE = -161.1),
   _F( CHAM_GD = EFFORT_P,MAILLE = 'E1',NOEUD = 'N100',NOM_CMP = 'VZ',VALE = -10.095,
                                                       PRECISION = 5.E-3),
   _F( CHAM_GD = EFFORT_P,MAILLE = 'E1',NOEUD = 'N100',NOM_CMP = 'MT', VALE = -53.40),
   _F( CHAM_GD = EFFORT_P,MAILLE = 'E1',NOEUD = 'N100',NOM_CMP = 'MFY',VALE = -89.66),
   _F( CHAM_GD = EFFORT_P,MAILLE = 'E1',NOEUD = 'N100',NOM_CMP = 'MFZ',VALE = -158.5),
   _F( CHAM_GD = EFFORT_P,MAILLE = 'E14',NOEUD = 'N1500',NOM_CMP = 'N',VALE = 10.095,
                                                       PRECISION = 5.E-3),
   _F( CHAM_GD = EFFORT_P,MAILLE = 'E14',NOEUD = 'N1500',NOM_CMP = 'VY',VALE = -161.1),
   _F( CHAM_GD = EFFORT_P,MAILLE = 'E14',NOEUD = 'N1500',NOM_CMP = 'VZ',VALE = 1165.,
                                                       PRECISION = 5.E-3),
   _F( CHAM_GD = EFFORT_P,MAILLE = 'E14',NOEUD = 'N1500',NOM_CMP = 'MT',VALE = 15.60,
                                                       PRECISION = 5.E-3),
   _F( CHAM_GD = EFFORT_P,MAILLE = 'E14',NOEUD = 'N1500',NOM_CMP = 'MFY',VALE = 1260.5,
                                                       PRECISION = 5.E-3),
   _F( CHAM_GD = EFFORT_P,MAILLE = 'E14',NOEUD = 'N1500',NOM_CMP = 'MFZ',VALE = 290.1))
           )

#
# -------------------- CAS DE CHARGE N  2  --------------------
# VECTEUR ELEMENTAIRE

VE_2=CALC_VECT_ELEM(  OPTION='CHAR_MECA',
                CHAM_MATER=CHAMPMAT,
                 CARA_ELEM=CARA_ELE,
               CHARGE=(CON_LIM,
                       CH2,     ) )

# VECTEUR GLOBAL

DILAT_TH=ASSE_VECTEUR(VECT_ELEM=VE_2,     NUME_DDL=NUME_DDL)

# RESOLUTION

DILAT_TH=RESO_LDLT(reuse=DILAT_TH,MATR_FACT=RIGI_FAC,CHAM_NO=DILAT_TH )

TEST_RESU(CHAM_NO=(
         _F( CHAM_GD = DILAT_TH, NOEUD = 'N300', NOM_CMP = 'DX', VALE = -6.1418E-3),
         _F( CHAM_GD = DILAT_TH, NOEUD = 'N300', NOM_CMP = 'DY', VALE = -13.090E-3),
         _F( CHAM_GD = DILAT_TH, NOEUD = 'N300', NOM_CMP = 'DZ', VALE = 16.799E-3),
         _F( CHAM_GD = DILAT_TH, NOEUD = 'N500', NOM_CMP = 'DX', VALE = -10.302E-3),
         _F( CHAM_GD = DILAT_TH, NOEUD = 'N500', NOM_CMP = 'DY', VALE = -8.132E-3),
         _F( CHAM_GD = DILAT_TH, NOEUD = 'N500', NOM_CMP = 'DZ', VALE = 19.723E-3),
         _F( CHAM_GD = DILAT_TH, NOEUD = 'N700', NOM_CMP = 'DX', VALE = -11.370E-3),
         _F( CHAM_GD = DILAT_TH, NOEUD = 'N700', NOM_CMP = 'DY', VALE = -5.383E-3),
         _F( CHAM_GD = DILAT_TH, NOEUD = 'N700', NOM_CMP = 'DZ', VALE = 16.135E-3),
         _F( CHAM_GD = DILAT_TH, NOEUD = 'N900', NOM_CMP = 'DX', VALE = -12.238E-3),
         _F( CHAM_GD = DILAT_TH, NOEUD = 'N900', NOM_CMP = 'DY', VALE = -2.633E-3),
         _F( CHAM_GD = DILAT_TH, NOEUD = 'N900', NOM_CMP = 'DZ', VALE = 12.262E-3),
         _F( CHAM_GD = DILAT_TH, NOEUD = 'N1100', NOM_CMP = 'DX', VALE = -6.308E-3),
         _F( CHAM_GD = DILAT_TH, NOEUD = 'N1100', NOM_CMP = 'DY', VALE = 1.542E-3),
         _F( CHAM_GD = DILAT_TH, NOEUD = 'N1100', NOM_CMP = 'DZ', VALE = 1.931E-3))
        )

#
# EFFORT EN REPERE LOCAL

EFFORT_T=CALC_CHAM_ELEM(MODELE=MODELE,  OPTION='EFGE_ELNO_DEPL',
                CHAM_MATER=CHAMPMAT, CARA_ELEM=CARA_ELE,
               EXCIT=_F(  CHARGE = CH2),    DEPL=DILAT_TH )

TEST_RESU(CHAM_ELEM=(
   _F( CHAM_GD = EFFORT_T,MAILLE = 'E1',NOEUD = 'N100',NOM_CMP = 'N',VALE = -7431.),
   _F( CHAM_GD = EFFORT_T,MAILLE = 'E1',NOEUD = 'N100',NOM_CMP = 'VY',VALE = -7613.),
   _F( CHAM_GD = EFFORT_T,MAILLE = 'E1',NOEUD = 'N100',NOM_CMP = 'VZ',VALE = 2791.),
   _F( CHAM_GD = EFFORT_T,MAILLE = 'E1',NOEUD = 'N100',NOM_CMP = 'MT',VALE = 1615.),
   _F( CHAM_GD = EFFORT_T,MAILLE = 'E1',NOEUD = 'N100',NOM_CMP = 'MFY',VALE = -6193.),
   _F( CHAM_GD = EFFORT_T,MAILLE = 'E1',NOEUD = 'N100',NOM_CMP = 'MFZ',VALE = -14712.),
   _F( CHAM_GD = EFFORT_T,MAILLE = 'E14',NOEUD = 'N1500',NOM_CMP = 'N',VALE = -2791.),
   _F( CHAM_GD = EFFORT_T,MAILLE = 'E14',NOEUD = 'N1500',NOM_CMP = 'VY',VALE = -7613.),
   _F( CHAM_GD = EFFORT_T,MAILLE = 'E14',NOEUD = 'N1500',NOM_CMP = 'VZ',VALE = -7433.),
   _F( CHAM_GD = EFFORT_T,MAILLE = 'E14',NOEUD = 'N1500',NOM_CMP = 'MT',VALE = 7052.),
   _F( CHAM_GD = EFFORT_T,MAILLE = 'E14',NOEUD = 'N1500',NOM_CMP = 'MFY',VALE = -10460.),
   _F( CHAM_GD = EFFORT_T,MAILLE = 'E14',NOEUD = 'N1500',NOM_CMP = 'MFZ',VALE = 8862.))
           )

#
# -------------------- CAS DE CHARGE N  3  --------------------
# VECTEUR ELEMENTAIRE

VE_3=CALC_VECT_ELEM(  OPTION='CHAR_MECA',
                CHAM_MATER=CHAMPMAT,
                 CARA_ELEM=CARA_ELE,
               CHARGE=(CON_LIM,
                       CH3,     ) )

# VECTEUR GLOBAL

FORCE_PO=ASSE_VECTEUR(VECT_ELEM=VE_3,     NUME_DDL=NUME_DDL)

# RESOLUTION

FORCE_PO=RESO_LDLT(reuse=FORCE_PO,MATR_FACT=RIGI_FAC,CHAM_NO=FORCE_PO )

TEST_RESU(CHAM_NO=(
        _F( CHAM_GD = FORCE_PO, NOEUD = 'N300', NOM_CMP = 'DX', VALE = -0.1651E-3),
        _F( CHAM_GD = FORCE_PO, NOEUD = 'N300', NOM_CMP = 'DY', VALE = -0.2080E-4),
        _F( CHAM_GD = FORCE_PO, NOEUD = 'N300', NOM_CMP = 'DZ', VALE = -0.9516E-5),
        _F( CHAM_GD = FORCE_PO, NOEUD = 'N500', NOM_CMP = 'DX', VALE = -0.2386E-3),
        _F( CHAM_GD = FORCE_PO, NOEUD = 'N500', NOM_CMP = 'DY', VALE = 0.1773E-3),
        _F( CHAM_GD = FORCE_PO, NOEUD = 'N500', NOM_CMP = 'DZ', VALE = -0.2697E-3),
        _F( CHAM_GD = FORCE_PO, NOEUD = 'N700', NOM_CMP = 'DX', VALE = -0.1848E-3),
        _F( CHAM_GD = FORCE_PO, NOEUD = 'N700', NOM_CMP = 'DY', VALE = 0.1771E-3),
        _F( CHAM_GD = FORCE_PO, NOEUD = 'N700', NOM_CMP = 'DZ', VALE = -0.3948E-3),
        _F( CHAM_GD = FORCE_PO, NOEUD = 'N900', NOM_CMP = 'DX', VALE = -0.1274E-3),
        _F( CHAM_GD = FORCE_PO, NOEUD = 'N900', NOM_CMP = 'DY', VALE = 0.1770E-3),
        _F( CHAM_GD = FORCE_PO, NOEUD = 'N900', NOM_CMP = 'DZ', VALE = -0.4964E-3),
        _F( CHAM_GD = FORCE_PO, NOEUD = 'N1100', NOM_CMP = 'DX', VALE = 0.0,
                                                  CRITERE = 'ABSOLU'),
        _F( CHAM_GD = FORCE_PO, NOEUD = 'N1100', NOM_CMP = 'DY', VALE = 0.5674E-4),
        _F( CHAM_GD = FORCE_PO, NOEUD = 'N1100', NOM_CMP = 'DZ', VALE = -0.2186E-3))
            )

#
# EFFORT EN REPERE LOCAL

EFFOR_PO=CALC_CHAM_ELEM(MODELE=MODELE,  OPTION='EFGE_ELNO_DEPL',
                CHAM_MATER=CHAMPMAT, CARA_ELEM=CARA_ELE,
               EXCIT=_F( CHARGE = CH3),       DEPL=FORCE_PO )

TEST_RESU(CHAM_ELEM=(
   _F( CHAM_GD = EFFOR_PO,MAILLE = 'E1',NOEUD = 'N100',NOM_CMP = 'N',  VALE = -2273.),
   _F( CHAM_GD = EFFOR_PO,MAILLE = 'E1',NOEUD = 'N100',NOM_CMP = 'VY', VALE = -161.1),
   _F( CHAM_GD = EFFOR_PO,MAILLE = 'E1',NOEUD = 'N100',NOM_CMP = 'VZ', VALE = -9.810),
   _F( CHAM_GD = EFFOR_PO,MAILLE = 'E1',NOEUD = 'N100',NOM_CMP = 'MT', VALE = -53.02),
   _F( CHAM_GD = EFFOR_PO,MAILLE = 'E1',NOEUD = 'N100',NOM_CMP = 'MFY',VALE = -89.53),
   _F( CHAM_GD = EFFOR_PO,MAILLE = 'E1',NOEUD = 'N100',NOM_CMP = 'MFZ',VALE = -158.63),
   _F( CHAM_GD = EFFOR_PO,MAILLE = 'E14',NOEUD = 'N1500',NOM_CMP = 'N',VALE = 9.810),
   _F( CHAM_GD = EFFOR_PO,MAILLE = 'E14',NOEUD = 'N1500',NOM_CMP = 'VY',VALE = -161.1),
   _F( CHAM_GD = EFFOR_PO,MAILLE = 'E14',NOEUD = 'N1500',NOM_CMP = 'VZ',VALE = 1168.),
   _F( CHAM_GD = EFFOR_PO,MAILLE = 'E14',NOEUD = 'N1500',NOM_CMP = 'MT',VALE = 11.90,
                                                       PRECISION = 5.E-3),
   _F( CHAM_GD = EFFOR_PO,MAILLE = 'E14',NOEUD = 'N1500',NOM_CMP = 'MFY',VALE = 1261.),
   _F( CHAM_GD = EFFOR_PO,MAILLE = 'E14',NOEUD = 'N1500',NOM_CMP = 'MFZ',VALE = 289.7))
           )

SIGMA_PO=CALC_CHAM_ELEM(MODELE=MODELE,  OPTION='SIGM_ELNO_DEPL',
                CHAM_MATER=CHAMPMAT, CARA_ELEM=CARA_ELE,
               EXCIT=_F( CHARGE = CH3),    DEPL=FORCE_PO )

#

SIGPO_PO=CALC_CHAM_ELEM(MODELE=MODELE,  OPTION='SIPO_ELNO_DEPL',
                CHAM_MATER=CHAMPMAT, CARA_ELEM=CARA_ELE,
               EXCIT=_F( CHARGE = CH3),        DEPL=FORCE_PO )

# ----------------------------------------------------------------------
FIN()
#
