# TITRE VALIDATION DE MACR_CARA_POUTRE
# ======================================================================
# COPYRIGHT (C) 1991 - 2015  EDF R&D                  WWW.CODE-ASTER.ORG
# THIS PROGRAM IS FREE SOFTWARE; YOU CAN REDISTRIBUTE IT AND/OR MODIFY
# IT UNDER THE TERMS OF THE GNU GENERAL PUBLIC LICENSE AS PUBLISHED BY
# THE FREE SOFTWARE FOUNDATION; EITHER VERSION 2 OF THE LICENSE, OR
# (AT YOUR OPTION) ANY LATER VERSION.
#
# THIS PROGRAM IS DISTRIBUTED IN THE HOPE THAT IT WILL BE USEFUL, BUT
# WITHOUT ANY WARRANTY; WITHOUT EVEN THE IMPLIED WARRANTY OF
# MERCHANTABILITY OR FITNESS FOR A PARTICULAR PURPOSE. SEE THE GNU
# GENERAL PUBLIC LICENSE FOR MORE DETAILS.
#
# YOU SHOULD HAVE RECEIVED A COPY OF THE GNU GENERAL PUBLIC LICENSE
# ALONG WITH THIS PROGRAM; IF NOT, WRITE TO EDF R&D CODE_ASTER,
#    1 AVENUE DU GENERAL DE GAULLE, 92141 CLAMART CEDEX, FRANCE.
# ======================================================================


DEBUT(CODE=_F(NIV_PUB_WEB='INTERNET'), DEBUG=_F(SDVERI='OUI'), IMPR_MACRO='NON')

MATER=DEFI_MATERIAU(ELAS=_F(E = 1234567.890,  NU = 0.3))

# =======================================================================
TCARS=MACR_CARA_POUTRE(GROUP_MA_BORD='LR1',FORMAT='MED',GROUP_NO='GN_N64',)
IMPR_TABLE(TABLE=TCARS)

TEST_TABLE(REFERENCE = 'ANALYTIQUE',
           PRECISION=5.0000000000000001E-3,
           VALE_CALC=1.0E-03,
           VALE_REFE=1.E-3,
           NOM_PARA='A',
           TABLE=TCARS,
           FILTRE=_F(NOM_PARA='ENTITE',
                     VALE_K='TOUT',),
           )

TEST_TABLE(CRITERE='ABSOLU',
           VALE_CALC=1.8528845721188E-19,
           VALE_REFE=0.0,
           REFERENCE = 'ANALYTIQUE',
           PRECISION=1.E-3,
           NOM_PARA='CDG_Y',
           TABLE=TCARS,
           FILTRE=_F(NOM_PARA='ENTITE',
                     VALE_K='TOUT',),
           )

TEST_TABLE(CRITERE='ABSOLU',
           VALE_CALC=1.5881867761018E-19,
           VALE_REFE=0.0,
           REFERENCE = 'ANALYTIQUE',
           PRECISION=1.E-3,
           NOM_PARA='CDG_Z',
           TABLE=TCARS,
           FILTRE=_F(NOM_PARA='ENTITE',
                     VALE_K='TOUT',),
           )

TEST_TABLE(REFERENCE = 'ANALYTIQUE',
           PRECISION=8.9999999999999993E-3,
           VALE_CALC=2.0833333333333E-07,
           VALE_REFE=2.0833333E-07,
           NOM_PARA='IY_G',
           TABLE=TCARS,
           FILTRE=_F(NOM_PARA='ENTITE',
                     VALE_K='TOUT',),
           )

TEST_TABLE(REFERENCE = 'ANALYTIQUE',
           PRECISION=8.9999999999999993E-3,
           VALE_CALC=3.3333333333333E-08,
           VALE_REFE=3.3333329999999997E-08,
           NOM_PARA='IZ_G',
           TABLE=TCARS,
           FILTRE=_F(NOM_PARA='ENTITE',
                     VALE_K='TOUT',),
           )

TEST_TABLE(CRITERE='ABSOLU',
           VALE_CALC=-8.3752037020994E-24,
           VALE_REFE=0.0,
           REFERENCE = 'ANALYTIQUE',
           PRECISION=1.E-3,
           NOM_PARA='IYZ_G',
           TABLE=TCARS,
           FILTRE=_F(NOM_PARA='ENTITE',
                     VALE_K='TOUT',),
           )

TEST_TABLE(REFERENCE = 'ANALYTIQUE',
           PRECISION=8.9999999999999993E-3,
           VALE_CALC=3.3333333333333E-08,
           VALE_REFE=3.3333329999999997E-08,
           NOM_PARA='IY',
           TABLE=TCARS,
           FILTRE=_F(NOM_PARA='ENTITE',
                     VALE_K='TOUT',),
           )

TEST_TABLE(REFERENCE = 'ANALYTIQUE',
           PRECISION=8.9999999999999993E-3,
           VALE_CALC=2.0833333333333E-07,
           VALE_REFE=2.0833333E-07,
           NOM_PARA='IZ',
           TABLE=TCARS,
           FILTRE=_F(NOM_PARA='ENTITE',
                     VALE_K='TOUT',),
           )

TEST_TABLE(VALE_CALC=90.0,
           VALE_REFE=90.0,
           REFERENCE = 'ANALYTIQUE',
           PRECISION=1.E-3,
           NOM_PARA='ALPHA',
           TABLE=TCARS,
           FILTRE=_F(NOM_PARA='ENTITE',
                     VALE_K='TOUT',),
           )

TEST_TABLE(VALE_CALC=-0.025000000000000,
           VALE_REFE=-0.025000000000000001,
           REFERENCE = 'ANALYTIQUE',
           PRECISION=1.E-3,
           NOM_PARA='Y_MIN',
           TABLE=TCARS,
           FILTRE=_F(NOM_PARA='ENTITE',
                     VALE_K='TOUT',),
           )

TEST_TABLE(VALE_CALC=0.025000000000000,
           VALE_REFE=0.025000000000000001,
           REFERENCE = 'ANALYTIQUE',
           PRECISION=1.E-3,
           NOM_PARA='Y_MAX',
           TABLE=TCARS,
           FILTRE=_F(NOM_PARA='ENTITE',
                     VALE_K='TOUT',),
           )

TEST_TABLE(VALE_CALC=-0.010000000000000,
           VALE_REFE=-1.E-2,
           REFERENCE = 'ANALYTIQUE',
           PRECISION=1.E-3,
           NOM_PARA='Z_MIN',
           TABLE=TCARS,
           FILTRE=_F(NOM_PARA='ENTITE',
                     VALE_K='TOUT',),
           )

TEST_TABLE(VALE_CALC=0.010000000000000,
           VALE_REFE=1.E-2,
           REFERENCE = 'ANALYTIQUE',
           PRECISION=1.E-3,
           NOM_PARA='Z_MAX',
           TABLE=TCARS,
           FILTRE=_F(NOM_PARA='ENTITE',
                     VALE_K='TOUT',),
           )

TEST_TABLE(REFERENCE = 'ANALYTIQUE',
           PRECISION=8.9999999999999993E-3,
           VALE_CALC=9.968135143182E-08,
           VALE_REFE=9.9804999999999999E-08,
           NOM_PARA='JX',
           TABLE=TCARS,
           FILTRE=_F(NOM_PARA='ENTITE',
                     VALE_K='TOUT',),
           )

TEST_TABLE(VALE_CALC=1.199951171875,
           VALE_REFE=1.2,
           REFERENCE = 'ANALYTIQUE',
           PRECISION=1.E-3,
           NOM_PARA='AY',
           TABLE=TCARS,
           FILTRE=_F(NOM_PARA='ENTITE',
                     VALE_K='TOUT',),
           )

TEST_TABLE(VALE_CALC=1.19921875,
           VALE_REFE=1.2,
           REFERENCE = 'ANALYTIQUE',
           PRECISION=1.E-3,
           NOM_PARA='AZ',
           TABLE=TCARS,
           FILTRE=_F(NOM_PARA='ENTITE',
                     VALE_K='TOUT',),
           )

TEST_TABLE(CRITERE='ABSOLU',
           VALE_CALC=-3.8774091213423E-19,
           VALE_REFE=0.0,
           REFERENCE = 'ANALYTIQUE',
           PRECISION=1.E-3,
           NOM_PARA='EY',
           TABLE=TCARS,
           FILTRE=_F(NOM_PARA='ENTITE',
                     VALE_K='TOUT',),
           )

TEST_TABLE(CRITERE='ABSOLU',
           VALE_CALC=-7.8788953345676E-18,
           VALE_REFE=0.0,
           REFERENCE = 'ANALYTIQUE',
           PRECISION=1.E-3,
           NOM_PARA='EZ',
           TABLE=TCARS,
           FILTRE=_F(NOM_PARA='ENTITE',
                     VALE_K='TOUT',),
           )

TEST_TABLE(CRITERE='ABSOLU',
           VALE_CALC=7.6936068773557E-18,
           VALE_REFE=0.0,
           REFERENCE = 'ANALYTIQUE',
           PRECISION=1.E-3,
           NOM_PARA='PCTY',
           TABLE=TCARS,
           FILTRE=_F(NOM_PARA='ENTITE',
                     VALE_K='TOUT',),
           )

TEST_TABLE(CRITERE='ABSOLU',
           VALE_CALC=-5.4655958974441E-19,
           VALE_REFE=0.0,
           REFERENCE = 'ANALYTIQUE',
           PRECISION=1.E-3,
           NOM_PARA='PCTZ',
           TABLE=TCARS,
           FILTRE=_F(NOM_PARA='ENTITE',
                     VALE_K='TOUT',),
           )

TEST_TABLE(REFERENCE = 'ANALYTIQUE',
           PRECISION=0.050000000000000003,
           VALE_CALC=0.019381485608291,
           VALE_REFE=0.018563699999999999,
           NOM_PARA='RT',
           TABLE=TCARS,
           FILTRE=_F(NOM_PARA='ENTITE',
                     VALE_K='TOUT',),
           )

# =======================================================================
TCAR2=MACR_CARA_POUTRE(
   GROUP_MA_BORD=('LGR1', 'LGR2',),
   GROUP_MA=('GR1','GR2',),
   UNITE=38,FORMAT='ASTER', GROUP_NO=('GN_N64', 'GN_N64',),
   LONGUEUR=0.0002, MATERIAU=MATER, LIAISON='ENCASTREMENT',
)
IMPR_TABLE(TABLE=TCAR2)

TEST_TABLE(VALE_CALC=5.0E-04,
           VALE_REFE=5.0000000000000001E-4,
           REFERENCE = 'ANALYTIQUE',
           PRECISION=1.E-3,
           NOM_PARA='A',
           TABLE=TCAR2,
           FILTRE=_F(NOM_PARA='LIEU',
                     VALE_K='GR1',),
           )

TEST_TABLE(CRITERE='ABSOLU',
           VALE_CALC=0.0E+00,
           VALE_REFE=0.0,
           REFERENCE = 'ANALYTIQUE',
           PRECISION=1.E-3,
           NOM_PARA='CDG_Y',
           TABLE=TCAR2,
           FILTRE=_F(NOM_PARA='LIEU',
                     VALE_K='GR1',),
           )

TEST_TABLE(VALE_CALC=-0.012500000000000,
           VALE_REFE=-0.012500000000000001,
           REFERENCE = 'ANALYTIQUE',
           PRECISION=1.E-3,
           NOM_PARA='CDG_Z',
           TABLE=TCAR2,
           FILTRE=_F(NOM_PARA='LIEU',
                     VALE_K='GR1',),
           )

TEST_TABLE(VALE_CALC=2.6041666666667E-08,
           VALE_REFE=2.60417E-08,
           REFERENCE = 'ANALYTIQUE',
           PRECISION=1.E-3,
           NOM_PARA='IY_G',
           TABLE=TCAR2,
           FILTRE=_F(NOM_PARA='LIEU',
                     VALE_K='GR1',),
           )

TEST_TABLE(REFERENCE = 'ANALYTIQUE',
           PRECISION=8.9999999999999993E-3,
           VALE_CALC=1.6666666666667E-08,
           VALE_REFE=1.66667E-08,
           NOM_PARA='IZ_G',
           TABLE=TCAR2,
           FILTRE=_F(NOM_PARA='LIEU',
                     VALE_K='GR1',),
           )

TEST_TABLE(CRITERE='ABSOLU',
           VALE_CALC=1.3441684953987E-24,
           VALE_REFE=0.0,
           REFERENCE = 'ANALYTIQUE',
           PRECISION=1.E-3,
           NOM_PARA='IYZ_G',
           TABLE=TCAR2,
           FILTRE=_F(NOM_PARA='LIEU',
                     VALE_K='GR1',),
           )

TEST_TABLE(VALE_CALC=1.19921875,
           VALE_REFE=1.2,
           REFERENCE = 'ANALYTIQUE',
           PRECISION=1.E-3,
           NOM_PARA='AY',
           TABLE=TCAR2,
           FILTRE=_F(NOM_PARA='LIEU',
                     VALE_K='GR1',),
           )

TEST_TABLE(VALE_CALC=1.19921875,
           VALE_REFE=1.2,
           REFERENCE = 'ANALYTIQUE',
           PRECISION=1.E-3,
           NOM_PARA='AZ',
           TABLE=TCAR2,
           FILTRE=_F(NOM_PARA='LIEU',
                     VALE_K='GR1',),
           )

TEST_TABLE(REFERENCE = 'ANALYTIQUE',
           PRECISION=0.029999999999999999,
           VALE_CALC=0.015598469655002,
           VALE_REFE=0.015190800000000001,
           NOM_PARA='RT',
           TABLE=TCAR2,
           FILTRE=_F(NOM_PARA='LIEU',
                     VALE_K='GR1',),
           )

TEST_TABLE(VALE_CALC=5.0E-04,
           VALE_REFE=5.0000000000000001E-4,
           REFERENCE = 'ANALYTIQUE',
           PRECISION=1.E-3,
           NOM_PARA='A',
           TABLE=TCAR2,
           FILTRE=_F(NOM_PARA='LIEU',
                     VALE_K='GR2',),
           )

TEST_TABLE(CRITERE='ABSOLU',
           VALE_CALC=5.2939559203394E-20,
           VALE_REFE=0.0,
           REFERENCE = 'ANALYTIQUE',
           PRECISION=1.E-3,
           NOM_PARA='CDG_Y',
           TABLE=TCAR2,
           FILTRE=_F(NOM_PARA='LIEU',
                     VALE_K='GR2',),
           )

TEST_TABLE(VALE_CALC=0.012500000000000,
           VALE_REFE=0.012500000000000001,
           REFERENCE = 'ANALYTIQUE',
           PRECISION=1.E-3,
           NOM_PARA='CDG_Z',
           TABLE=TCAR2,
           FILTRE=_F(NOM_PARA='LIEU',
                     VALE_K='GR2',),
           )

TEST_TABLE(VALE_CALC=2.6041666666667E-08,
           VALE_REFE=2.60417E-08,
           REFERENCE = 'ANALYTIQUE',
           PRECISION=1.E-3,
           NOM_PARA='IY_G',
           TABLE=TCAR2,
           FILTRE=_F(NOM_PARA='LIEU',
                     VALE_K='GR2',),
           )

TEST_TABLE(REFERENCE = 'ANALYTIQUE',
           PRECISION=8.9999999999999993E-3,
           VALE_CALC=1.6666666666667E-08,
           VALE_REFE=1.66667E-08,
           NOM_PARA='IZ_G',
           TABLE=TCAR2,
           FILTRE=_F(NOM_PARA='LIEU',
                     VALE_K='GR2',),
           )

TEST_TABLE(CRITERE='ABSOLU',
           VALE_CALC=-3.9291079096269E-24,
           VALE_REFE=0.0,
           REFERENCE = 'ANALYTIQUE',
           PRECISION=1.E-3,
           NOM_PARA='IYZ_G',
           TABLE=TCAR2,
           FILTRE=_F(NOM_PARA='LIEU',
                     VALE_K='GR2',),
           )

TEST_TABLE(VALE_CALC=1.19921875,
           VALE_REFE=1.2,
           REFERENCE = 'ANALYTIQUE',
           PRECISION=1.E-3,
           NOM_PARA='AY',
           TABLE=TCAR2,
           FILTRE=_F(NOM_PARA='LIEU',
                     VALE_K='GR2',),
           )

TEST_TABLE(VALE_CALC=1.19921875,
           VALE_REFE=1.2,
           REFERENCE = 'ANALYTIQUE',
           PRECISION=1.E-3,
           NOM_PARA='AZ',
           TABLE=TCAR2,
           FILTRE=_F(NOM_PARA='LIEU',
                     VALE_K='GR2',),
           )

TEST_TABLE(REFERENCE = 'ANALYTIQUE',
           PRECISION=0.029999999999999999,
           VALE_CALC=0.015598469655002,
           VALE_REFE=0.015190800000000001,
           NOM_PARA='RT',
           TABLE=TCAR2,
           FILTRE=_F(NOM_PARA='LIEU',
                     VALE_K='GR2',),
           )

# POUR L'ENSEMBLE DES DEUX GROUPES ON DOIT AVOIR AY=AZ=1.2
TEST_TABLE(VALE_CALC=1.1992372115385,
           VALE_REFE=1.2,
           REFERENCE = 'ANALYTIQUE',
           PRECISION=1.E-3,
           NOM_PARA='AY',
           TABLE=TCAR2,
           FILTRE=_F(NOM_PARA='ENTITE',
                     VALE_K='TOUT',),
           )

TEST_TABLE(VALE_CALC=1.19921875,
           VALE_REFE=1.2,
           REFERENCE = 'ANALYTIQUE',
           PRECISION=1.E-3,
           NOM_PARA='AZ',
           TABLE=TCAR2,
           FILTRE=_F(NOM_PARA='ENTITE',
                     VALE_K='TOUT',),
           )

# =======================================================================
# AVEC UN SEUL GROUPE ON DOIT RETROUVER LES MEMES RESULTATS
TCAR3=MACR_CARA_POUTRE(
   GROUP_MA_BORD='LR1', GROUP_MA='RECTANG', UNITE=39,FORMAT='ASTER',
   NOEUD='N64', LONGUEUR=0.02, MATERIAU=MATER, LIAISON='ENCASTREMENT',TABLE_CARA='OUI',
)
IMPR_TABLE(TABLE=TCAR3)

TEST_TABLE(VALE_CALC=1.199951171875,
           VALE_REFE=1.2,
           REFERENCE = 'ANALYTIQUE',
           PRECISION=1.E-3,
           NOM_PARA='AY',
           TABLE=TCAR3,
           FILTRE=_F(NOM_PARA='LIEU',
                     VALE_K='RECTANG',),
           )

TEST_TABLE(VALE_CALC=1.19921875,
           VALE_REFE=1.2,
           REFERENCE = 'ANALYTIQUE',
           PRECISION=1.E-3,
           NOM_PARA='AZ',
           TABLE=TCAR3,
           FILTRE=_F(NOM_PARA='LIEU',
                     VALE_K='RECTANG',),
           )

TEST_TABLE(REFERENCE = 'ANALYTIQUE',
           PRECISION=0.050000000000000003,
           VALE_CALC=0.019381485608291,
           VALE_REFE=0.018563699999999999,
           NOM_PARA='RT',
           TABLE=TCAR3,
           FILTRE=_F(NOM_PARA='LIEU',
                     VALE_K='RECTANG',),
           )

# =======================================================================
# Meme chose que TCAR2 avec TABLE_CARA='OUI', on teste quelques valeurs
TCAR4=MACR_CARA_POUTRE(
   GROUP_MA_BORD=('LGR1', 'LGR2',),
   GROUP_MA=('GR1','GR2',),
   UNITE=38,FORMAT='ASTER', GROUP_NO=('GN_N64', 'GN_N64',),
   LONGUEUR=0.0002, MATERIAU=MATER, LIAISON='ENCASTREMENT',TABLE_CARA='OUI',
)
IMPR_TABLE(TABLE=TCAR4)

TEST_TABLE(VALE_CALC=5.0E-04,
           VALE_REFE=5.0000000000000001E-4,
           REFERENCE = 'ANALYTIQUE',
           PRECISION=1.E-3,
           NOM_PARA='A',
           TABLE=TCAR4,
           FILTRE=_F(NOM_PARA='LIEU',
                     VALE_K='GR1',),
           )

TEST_TABLE(VALE_CALC=1.19921875,
           VALE_REFE=1.2,
           REFERENCE = 'ANALYTIQUE',
           PRECISION=1.E-3,
           NOM_PARA='AY',
           TABLE=TCAR4,
           FILTRE=_F(NOM_PARA='LIEU',
                     VALE_K='GR1',),
           )

TEST_TABLE(VALE_CALC=1.19921875,
           VALE_REFE=1.2,
           REFERENCE = 'ANALYTIQUE',
           PRECISION=1.E-3,
           NOM_PARA='AZ',
           TABLE=TCAR4,
           FILTRE=_F(NOM_PARA='LIEU',
                     VALE_K='GR1',),
           )

TEST_TABLE(REFERENCE = 'ANALYTIQUE',
           PRECISION=0.029999999999999999,
           VALE_CALC=0.015598469655002,
           VALE_REFE=0.015190800000000001,
           NOM_PARA='RT',
           TABLE=TCAR4,
           FILTRE=_F(NOM_PARA='LIEU',
                     VALE_K='GR1',),
           )

TEST_TABLE(VALE_CALC=5.0E-04,
           VALE_REFE=5.0000000000000001E-4,
           REFERENCE = 'ANALYTIQUE',
           PRECISION=1.E-3,
           NOM_PARA='A',
           TABLE=TCAR4,
           FILTRE=_F(NOM_PARA='LIEU',
                     VALE_K='GR2',),
           )

TEST_TABLE(VALE_CALC=1.19921875,
           VALE_REFE=1.2,
           REFERENCE = 'ANALYTIQUE',
           PRECISION=1.E-3,
           NOM_PARA='AY',
           TABLE=TCAR4,
           FILTRE=_F(NOM_PARA='LIEU',
                     VALE_K='GR2',),
           )

TEST_TABLE(VALE_CALC=1.19921875,
           VALE_REFE=1.2,
           REFERENCE = 'ANALYTIQUE',
           PRECISION=1.E-3,
           NOM_PARA='AZ',
           TABLE=TCAR4,
           FILTRE=_F(NOM_PARA='LIEU',
                     VALE_K='GR2',),
           )

TEST_TABLE(REFERENCE = 'ANALYTIQUE',
           PRECISION=0.029999999999999999,
           VALE_CALC=0.015598469655002,
           VALE_REFE=0.015190800000000001,
           NOM_PARA='RT',
           TABLE=TCAR4,
           FILTRE=_F(NOM_PARA='LIEU',
                     VALE_K='GR2',),
           )

FIN()
