# TITRE PORTIQUE A LIAISON LATERALE  (EULER) FORCE PONCTUELLE + REPARTIE
# ======================================================================
# COPYRIGHT (C) 1991 - 2013  EDF R&D                  WWW.CODE-ASTER.ORG
# THIS PROGRAM IS FREE SOFTWARE; YOU CAN REDISTRIBUTE IT AND/OR MODIFY
# IT UNDER THE TERMS OF THE GNU GENERAL PUBLIC LICENSE AS PUBLISHED BY
# THE FREE SOFTWARE FOUNDATION; EITHER VERSION 2 OF THE LICENSE, OR
# (AT YOUR OPTION) ANY LATER VERSION.
#
# THIS PROGRAM IS DISTRIBUTED IN THE HOPE THAT IT WILL BE USEFUL, BUT
# WITHOUT ANY WARRANTY; WITHOUT EVEN THE IMPLIED WARRANTY OF
# MERCHANTABILITY OR FITNESS FOR A PARTICULAR PURPOSE. SEE THE GNU
# GENERAL PUBLIC LICENSE FOR MORE DETAILS.
#
# YOU SHOULD HAVE RECEIVED A COPY OF THE GNU GENERAL PUBLIC LICENSE
# ALONG WITH THIS PROGRAM; IF NOT, WRITE TO EDF R&D CODE_ASTER,
#    1 AVENUE DU GENERAL DE GAULLE, 92141 CLAMART CEDEX, FRANCE.
# ======================================================================
# ----------------------------------------------------------------------

DEBUT(CODE=_F(NIV_PUB_WEB='INTERNET'), DEBUG=_F(SDVERI='OUI'))

#

MA=LIRE_MAILLAGE( )

MO1=AFFE_MODELE( MAILLAGE=MA,
                     AFFE=_F( TOUT = 'OUI',PHENOMENE = 'MECANIQUE',
                                      MODELISATION = 'POU_D_T') )

MO2=AFFE_MODELE( MAILLAGE=MA,
                     AFFE=_F( TOUT = 'OUI',PHENOMENE = 'MECANIQUE',
                                      MODELISATION = 'POU_D_TG') )

ACIER=DEFI_MATERIAU(ELAS=_F( E = 2.0E+11,NU = 0.,RHO = 0.,ALPHA = 0.) )

CHMAT=AFFE_MATERIAU(MAILLAGE=MA, AFFE=_F( TOUT = 'OUI',MATER = ACIER))

CAREL1=AFFE_CARA_ELEM( MODELE=MO1,
                 POUTRE=(_F( MAILLE = 'AB',     SECTION = 'RECTANGLE',
                             CARA = 'H',        VALE = 0.04   ),
                         _F( MAILLE = ('AC','AG','GD',),  SECTION = 'RECTANGLE',
                             CARA = 'H',        VALE = 0.01  ),
                         _F( MAILLE = 'AE',     SECTION = 'RECTANGLE',
                             VARI_SECT = 'HOMOTHETIQUE',
                             CARA = ( 'H1', 'H2',), VALE = ( 0.02, 0.02, ),),),  )

CAREL2=AFFE_CARA_ELEM( MODELE=MO2,
                 POUTRE=(_F( MAILLE = 'AB',   SECTION = 'RECTANGLE',
                             CARA = 'H',      VALE = 0.04 ),
                         _F( MAILLE = ('AC','AG','GD',), SECTION = 'RECTANGLE',
                             CARA = 'H',      VALE = 0.01,),
                         _F( MAILLE = 'AE',   SECTION = 'RECTANGLE',
                             VARI_SECT = 'HOMOTHETIQUE',
                             CARA = ( 'H1', 'H2',), VALE = ( 0.02, 0.02, ),),),   )

CH111=AFFE_CHAR_MECA( MODELE=MO1,DDL_IMPO=(
          _F( TOUT = 'OUI',    DZ = 0., DRX = 0., DRY = 0.),
                   _F( NOEUD = ('D','B','E',), DX = 0., DY = 0., DRZ = 0.),
                   _F( NOEUD = 'C',       DX = 0., DY = 0.)) )

CH112=AFFE_CHAR_MECA( MODELE=MO2,DDL_IMPO=(
          _F( TOUT = 'OUI',    DZ = 0., DRX = 0., DRY = 0.),
                   _F( NOEUD = ('D','B','E',), DX = 0., DY = 0., DRZ = 0.),
                   _F( NOEUD = 'C',       DX = 0., DY = 0.)) )

CH121=AFFE_CHAR_MECA( MODELE=MO1,
          FORCE_NODALE=_F( NOEUD = 'G',  FY = -1.E5),
          FORCE_POUTRE=_F( MAILLE = 'AB', FY = -1.E3) )

CH122=AFFE_CHAR_MECA( MODELE=MO2,
          FORCE_NODALE=_F( NOEUD = 'G',  FY = -1.E5),
          FORCE_POUTRE=_F( MAILLE = 'AB', FY = -1.E3) )

MEST11=MECA_STATIQUE(        MODELE=MO1,     CHAM_MATER=CHMAT,
            CARA_ELEM=CAREL1,EXCIT=( _F( CHARGE = CH111),_F( CHARGE = CH121)))

MEST11=CALC_CHAMP(reuse=MEST11,CONTRAINTE=('EFGE_ELNO'),RESULTAT=MEST11)


MEST12=MECA_STATIQUE(        MODELE=MO2,     CHAM_MATER=CHMAT,
            CARA_ELEM=CAREL2,EXCIT=( _F( CHARGE = CH112),_F( CHARGE = CH122)))

MEST12=CALC_CHAMP(reuse=MEST12,CONTRAINTE=('EFGE_ELNO'),RESULTAT=MEST12)


TEST_RESU(RESU=(_F(NUME_ORDRE=1,
                   RESULTAT=MEST11,
                   NOM_CHAM='DEPL',
                   NOEUD='A',
                   NOM_CMP='DRZ',
                   VALE_CALC=0.227441498,
                   VALE_REFE=0.22711799999999999,
                   REFERENCE='NON_DEFINI',
                   PRECISION=2.E-3,),
                _F(NUME_ORDRE=1,
                   RESULTAT=MEST11,
                   NOM_CHAM='EFGE_ELNO',
                   NOEUD='A',
                   NOM_CMP='MFZ',
                   VALE_CALC=-1.10209874E+04,
                   VALE_REFE=-1.1023719999999999E4,
                   REFERENCE='NON_DEFINI',
                   PRECISION=2.E-3,
                   MAILLE='AB',),
                _F(NUME_ORDRE=1,
                   RESULTAT=MEST11,
                   NOM_CHAM='EFGE_ELNO',
                   NOEUD='A',
                   NOM_CMP='MFZ',
                   VALE_CALC=-113.717904875,
                   VALE_REFE=-113.559,
                   REFERENCE='NON_DEFINI',
                   PRECISION=2.E-3,
                   MAILLE='AC',),
                _F(NUME_ORDRE=1,
                   RESULTAT=MEST11,
                   NOM_CHAM='EFGE_ELNO',
                   NOEUD='A',
                   NOM_CMP='MFZ',
                   VALE_CALC= 1.23474765E+04,
                   VALE_REFE=1.2348588E4,
                   REFERENCE='NON_DEFINI',
                   PRECISION=2.E-3,
                   MAILLE='AG',),
                _F(NUME_ORDRE=1,
                   RESULTAT=MEST11,
                   NOM_CHAM='EFGE_ELNO',
                   NOEUD='A',
                   NOM_CMP='MFZ',
                   VALE_CALC=-1.21277121E+03,
                   VALE_REFE=-1211.2994000000001,
                   REFERENCE='NON_DEFINI',
                   PRECISION=2.E-3,
                   MAILLE='AE',),
                ),
          )

TEST_RESU(RESU=(_F(NUME_ORDRE=1,
                   RESULTAT=MEST12,
                   NOM_CHAM='DEPL',
                   NOEUD='A',
                   NOM_CMP='DRZ',
                   VALE_CALC=0.227441498,
                   VALE_REFE=0.22711799999999999,
                   REFERENCE='NON_DEFINI',
                   PRECISION=2.E-3,),
                _F(NUME_ORDRE=1,
                   RESULTAT=MEST12,
                   NOM_CHAM='EFGE_ELNO',
                   NOEUD='A',
                   NOM_CMP='MFZ',
                   VALE_CALC=-1.10209874E+04,
                   VALE_REFE=-1.1023719999999999E4,
                   REFERENCE='NON_DEFINI',
                   PRECISION=2.E-3,
                   MAILLE='AB',),
                _F(NUME_ORDRE=1,
                   RESULTAT=MEST12,
                   NOM_CHAM='EFGE_ELNO',
                   NOEUD='A',
                   NOM_CMP='MFZ',
                   VALE_CALC=-113.717904875,
                   VALE_REFE=-113.559,
                   REFERENCE='NON_DEFINI',
                   PRECISION=2.E-3,
                   MAILLE='AC',),
                _F(NUME_ORDRE=1,
                   RESULTAT=MEST12,
                   NOM_CHAM='EFGE_ELNO',
                   NOEUD='A',
                   NOM_CMP='MFZ',
                   VALE_CALC= 1.23474765E+04,
                   VALE_REFE=1.2348588E4,
                   REFERENCE='NON_DEFINI',
                   PRECISION=2.E-3,
                   MAILLE='AG',),
                _F(NUME_ORDRE=1,
                   RESULTAT=MEST12,
                   NOM_CHAM='EFGE_ELNO',
                   NOEUD='A',
                   NOM_CMP='MFZ',
                   VALE_CALC=-1.21277121E+03,
                   VALE_REFE=-1211.2994000000001,
                   REFERENCE='NON_DEFINI',
                   PRECISION=2.E-3,
                   MAILLE='AE',),
                ),
          )

#======================================================================

C05=DEFI_CONSTANTE(VALE=0.5  )

C13=DEFI_CONSTANTE(VALE=-1.E3)

C15=DEFI_CONSTANTE(VALE=-1.E5)

#
#  -- POUR TESTER DE NOUVEAUX MOTS CLEFS
#
# -- AFFE_CHAR_MECA_F FORCE_POUTRE MAILLE FY :
# --------------------------------------------

CH221=AFFE_CHAR_MECA_F(   MODELE=MO1,
          FORCE_NODALE=_F( NOEUD = 'G',    FY = C15),
          FORCE_POUTRE=_F( MAILLE = 'AB',  FY = C13))

MEST21=MECA_STATIQUE(        MODELE=MO1,     CHAM_MATER=CHMAT,
            CARA_ELEM=CAREL1,EXCIT=( _F( CHARGE = CH111),_F( CHARGE = CH221)) )

TEST_RESU(RESU=_F(NUME_ORDRE=1,
                  RESULTAT=MEST21,
                  NOM_CHAM='DEPL',
                  NOEUD='A',
                  NOM_CMP='DRZ',
                  VALE_CALC=0.227441498,
                  VALE_REFE=0.22711799999999999,
                  REFERENCE='NON_DEFINI',
                  PRECISION=2.E-3,),
          )

CH222=AFFE_CHAR_MECA_F(   MODELE=MO2,
          FORCE_NODALE=_F( NOEUD = 'G',    FY = C15),
          FORCE_POUTRE=_F( MAILLE = 'AB',  FY = C13))

MEST22=MECA_STATIQUE(        MODELE=MO2,     CHAM_MATER=CHMAT,
            CARA_ELEM=CAREL2,EXCIT=( _F( CHARGE = CH112),_F( CHARGE = CH222)) )

TEST_RESU(RESU=_F(NUME_ORDRE=1,
                  RESULTAT=MEST22,
                  NOM_CHAM='DEPL',
                  NOEUD='A',
                  NOM_CMP='DRZ',
                  VALE_CALC=0.227441498,
                  VALE_REFE=0.22711799999999999,
                  REFERENCE='NON_DEFINI',
                  PRECISION=2.E-3,),
          )

#
# -- AFFE_CHAR_MECA       FORCE_POUTRE VY        :
# --------------------------------------------

CH321=AFFE_CHAR_MECA(   MODELE=MO1,
          FORCE_NODALE=_F( NOEUD = 'G',    FY = -1.E5),
          FORCE_POUTRE=_F( MAILLE = 'AB',  VY = -1.E3))

MEST31=MECA_STATIQUE(        MODELE=MO1,     CHAM_MATER=CHMAT,
            CARA_ELEM=CAREL1,EXCIT=( _F( CHARGE = CH111),_F( CHARGE = CH321)))

TEST_RESU(RESU=_F(NUME_ORDRE=1,
                  RESULTAT=MEST31,
                  NOM_CHAM='DEPL',
                  NOEUD='A',
                  NOM_CMP='DRZ',
                  VALE_CALC=0.227441498,
                  VALE_REFE=0.22711799999999999,
                  REFERENCE='NON_DEFINI',
                  PRECISION=2.E-3,),
          )

CH322=AFFE_CHAR_MECA(   MODELE=MO2,
          FORCE_NODALE=_F( NOEUD = 'G',    FY = -1.E5),
          FORCE_POUTRE=_F( MAILLE = 'AB',  VY = -1.E3))

MEST32=MECA_STATIQUE(        MODELE=MO2,     CHAM_MATER=CHMAT,
            CARA_ELEM=CAREL2,EXCIT=( _F( CHARGE = CH112),_F( CHARGE = CH322)))

TEST_RESU(RESU=_F(NUME_ORDRE=1,
                  RESULTAT=MEST32,
                  NOM_CHAM='DEPL',
                  NOEUD='A',
                  NOM_CMP='DRZ',
                  VALE_CALC=0.227441498,
                  VALE_REFE=0.22711799999999999,
                  REFERENCE='NON_DEFINI',
                  PRECISION=2.E-3,),
          )

#
# -- AFFE_CHAR_MECA_F FORCE_POUTRE GROUP_MA VY :
# --------------------------------------------

CH421=AFFE_CHAR_MECA_F(   MODELE=MO1,
          FORCE_NODALE=_F( NOEUD = 'G',      FY = C15),
          FORCE_POUTRE=_F( GROUP_MA = 'GROUP_MA_AB',  VY = C13))

MEST41=MECA_STATIQUE(        MODELE=MO1,     CHAM_MATER=CHMAT,
            CARA_ELEM=CAREL1,EXCIT=( _F( CHARGE = CH111),_F( CHARGE = CH421)) )

TEST_RESU(RESU=_F(NUME_ORDRE=1,
                  RESULTAT=MEST41,
                  NOM_CHAM='DEPL',
                  NOEUD='A',
                  NOM_CMP='DRZ',
                  VALE_CALC=0.227441498,
                  VALE_REFE=0.22711799999999999,
                  REFERENCE='NON_DEFINI',
                  PRECISION=2.E-3,),
          )

CH422=AFFE_CHAR_MECA_F(   MODELE=MO2,
          FORCE_NODALE=_F( NOEUD = 'G',      FY = C15),
          FORCE_POUTRE=_F( GROUP_MA = 'GROUP_MA_AB',  VY = C13))

MEST42=MECA_STATIQUE(        MODELE=MO2,     CHAM_MATER=CHMAT,
            CARA_ELEM=CAREL2,EXCIT=( _F( CHARGE = CH112),_F( CHARGE = CH422)) )

TEST_RESU(RESU=_F(NUME_ORDRE=1,
                  RESULTAT=MEST42,
                  NOM_CHAM='DEPL',
                  NOEUD='A',
                  NOM_CMP='DRZ',
                  VALE_CALC=0.227441498,
                  VALE_REFE=0.22711799999999999,
                  REFERENCE='NON_DEFINI',
                  PRECISION=2.E-3,),
          )

#
# -- AFFE_CHAR_MECA_F FORCE_POUTRE GROUP_MA VZ :
# ------------------------------------------------

CARE21=AFFE_CARA_ELEM( MODELE=MO1,
                    ORIENTATION=_F(  MAILLE = 'AB', CARA = 'ANGL_VRIL', VALE = -90.),
                    POUTRE=( _F( SECTION = 'RECTANGLE',CARA = 'H',
                                 MAILLE = 'AB',          VALE = 0.04),
                             _F( MAILLE = ('AC','AG','GD',),
                                 SECTION = 'RECTANGLE',CARA = 'H', VALE = 0.01),
                             _F( MAILLE = 'AE',
                                 SECTION = 'RECTANGLE',CARA = 'H', VALE = 0.02)) )

CH521=AFFE_CHAR_MECA_F(   MODELE=MO1,
          FORCE_NODALE=_F( NOEUD = 'G',      FY = C15),
          FORCE_POUTRE=_F( GROUP_MA = 'GROUP_MA_AB',  VZ = C13))

MEST51=MECA_STATIQUE(        MODELE=MO1,     CHAM_MATER=CHMAT,
            CARA_ELEM=CARE21,EXCIT=( _F( CHARGE = CH111),_F( CHARGE = CH521)) )

TEST_RESU(RESU=_F(NUME_ORDRE=1,
                  RESULTAT=MEST51,
                  NOM_CHAM='DEPL',
                  NOEUD='A',
                  NOM_CMP='DRZ',
                  VALE_CALC=0.227441498,
                  VALE_REFE=0.22711799999999999,
                  REFERENCE='NON_DEFINI',
                  PRECISION=2.E-3,),
          )

CARE22=AFFE_CARA_ELEM( MODELE=MO2,
                    ORIENTATION=_F(  MAILLE = 'AB', CARA = 'ANGL_VRIL', VALE = -90.),
                    POUTRE=(_F( SECTION = 'RECTANGLE',CARA = 'H',
                                MAILLE = 'AB',          VALE = 0.04),
                            _F( MAILLE = ('AC','AG','GD',),
                                SECTION = 'RECTANGLE',CARA = 'H', VALE = 0.01),
                            _F( MAILLE = 'AE',
                                SECTION = 'RECTANGLE',CARA = 'H', VALE = 0.02)) )

CH522=AFFE_CHAR_MECA_F(   MODELE=MO2,
          FORCE_NODALE=_F( NOEUD = 'G',      FY = C15),
          FORCE_POUTRE=_F( GROUP_MA = 'GROUP_MA_AB',  VZ = C13))

MEST52=MECA_STATIQUE(        MODELE=MO2,     CHAM_MATER=CHMAT,
            CARA_ELEM=CARE22,EXCIT=( _F( CHARGE = CH112),_F( CHARGE = CH522)) )

TEST_RESU(RESU=_F(NUME_ORDRE=1,
                  RESULTAT=MEST52,
                  NOM_CHAM='DEPL',
                  NOEUD='A',
                  NOM_CMP='DRZ',
                  VALE_CALC=0.227441498,
                  VALE_REFE=0.22711799999999999,
                  REFERENCE='NON_DEFINI',
                  PRECISION=2.E-3,),
          )

#
# -- AFFE_CHAR_MECA   FORCE_POUTRE GROUP_MA VZ :
# ------------------------------------------------

CH621=AFFE_CHAR_MECA(     MODELE=MO1,
          FORCE_NODALE=_F( NOEUD = 'G',      FY = -1.E5),
          FORCE_POUTRE=_F( GROUP_MA = 'GROUP_MA_AB',  VZ = -1.E3))

MEST61=MECA_STATIQUE(        MODELE=MO1,     CHAM_MATER=CHMAT,
            CARA_ELEM=CARE21,EXCIT=( _F( CHARGE = CH111),_F( CHARGE = CH621)) )

TEST_RESU(RESU=_F(NUME_ORDRE=1,
                  RESULTAT=MEST61,
                  NOM_CHAM='DEPL',
                  NOEUD='A',
                  NOM_CMP='DRZ',
                  VALE_CALC=0.227441498,
                  VALE_REFE=0.22711799999999999,
                  REFERENCE='NON_DEFINI',
                  PRECISION=2.E-3,),
          )

CH622=AFFE_CHAR_MECA(     MODELE=MO2,
          FORCE_NODALE=_F( NOEUD = 'G',      FY = -1.E5),
          FORCE_POUTRE=_F( GROUP_MA = 'GROUP_MA_AB',  VZ = -1.E3))

MEST62=MECA_STATIQUE(        MODELE=MO2,     CHAM_MATER=CHMAT,
            CARA_ELEM=CARE22,EXCIT=( _F( CHARGE = CH112),_F( CHARGE = CH622)) )

TEST_RESU(RESU=_F(NUME_ORDRE=1,
                  RESULTAT=MEST62,
                  NOM_CHAM='DEPL',
                  NOEUD='A',
                  NOM_CMP='DRZ',
                  VALE_CALC=0.227441498,
                  VALE_REFE=0.22711799999999999,
                  REFERENCE='NON_DEFINI',
                  PRECISION=2.E-3,),
          )

#
FIN()
#
