# MODIF  DATE 10/10/2012   AUTEUR COURTOIS M.COURTOIS 
# TITRE TUYAUTERIE (PROBLEME DE HOVGAARD) POU_D_T
# ssll101a.para = tps_job 60 mem_job 256Mo ncpus 1 liste_test R
#            CONFIGURATION MANAGEMENT OF EDF VERSION
# ======================================================================
# COPYRIGHT (C) 1991 - 2012  EDF R&D                  WWW.CODE-ASTER.ORG
# THIS PROGRAM IS FREE SOFTWARE; YOU CAN REDISTRIBUTE IT AND/OR MODIFY
# IT UNDER THE TERMS OF THE GNU GENERAL PUBLIC LICENSE AS PUBLISHED BY
# THE FREE SOFTWARE FOUNDATION; EITHER VERSION 2 OF THE LICENSE, OR
# (AT YOUR OPTION) ANY LATER VERSION.
#
# THIS PROGRAM IS DISTRIBUTED IN THE HOPE THAT IT WILL BE USEFUL, BUT
# WITHOUT ANY WARRANTY; WITHOUT EVEN THE IMPLIED WARRANTY OF
# MERCHANTABILITY OR FITNESS FOR A PARTICULAR PURPOSE. SEE THE GNU
# GENERAL PUBLIC LICENSE FOR MORE DETAILS.
#
# YOU SHOULD HAVE RECEIVED A COPY OF THE GNU GENERAL PUBLIC LICENSE
# ALONG WITH THIS PROGRAM; IF NOT, WRITE TO EDF R&D CODE_ASTER,
#    1 AVENUE DU GENERAL DE GAULLE, 92141 CLAMART CEDEX, FRANCE.
# ======================================================================
# RESPONSABLE JMBHH01 J.M.PROIX
# ----------------------------------------------------------------------
# PROBLEME DE HOVGAARD
#
# MODELISATION DES ELEMENTS COURBES PAR DES ELEMENTS DROITS.
# ----------------------------------------------------------------------

DEBUT(CODE=_F( NOM = 'SSLL101A',NIV_PUB_WEB='INTERNET'),DEBUG=_F(SDVERI='OUI'))

MAILLAGE=LIRE_MAILLAGE(FORMAT='MED', )

MODELE=AFFE_MODELE(  MAILLAGE=MAILLAGE,
                 AFFE=_F( TOUT = 'OUI',PHENOMENE = 'MECANIQUE',
                                  MODELISATION = 'POU_D_T') )

MAT=DEFI_MATERIAU(ELAS=_F( E = 1.658E+11,NU = 0.3,RHO = 13404.106,
                                 ALPHA = .1288E-4) )

CHAMPMAT=AFFE_MATERIAU(MAILLAGE=MAILLAGE,
                           AFFE=_F( TOUT = 'OUI', MATER = MAT) )

BLOCAGE=AFFE_CHAR_MECA(MODELE=MODELE,
                  DDL_IMPO=_F( GROUP_NO = 'ENCASTRE',
                            DX = 0.,DY = 0.,DZ = 0., DRX = 0.,DRY = 0.,DRZ = 0.)  )

CARA_ELE=AFFE_CARA_ELEM( MODELE=MODELE,
                POUTRE=(_F(  SECTION = 'GENERALE',
                             GROUP_MA = 'POU_D_T',
                             CARA = ('A', 'IZ', 'IY', 'AY', 'AZ', 'JX',
                                     'EZ', 'EY', 'RY', 'RZ', 'RT', ),
                             VALE = ( 3.439E-03, 1.377E-05, 1.377E-05,
                                      2.,        2.,        2.754E-05,
                                      0.,        0.,        9.250E-02,
                                      9.250E-02, 9.250E-02, )),
                         _F(  GROUP_MA = 'POU_C_T',  SECTION = 'GENERALE',
                              VARI_SECT = 'HOMOTHETIQUE',
                              CARA = ('A1', 'IZ1', 'IY1', 'AY1', 'AZ1','JX1',
                                      'EZ1', 'EY1', 'RY1', 'RZ1', 'RT1',
                                      'A2', 'IZ2', 'IY2', 'AY2', 'AZ2','JX2',
                                      'EZ2', 'EY2', 'RY2', 'RZ2', 'RT2',     ),
                              VALE = ( 3.439E-03, 5.887E-06, 5.887E-06,
                                       2.,        2.,        2.754E-05,
                                       0.,        0.,        9.250E-02,
                                       9.250E-02, 9.250E-02,
                                       3.439E-03, 5.887E-06, 5.887E-06,
                                       2.,        2.,        2.754E-05,
                                       0.,        0.,        9.250E-02,
                                       9.250E-02, 9.250E-02, )))
                        )

#
# ----------------------------------------------------------------------
# POIDS PROPRE

GRAVITE=AFFE_CHAR_MECA(MODELE=MODELE,PESANTEUR=_F(GRAVITE=-9.81,
                                                  DIRECTION=(0.,0.,1.,),),)

STAT1=MECA_STATIQUE(MODELE=MODELE,
                   CHAM_MATER=CHAMPMAT,
                   CARA_ELEM=CARA_ELE,
                   EXCIT=(_F(CHARGE=BLOCAGE,),
                          _F(CHARGE=GRAVITE,),),);



TEST_RESU(RESU=(_F(NUME_ORDRE=1,
                   RESULTAT=STAT1,
                   NOM_CHAM='DEPL',
                   NOEUD='N300',
                   NOM_CMP='DX',
                   VALE_CALC=-1.6579999999999999E-4,
                   TOLE_MACHINE=1.E-3,),
                _F(NUME_ORDRE=1,
                   RESULTAT=STAT1,
                   NOM_CHAM='DEPL',
                   NOEUD='N300',
                   NOM_CMP='DY',
                   VALE_CALC=-2.0400000000000001E-05,
                   TOLE_MACHINE=1.E-3,),
                _F(NUME_ORDRE=1,
                   RESULTAT=STAT1,
                   NOM_CHAM='DEPL',
                   NOEUD='N300',
                   NOM_CMP='DZ',
                   VALE_CALC=-8.0099999999999995E-06,
                   TOLE_MACHINE=1.E-3,),
                _F(NUME_ORDRE=1,
                   RESULTAT=STAT1,
                   NOM_CHAM='DEPL',
                   NOEUD='N500',
                   NOM_CMP='DX',
                   VALE_CALC=-2.397E-4,
                   TOLE_MACHINE=1.E-3,),
                _F(NUME_ORDRE=1,
                   RESULTAT=STAT1,
                   NOM_CHAM='DEPL',
                   NOEUD='N500',
                   NOM_CMP='DY',
                   VALE_CALC=1.7770000000000001E-4,
                   TOLE_MACHINE=1.E-3,),
                _F(NUME_ORDRE=1,
                   RESULTAT=STAT1,
                   NOM_CHAM='DEPL',
                   NOEUD='N500',
                   NOM_CMP='DZ',
                   VALE_CALC=-2.6810000000000001E-4,
                   TOLE_MACHINE=1.E-3,),
                _F(NUME_ORDRE=1,
                   RESULTAT=STAT1,
                   NOM_CHAM='DEPL',
                   NOEUD='N700',
                   NOM_CMP='DX',
                   VALE_CALC=-1.8550000000000001E-4,
                   TOLE_MACHINE=1.E-3,),
                _F(NUME_ORDRE=1,
                   RESULTAT=STAT1,
                   NOM_CHAM='DEPL',
                   NOEUD='N700',
                   NOM_CMP='DY',
                   VALE_CALC=1.775E-4,
                   TOLE_MACHINE=1.E-3,),
                _F(NUME_ORDRE=1,
                   RESULTAT=STAT1,
                   NOM_CHAM='DEPL',
                   NOEUD='N700',
                   NOM_CMP='DZ',
                   VALE_CALC=-3.9399999999999998E-4,
                   TOLE_MACHINE=1.E-3,),
                _F(NUME_ORDRE=1,
                   RESULTAT=STAT1,
                   NOM_CHAM='DEPL',
                   NOEUD='N900',
                   NOM_CMP='DX',
                   VALE_CALC=-1.2779999999999999E-4,
                   TOLE_MACHINE=1.E-3,),
                _F(NUME_ORDRE=1,
                   RESULTAT=STAT1,
                   NOM_CHAM='DEPL',
                   NOEUD='N900',
                   NOM_CMP='DY',
                   VALE_CALC=1.774E-4,
                   TOLE_MACHINE=1.E-3,),
                _F(NUME_ORDRE=1,
                   RESULTAT=STAT1,
                   NOM_CHAM='DEPL',
                   NOEUD='N900',
                   NOM_CMP='DZ',
                   VALE_CALC=-4.9770000000000001E-4,
                   TOLE_MACHINE=1.E-3,),
                _F(NUME_ORDRE=1,
                   RESULTAT=STAT1,
                   NOM_CHAM='DEPL',
                   NOEUD='N1100',
                   NOM_CMP='DX',
                   VALE_CALC=0.0,
                   TOLE_MACHINE=1.E-3,
                   CRITERE='ABSOLU',),
                _F(NUME_ORDRE=1,
                   RESULTAT=STAT1,
                   NOM_CHAM='DEPL',
                   NOEUD='N1100',
                   NOM_CMP='DY',
                   VALE_CALC=5.6820000000000001E-05,
                   TOLE_MACHINE=1.E-3,),
                _F(NUME_ORDRE=1,
                   RESULTAT=STAT1,
                   NOM_CHAM='DEPL',
                   NOEUD='N1100',
                   NOM_CMP='DZ',
                   VALE_CALC=-2.207E-4,
                   TOLE_MACHINE=1.E-3,),
                ),
          )

STAT1=CALC_CHAMP(reuse=STAT1,RESULTAT=STAT1,NUME_ORDRE=1,CONTRAINTE=('EFGE_ELNO'))


TEST_RESU(RESU=(_F(NUME_ORDRE=1,
                   RESULTAT=STAT1,
                   NOM_CHAM='EFGE_ELNO',
                   NOEUD='N100',
                   NOM_CMP='N',
                   VALE_CALC=-2276.0,
                   TOLE_MACHINE=1.E-3,
                   MAILLE='E101',),
                _F(NUME_ORDRE=1,
                   RESULTAT=STAT1,
                   NOM_CHAM='EFGE_ELNO',
                   NOEUD='N100',
                   NOM_CMP='VY',
                   VALE_CALC=-161.09999999999999,
                   TOLE_MACHINE=1.E-3,
                   MAILLE='E101',),
                _F(NUME_ORDRE=1,
                   RESULTAT=STAT1,
                   NOM_CHAM='EFGE_ELNO',
                   NOEUD='N100',
                   NOM_CMP='VZ',
                   VALE_CALC=-10.052704762,
                   VALE_REFE=-10.095000000000001,
                   REFERENCE='NON_DEFINI',
                   PRECISION=5.0000000000000001E-3,
                   MAILLE='E101',),
                _F(NUME_ORDRE=1,
                   RESULTAT=STAT1,
                   NOM_CHAM='EFGE_ELNO',
                   NOEUD='N100',
                   NOM_CMP='MT',
                   VALE_CALC=-53.399999999999999,
                   TOLE_MACHINE=1.E-3,
                   MAILLE='E101',),
                _F(NUME_ORDRE=1,
                   RESULTAT=STAT1,
                   NOM_CHAM='EFGE_ELNO',
                   NOEUD='N100',
                   NOM_CMP='MFY',
                   VALE_CALC=-89.659999999999997,
                   TOLE_MACHINE=1.E-3,
                   MAILLE='E101',),
                _F(NUME_ORDRE=1,
                   RESULTAT=STAT1,
                   NOM_CHAM='EFGE_ELNO',
                   NOEUD='N100',
                   NOM_CMP='MFZ',
                   VALE_CALC=-158.5,
                   TOLE_MACHINE=1.E-3,
                   MAILLE='E101',),
                _F(NUME_ORDRE=1,
                   RESULTAT=STAT1,
                   NOM_CHAM='EFGE_ELNO',
                   NOEUD='N1500',
                   NOM_CMP='N',
                   VALE_CALC=10.052704763,
                   VALE_REFE=10.095000000000001,
                   REFERENCE='NON_DEFINI',
                   PRECISION=5.0000000000000001E-3,
                   MAILLE='E1401',),
                _F(NUME_ORDRE=1,
                   RESULTAT=STAT1,
                   NOM_CHAM='EFGE_ELNO',
                   NOEUD='N1500',
                   NOM_CMP='VY',
                   VALE_CALC=-161.09999999999999,
                   TOLE_MACHINE=1.E-3,
                   MAILLE='E1401',),
                _F(NUME_ORDRE=1,
                   RESULTAT=STAT1,
                   NOM_CHAM='EFGE_ELNO',
                   NOEUD='N1500',
                   NOM_CMP='VZ',
                   VALE_CALC=1165.0,
                   TOLE_MACHINE=1.E-3,
                   MAILLE='E1401',),
                _F(NUME_ORDRE=1,
                   RESULTAT=STAT1,
                   NOM_CHAM='EFGE_ELNO',
                   NOEUD='N1500',
                   NOM_CMP='MT',
                   VALE_CALC=15.638228285,
                   VALE_REFE=15.6,
                   REFERENCE='NON_DEFINI',
                   PRECISION=5.0000000000000001E-3,
                   MAILLE='E1401',),
                _F(NUME_ORDRE=1,
                   RESULTAT=STAT1,
                   NOM_CHAM='EFGE_ELNO',
                   NOEUD='N1500',
                   NOM_CMP='MFY',
                   VALE_CALC= 1.26029451E+03,
                   VALE_REFE=1260.5,
                   REFERENCE='NON_DEFINI',
                   PRECISION=5.0000000000000001E-3,
                   MAILLE='E1401',),
                _F(NUME_ORDRE=1,
                   RESULTAT=STAT1,
                   NOM_CHAM='EFGE_ELNO',
                   NOEUD='N1500',
                   NOM_CMP='MFZ',
                   VALE_CALC=290.10000000000002,
                   TOLE_MACHINE=1.E-3,
                   MAILLE='E1401',),
                ),
          )

#----------------------------------------------------------------------
# CHARGES PONCTUELLES SELON Z

FORCE_Z=AFFE_CHAR_MECA(MODELE=MODELE,FORCE_NODALE=(
                  _F( NOEUD = 'N200',            FZ = -624.897),
                  _F( NOEUD = 'N300',            FZ = -788.724),
                  _F( NOEUD = ('N400','N1000',),     FZ = -327.654),
                  _F( NOEUD = ('N500','N900',),      FZ = -214.839),
                  _F( NOEUD = ('N600','N700','N800',), FZ = -102.514),
                  _F( NOEUD = 'N1100',           FZ = -222.687),
                  _F( NOEUD = ('N1200','N1300',),    FZ = -117.720),
                  _F( NOEUD = 'N1400',           FZ = -176.580))
                            )

STAT2=MECA_STATIQUE(MODELE=MODELE,
                   CHAM_MATER=CHAMPMAT,
                   CARA_ELEM=CARA_ELE,
                   EXCIT=(_F(CHARGE=BLOCAGE,),
                          _F(CHARGE=FORCE_Z,),
                          ),
                );

TEST_RESU(RESU=(_F(NUME_ORDRE=1,
                   RESULTAT=STAT2,
                   NOM_CHAM='DEPL',
                   NOEUD='N300',
                   NOM_CMP='DX',
                   VALE_CALC=-1.651E-4,
                   TOLE_MACHINE=1.E-3,),
                _F(NUME_ORDRE=1,
                   RESULTAT=STAT2,
                   NOM_CHAM='DEPL',
                   NOEUD='N300',
                   NOM_CMP='DY',
                   VALE_CALC=-2.0800000000000001E-05,
                   TOLE_MACHINE=1.E-3,),
                _F(NUME_ORDRE=1,
                   RESULTAT=STAT2,
                   NOM_CHAM='DEPL',
                   NOEUD='N300',
                   NOM_CMP='DZ',
                   VALE_CALC=-9.516E-06,
                   TOLE_MACHINE=1.E-3,),
                _F(NUME_ORDRE=1,
                   RESULTAT=STAT2,
                   NOM_CHAM='DEPL',
                   NOEUD='N500',
                   NOM_CMP='DX',
                   VALE_CALC=-2.386E-4,
                   TOLE_MACHINE=1.E-3,),
                _F(NUME_ORDRE=1,
                   RESULTAT=STAT2,
                   NOM_CHAM='DEPL',
                   NOEUD='N500',
                   NOM_CMP='DY',
                   VALE_CALC=1.773E-4,
                   TOLE_MACHINE=1.E-3,),
                _F(NUME_ORDRE=1,
                   RESULTAT=STAT2,
                   NOM_CHAM='DEPL',
                   NOEUD='N500',
                   NOM_CMP='DZ',
                   VALE_CALC=-2.697E-4,
                   TOLE_MACHINE=1.E-3,),
                _F(NUME_ORDRE=1,
                   RESULTAT=STAT2,
                   NOM_CHAM='DEPL',
                   NOEUD='N700',
                   NOM_CMP='DX',
                   VALE_CALC=-1.8479999999999999E-4,
                   TOLE_MACHINE=1.E-3,),
                _F(NUME_ORDRE=1,
                   RESULTAT=STAT2,
                   NOM_CHAM='DEPL',
                   NOEUD='N700',
                   NOM_CMP='DY',
                   VALE_CALC=1.771E-4,
                   TOLE_MACHINE=1.E-3,),
                _F(NUME_ORDRE=1,
                   RESULTAT=STAT2,
                   NOM_CHAM='DEPL',
                   NOEUD='N700',
                   NOM_CMP='DZ',
                   VALE_CALC=-3.948E-4,
                   TOLE_MACHINE=1.E-3,),
                _F(NUME_ORDRE=1,
                   RESULTAT=STAT2,
                   NOM_CHAM='DEPL',
                   NOEUD='N900',
                   NOM_CMP='DX',
                   VALE_CALC=-1.2740000000000001E-4,
                   TOLE_MACHINE=1.E-3,),
                _F(NUME_ORDRE=1,
                   RESULTAT=STAT2,
                   NOM_CHAM='DEPL',
                   NOEUD='N900',
                   NOM_CMP='DY',
                   VALE_CALC=1.7699999999999999E-4,
                   TOLE_MACHINE=1.E-3,),
                _F(NUME_ORDRE=1,
                   RESULTAT=STAT2,
                   NOM_CHAM='DEPL',
                   NOEUD='N900',
                   NOM_CMP='DZ',
                   VALE_CALC=-4.9640000000000003E-4,
                   TOLE_MACHINE=1.E-3,),
                _F(NUME_ORDRE=1,
                   RESULTAT=STAT2,
                   NOM_CHAM='DEPL',
                   NOEUD='N1100',
                   NOM_CMP='DX',
                   VALE_CALC=0.0,
                   TOLE_MACHINE=1.E-3,
                   CRITERE='ABSOLU',),
                _F(NUME_ORDRE=1,
                   RESULTAT=STAT2,
                   NOM_CHAM='DEPL',
                   NOEUD='N1100',
                   NOM_CMP='DY',
                   VALE_CALC=5.6740000000000002E-05,
                   TOLE_MACHINE=1.E-3,),
                _F(NUME_ORDRE=1,
                   RESULTAT=STAT2,
                   NOM_CHAM='DEPL',
                   NOEUD='N1100',
                   NOM_CMP='DZ',
                   VALE_CALC=-2.186E-4,
                   TOLE_MACHINE=1.E-3,),
                ),
          )

STAT2=CALC_CHAMP(reuse=STAT2,RESULTAT=STAT2,NUME_ORDRE=1,CONTRAINTE=('EFGE_ELNO'))



TEST_RESU(RESU=(_F(NUME_ORDRE=1,
                   RESULTAT=STAT2,
                   NOM_CHAM='EFGE_ELNO',
                   NOEUD='N100',
                   NOM_CMP='N',
                   VALE_CALC=-2273.0,
                   TOLE_MACHINE=1.E-3,
                   MAILLE='E101',),
                _F(NUME_ORDRE=1,
                   RESULTAT=STAT2,
                   NOM_CHAM='EFGE_ELNO',
                   NOEUD='N100',
                   NOM_CMP='VY',
                   VALE_CALC=-161.09999999999999,
                   TOLE_MACHINE=1.E-3,
                   MAILLE='E101',),
                _F(NUME_ORDRE=1,
                   RESULTAT=STAT2,
                   NOM_CHAM='EFGE_ELNO',
                   NOEUD='N100',
                   NOM_CMP='VZ',
                   VALE_CALC=-9.8100000000000005,
                   TOLE_MACHINE=1.E-3,
                   MAILLE='E101',),
                _F(NUME_ORDRE=1,
                   RESULTAT=STAT2,
                   NOM_CHAM='EFGE_ELNO',
                   NOEUD='N100',
                   NOM_CMP='MT',
                   VALE_CALC=-53.020000000000003,
                   TOLE_MACHINE=1.E-3,
                   MAILLE='E101',),
                _F(NUME_ORDRE=1,
                   RESULTAT=STAT2,
                   NOM_CHAM='EFGE_ELNO',
                   NOEUD='N100',
                   NOM_CMP='MFY',
                   VALE_CALC=-89.530000000000001,
                   TOLE_MACHINE=1.E-3,
                   MAILLE='E101',),
                _F(NUME_ORDRE=1,
                   RESULTAT=STAT2,
                   NOM_CHAM='EFGE_ELNO',
                   NOEUD='N100',
                   NOM_CMP='MFZ',
                   VALE_CALC=-158.63,
                   TOLE_MACHINE=1.E-3,
                   MAILLE='E101',),
                _F(NUME_ORDRE=1,
                   RESULTAT=STAT2,
                   NOM_CHAM='EFGE_ELNO',
                   NOEUD='N1500',
                   NOM_CMP='N',
                   VALE_CALC=9.8100000000000005,
                   TOLE_MACHINE=1.E-3,
                   MAILLE='E1401',),
                _F(NUME_ORDRE=1,
                   RESULTAT=STAT2,
                   NOM_CHAM='EFGE_ELNO',
                   NOEUD='N1500',
                   NOM_CMP='VY',
                   VALE_CALC=-161.09999999999999,
                   TOLE_MACHINE=1.E-3,
                   MAILLE='E1401',),
                _F(NUME_ORDRE=1,
                   RESULTAT=STAT2,
                   NOM_CHAM='EFGE_ELNO',
                   NOEUD='N1500',
                   NOM_CMP='VZ',
                   VALE_CALC=1168.0,
                   TOLE_MACHINE=1.E-3,
                   MAILLE='E1401',),
                _F(NUME_ORDRE=1,
                   RESULTAT=STAT2,
                   NOM_CHAM='EFGE_ELNO',
                   NOEUD='N1500',
                   NOM_CMP='MT',
                   VALE_CALC=11.912176844,
                   VALE_REFE=11.9,
                   REFERENCE='NON_DEFINI',
                   PRECISION=5.0000000000000001E-3,
                   MAILLE='E1401',),
                _F(NUME_ORDRE=1,
                   RESULTAT=STAT2,
                   NOM_CHAM='EFGE_ELNO',
                   NOEUD='N1500',
                   NOM_CMP='MFY',
                   VALE_CALC=1261.0,
                   TOLE_MACHINE=1.E-3,
                   MAILLE='E1401',),
                _F(NUME_ORDRE=1,
                   RESULTAT=STAT2,
                   NOM_CHAM='EFGE_ELNO',
                   NOEUD='N1500',
                   NOM_CMP='MFZ',
                   VALE_CALC=289.69999999999999,
                   TOLE_MACHINE=1.E-3,
                   MAILLE='E1401',),
                ),
          )

#----------------------------------------------------------------------
# DILATATION THERMIQUE UNIFORME A 472.220


CHTEMP=CREA_CHAMP( OPERATION='AFFE', TYPE_CHAM='NOEU_TEMP_R',
                   MAILLAGE=MAILLAGE,
                   AFFE=_F( TOUT = 'OUI',NOM_CMP = 'TEMP',VALE = 472.22))

TEMPER=CREA_RESU(
               OPERATION='AFFE', TYPE_RESU='EVOL_THER',
                NOM_CHAM='TEMP',
                 AFFE=_F(
               INST = 0.0,
               CHAM_GD = CHTEMP)
             )


MATH=AFFE_MATERIAU(MAILLAGE=MAILLAGE,
                           AFFE=_F( TOUT = 'OUI', MATER = MAT) ,
               AFFE_VARC=_F(TOUT='OUI',EVOL=TEMPER,
               NOM_VARC='TEMP',NOM_CHAM='TEMP',VALE_REF=0.0),)


STAT3=MECA_STATIQUE(MODELE=MODELE,
                   CHAM_MATER=MATH,
                   CARA_ELEM=CARA_ELE,
                   EXCIT=(_F(CHARGE=BLOCAGE,),
                          ),
                );


TEST_RESU(RESU=(_F(NUME_ORDRE=1,
                   RESULTAT=STAT3,
                   NOM_CHAM='DEPL',
                   NOEUD='N300',
                   NOM_CMP='DX',
                   VALE_CALC=-6.1418000000000002E-3,
                   TOLE_MACHINE=1.E-3,),
                _F(NUME_ORDRE=1,
                   RESULTAT=STAT3,
                   NOM_CHAM='DEPL',
                   NOEUD='N300',
                   NOM_CMP='DY',
                   VALE_CALC=-0.013089999999999999,
                   TOLE_MACHINE=1.E-3,),
                _F(NUME_ORDRE=1,
                   RESULTAT=STAT3,
                   NOM_CHAM='DEPL',
                   NOEUD='N300',
                   NOM_CMP='DZ',
                   VALE_CALC=0.016799000000000001,
                   TOLE_MACHINE=1.E-3,),
                _F(NUME_ORDRE=1,
                   RESULTAT=STAT3,
                   NOM_CHAM='DEPL',
                   NOEUD='N500',
                   NOM_CMP='DX',
                   VALE_CALC=-0.010302,
                   TOLE_MACHINE=1.E-3,),
                _F(NUME_ORDRE=1,
                   RESULTAT=STAT3,
                   NOM_CHAM='DEPL',
                   NOEUD='N500',
                   NOM_CMP='DY',
                   VALE_CALC=-8.1320000000000003E-3,
                   TOLE_MACHINE=1.E-3,),
                _F(NUME_ORDRE=1,
                   RESULTAT=STAT3,
                   NOM_CHAM='DEPL',
                   NOEUD='N500',
                   NOM_CMP='DZ',
                   VALE_CALC=0.019723000000000001,
                   TOLE_MACHINE=1.E-3,),
                _F(NUME_ORDRE=1,
                   RESULTAT=STAT3,
                   NOM_CHAM='DEPL',
                   NOEUD='N700',
                   NOM_CMP='DX',
                   VALE_CALC=-0.01137,
                   TOLE_MACHINE=1.E-3,),
                _F(NUME_ORDRE=1,
                   RESULTAT=STAT3,
                   NOM_CHAM='DEPL',
                   NOEUD='N700',
                   NOM_CMP='DY',
                   VALE_CALC=-5.3829999999999998E-3,
                   TOLE_MACHINE=1.E-3,),
                _F(NUME_ORDRE=1,
                   RESULTAT=STAT3,
                   NOM_CHAM='DEPL',
                   NOEUD='N700',
                   NOM_CMP='DZ',
                   VALE_CALC=0.016135,
                   TOLE_MACHINE=1.E-3,),
                _F(NUME_ORDRE=1,
                   RESULTAT=STAT3,
                   NOM_CHAM='DEPL',
                   NOEUD='N900',
                   NOM_CMP='DX',
                   VALE_CALC=-0.012238000000000001,
                   TOLE_MACHINE=1.E-3,),
                _F(NUME_ORDRE=1,
                   RESULTAT=STAT3,
                   NOM_CHAM='DEPL',
                   NOEUD='N900',
                   NOM_CMP='DY',
                   VALE_CALC=-2.6329999999999999E-3,
                   TOLE_MACHINE=1.E-3,),
                _F(NUME_ORDRE=1,
                   RESULTAT=STAT3,
                   NOM_CHAM='DEPL',
                   NOEUD='N900',
                   NOM_CMP='DZ',
                   VALE_CALC=0.012262,
                   TOLE_MACHINE=1.E-3,),
                _F(NUME_ORDRE=1,
                   RESULTAT=STAT3,
                   NOM_CHAM='DEPL',
                   NOEUD='N1100',
                   NOM_CMP='DX',
                   VALE_CALC=-6.3080000000000002E-3,
                   TOLE_MACHINE=1.E-3,),
                _F(NUME_ORDRE=1,
                   RESULTAT=STAT3,
                   NOM_CHAM='DEPL',
                   NOEUD='N1100',
                   NOM_CMP='DY',
                   VALE_CALC=1.542E-3,
                   TOLE_MACHINE=1.E-3,),
                _F(NUME_ORDRE=1,
                   RESULTAT=STAT3,
                   NOM_CHAM='DEPL',
                   NOEUD='N1100',
                   NOM_CMP='DZ',
                   VALE_CALC=1.931E-3,
                   TOLE_MACHINE=1.E-3,),
                ),
          )

STAT3=CALC_CHAMP(reuse=STAT3,RESULTAT=STAT3,NUME_ORDRE=1,CONTRAINTE=('EFGE_ELNO'))


TEST_RESU(RESU=(_F(NUME_ORDRE=1,
                   RESULTAT=STAT3,
                   NOM_CHAM='EFGE_ELNO',
                   NOEUD='N100',
                   NOM_CMP='N',
                   VALE_CALC=-7431.0,
                   TOLE_MACHINE=1.E-3,
                   MAILLE='E101',),
                _F(NUME_ORDRE=1,
                   RESULTAT=STAT3,
                   NOM_CHAM='EFGE_ELNO',
                   NOEUD='N100',
                   NOM_CMP='VY',
                   VALE_CALC=-7613.0,
                   TOLE_MACHINE=1.E-3,
                   MAILLE='E101',),
                _F(NUME_ORDRE=1,
                   RESULTAT=STAT3,
                   NOM_CHAM='EFGE_ELNO',
                   NOEUD='N100',
                   NOM_CMP='VZ',
                   VALE_CALC=2791.0,
                   TOLE_MACHINE=1.E-3,
                   MAILLE='E101',),
                _F(NUME_ORDRE=1,
                   RESULTAT=STAT3,
                   NOM_CHAM='EFGE_ELNO',
                   NOEUD='N100',
                   NOM_CMP='MT',
                   VALE_CALC=1615.0,
                   TOLE_MACHINE=1.E-3,
                   MAILLE='E101',),
                _F(NUME_ORDRE=1,
                   RESULTAT=STAT3,
                   NOM_CHAM='EFGE_ELNO',
                   NOEUD='N100',
                   NOM_CMP='MFY',
                   VALE_CALC=-6193.0,
                   TOLE_MACHINE=1.E-3,
                   MAILLE='E101',),
                _F(NUME_ORDRE=1,
                   RESULTAT=STAT3,
                   NOM_CHAM='EFGE_ELNO',
                   NOEUD='N100',
                   NOM_CMP='MFZ',
                   VALE_CALC=-1.4712E4,
                   TOLE_MACHINE=1.E-3,
                   MAILLE='E101',),
                _F(NUME_ORDRE=1,
                   RESULTAT=STAT3,
                   NOM_CHAM='EFGE_ELNO',
                   NOEUD='N1500',
                   NOM_CMP='N',
                   VALE_CALC=-2791.0,
                   TOLE_MACHINE=1.E-3,
                   MAILLE='E1401',),
                _F(NUME_ORDRE=1,
                   RESULTAT=STAT3,
                   NOM_CHAM='EFGE_ELNO',
                   NOEUD='N1500',
                   NOM_CMP='VY',
                   VALE_CALC=-7613.0,
                   TOLE_MACHINE=1.E-3,
                   MAILLE='E1401',),
                _F(NUME_ORDRE=1,
                   RESULTAT=STAT3,
                   NOM_CHAM='EFGE_ELNO',
                   NOEUD='N1500',
                   NOM_CMP='VZ',
                   VALE_CALC=-7433.0,
                   TOLE_MACHINE=1.E-3,
                   MAILLE='E1401',),
                _F(NUME_ORDRE=1,
                   RESULTAT=STAT3,
                   NOM_CHAM='EFGE_ELNO',
                   NOEUD='N1500',
                   NOM_CMP='MT',
                   VALE_CALC=7052.0,
                   TOLE_MACHINE=1.E-3,
                   MAILLE='E1401',),
                _F(NUME_ORDRE=1,
                   RESULTAT=STAT3,
                   NOM_CHAM='EFGE_ELNO',
                   NOEUD='N1500',
                   NOM_CMP='MFY',
                   VALE_CALC=-1.0460E4,
                   TOLE_MACHINE=1.E-3,
                   MAILLE='E1401',),
                _F(NUME_ORDRE=1,
                   RESULTAT=STAT3,
                   NOM_CHAM='EFGE_ELNO',
                   NOEUD='N1500',
                   NOM_CMP='MFZ',
                   VALE_CALC=8862.0,
                   TOLE_MACHINE=1.E-3,
                   MAILLE='E1401',),
                ),
          )

#
FIN()
#
