# TITRE 2D_DISCRET EN NON-LINEAIRE -
# ======================================================================
# COPYRIGHT (C) 1991 - 2012  EDF R&D                  WWW.CODE-ASTER.ORG
# THIS PROGRAM IS FREE SOFTWARE; YOU CAN REDISTRIBUTE IT AND/OR MODIFY
# IT UNDER THE TERMS OF THE GNU GENERAL PUBLIC LICENSE AS PUBLISHED BY
# THE FREE SOFTWARE FOUNDATION; EITHER VERSION 2 OF THE LICENSE, OR
# (AT YOUR OPTION) ANY LATER VERSION.
#
# THIS PROGRAM IS DISTRIBUTED IN THE HOPE THAT IT WILL BE USEFUL, BUT
# WITHOUT ANY WARRANTY; WITHOUT EVEN THE IMPLIED WARRANTY OF
# MERCHANTABILITY OR FITNESS FOR A PARTICULAR PURPOSE. SEE THE GNU
# GENERAL PUBLIC LICENSE FOR MORE DETAILS.
#
# YOU SHOULD HAVE RECEIVED A COPY OF THE GNU GENERAL PUBLIC LICENSE
# ALONG WITH THIS PROGRAM; IF NOT, WRITE TO EDF R&D CODE_ASTER,
#    1 AVENUE DU GENERAL DE GAULLE, 92141 CLAMART CEDEX, FRANCE.
# ======================================================================
#       ON MODELISE UNE BARRE AVEC 10 ELEMENTS DISCRETS 2D
#       A 2 NOEUDS
#       UNE EXTREMITE EST BLOQUEE ET ON EXERCE UNE FORCE
#       A L'AUTRE EXTREMITE
#       LE PROBLEME EST TRAITE AVEC MECA_STATIQUE ET STAT_NON_LINE
###################################################################

DEBUT(CODE=_F(NOM='SSLL108A', NIV_PUB_WEB='INTERNET'), DEBUG=_F(SDVERI='OUI'))


MA=LIRE_MAILLAGE( )

MATER1=DEFI_MATERIAU(  ELAS=_F(  E = 200000.,   NU = 0.3,
                                  RHO = 10000.) )


CHMAT=AFFE_MATERIAU(  MAILLAGE=MA,
             AFFE=_F(  GROUP_MA = ('GRMA',),    MATER = MATER1)  )

MOD=AFFE_MODELE(  MAILLAGE=MA,AFFE=(
             _F(  GROUP_MA = ('GRMA',),
                   MODELISATION = '2D_DIS_T',
                   PHENOMENE = 'MECANIQUE'))
                   )

CELEM=AFFE_CARA_ELEM(   MODELE=MOD,
               VERIF=( 'MAILLE',  'NOEUD',  ),
                DISCRET_2D= _F( GROUP_MA = 'GRMA',
                                CARA = 'K_T_D_L',
                                VALE = (1000., 1000.,),)
                     )

CH=AFFE_CHAR_MECA(
            MODELE=MOD,
#
     DDL_IMPO=_F( NOEUD = 'P1',  DX = 0., DY = 0., ),
#
     FORCE_NODALE=_F( NOEUD = 'P11',  FX = 10.,)
                                       )



DEP=MECA_STATIQUE(MODELE=MOD, CARA_ELEM=CELEM,
                               CHAM_MATER=CHMAT,
                   EXCIT=_F( CHARGE = CH), )

CALC_CHAMP(reuse=DEP,RESULTAT=DEP,CONTRAINTE=('EFGE_ELNO'))


L_INST=DEFI_LIST_REEL(
              DEBUT=0.0,INTERVALLE=(

               _F(  JUSQU_A = 1.00, NOMBRE = 1))
             )

F_CHAR=DEFI_FONCTION(
                NOM_PARA='INST',
              PROL_DROITE='CONSTANT',
                    VALE=(
               0.,   0.,
               1.,   1.,
                         )
                    )
DEP2=STAT_NON_LINE(MODELE=MOD,
                   CHAM_MATER=CHMAT,
                   CARA_ELEM=CELEM,
                   EXCIT=_F(CHARGE = CH),
                   COMP_INCR=_F(RELATION = 'ELAS',),
                   INCREMENT=_F(LIST_INST = L_INST,
                                NUME_INST_FIN = 1),
                   NEWTON=_F(   MATRICE = 'TANGENTE',
                                REAC_ITER = 1),
                   CONVERGENCE=_F( RESI_GLOB_MAXI = 1.E-1,
                                   ITER_GLOB_MAXI = 50),
                   RECH_LINEAIRE=_F( ITER_LINE_MAXI = 3)
              )


TEST_RESU(RESU=(_F(NUME_ORDRE=1,
                   RESULTAT=DEP2,
                   NOM_CHAM='DEPL',
                   NOEUD='P6',
                   NOM_CMP='DX',
                   VALE_CALC=0.050000000000000,
                   VALE_REFE=0.050000000000000003,
                   REFERENCE = 'ANALYTIQUE',
                   PRECISION=9.9999999999999995E-08,
                   CRITERE='RELATIF',
                   ),
                _F(NUME_ORDRE=1,
                   RESULTAT=DEP2,
                   NOM_CHAM='DEPL',
                   NOEUD='P11',
                   NOM_CMP='DX',
                   VALE_CALC=0.100000000000000,
                   VALE_REFE=0.10000000000000001,
                   REFERENCE = 'ANALYTIQUE',
                   PRECISION=9.9999999999999995E-08,
                   CRITERE='RELATIF',
                   ),
                _F(NUME_ORDRE=1,
                   POINT=1,
                   RESULTAT=DEP2,
                   NOM_CHAM='SIEF_ELGA',
                   NOM_CMP='N',
                   VALE_CALC=10.0,
                   VALE_REFE=10.0,
                   REFERENCE = 'ANALYTIQUE',
                   PRECISION=1.E-3,
                   MAILLE='S10',),
                _F(NUME_ORDRE=1,
                   POINT=1,
                   RESULTAT=DEP2,
                   NOM_CHAM='SIEF_ELGA',
                   NOM_CMP='N',
                   VALE_CALC=10.0,
                   VALE_REFE=10.0,
                   REFERENCE = 'ANALYTIQUE',
                   PRECISION=1.E-3,
                   MAILLE='S5',),
                _F(NUME_ORDRE=1,
                   RESULTAT=DEP,
                   NOM_CHAM='DEPL',
                   NOEUD='P6',
                   NOM_CMP='DX',
                   VALE_CALC=0.050000000000000,
                   VALE_REFE=0.050000000000000003,
                   REFERENCE = 'ANALYTIQUE',
                   PRECISION=9.9999999999999995E-08,
                   CRITERE='RELATIF',
                   ),
                _F(NUME_ORDRE=1,
                   RESULTAT=DEP,
                   NOM_CHAM='DEPL',
                   NOEUD='P11',
                   NOM_CMP='DX',
                   VALE_CALC=0.100000000000000,
                   VALE_REFE=0.10000000000000001,
                   REFERENCE = 'ANALYTIQUE',
                   PRECISION=9.9999999999999995E-08,
                   CRITERE='RELATIF',
                   ),
                _F(NUME_ORDRE=1,
                   POINT=1,
                   RESULTAT=DEP,
                   NOM_CHAM='SIEF_ELGA',
                   NOM_CMP='N',
                   VALE_CALC=10.0,
                   VALE_REFE=10.0,
                   REFERENCE = 'ANALYTIQUE',
                   PRECISION=1.E-3,
                   MAILLE='S10',),
                _F(NUME_ORDRE=1,
                   POINT=1,
                   RESULTAT=DEP,
                   NOM_CHAM='SIEF_ELGA',
                   NOM_CMP='N',
                   VALE_CALC=10.0,
                   VALE_REFE=10.0,
                   REFERENCE = 'ANALYTIQUE',
                   PRECISION=1.E-3,
                   MAILLE='S5',),
                ),
          )

#---------------------------------------------------------------------
FIN()
#
