# MODIF  DATE 09/05/2007   AUTEUR REZETTE C.REZETTE 
# RESPONSABLE JMBHH01 J.M.PROIX
# TITRE STRUCTURE SYMETRIQUE DE POUTRES AVEC UN COUDE
#            CONFIGURATION MANAGEMENT OF EDF VERSION
# ======================================================================
# COPYRIGHT (C) 1991 - 2001  EDF R&D                  WWW.CODE-ASTER.ORG
# THIS PROGRAM IS FREE SOFTWARE; YOU CAN REDISTRIBUTE IT AND/OR MODIFY
# IT UNDER THE TERMS OF THE GNU GENERAL PUBLIC LICENSE AS PUBLISHED BY
# THE FREE SOFTWARE FOUNDATION; EITHER VERSION 2 OF THE LICENSE, OR
# (AT YOUR OPTION) ANY LATER VERSION.
#
# THIS PROGRAM IS DISTRIBUTED IN THE HOPE THAT IT WILL BE USEFUL, BUT
# WITHOUT ANY WARRANTY; WITHOUT EVEN THE IMPLIED WARRANTY OF
# MERCHANTABILITY OR FITNESS FOR A PARTICULAR PURPOSE. SEE THE GNU
# GENERAL PUBLIC LICENSE FOR MORE DETAILS.
#
# YOU SHOULD HAVE RECEIVED A COPY OF THE GNU GENERAL PUBLIC LICENSE
# ALONG WITH THIS PROGRAM; IF NOT, WRITE TO EDF R&D CODE_ASTER,
#    1 AVENUE DU GENERAL DE GAULLE, 92141 CLAMART CEDEX, FRANCE.
# ======================================================================
#CAS_TEST__: SSLL100A
# SSLL100 A                COMMANDES                            10/06/91
# STRUCTURE SYMETRIQUE AVEC UN COUDE
# ORIENTATION EN REPERE OBLIQUE
# ETUDES: 1)CHARGE_NODALE   2)DEPL_IMPO   3)TEMPERATURE  4)POIDS PROPRE
#                                              REF: POUX.STA.MPACOB
# MODELISATION POU_D_T  DIS_T  POU_C_T
#=======================================================================


DEBUT(CODE=_F(  NOM = 'SSLL100A',NIV_PUB_WEB='INTERNET') )

MA=LIRE_MAILLAGE( )

MA=DEFI_GROUP( reuse=MA,   MAILLAGE=MA,
                      CREA_GROUP_MA=_F(  NOM = 'TOUT', TOUT = 'OUI'))

MATER=DEFI_MATERIAU( ELAS=_F(  E = 210000000000,
                               NU = 0.3,
                               RHO = 7800.,
                               ALPHA = 1.E-6))

CHMAT=AFFE_MATERIAU(  MAILLAGE=MA,
                         AFFE=_F(  GROUP_MA = 'POUTRE', MATER = MATER) )

MOD=AFFE_MODELE(  MAILLAGE=MA,AFFE=(
            _F(  PHENOMENE = 'MECANIQUE',
                   GROUP_MA = 'POU_D_T',  MODELISATION = 'POU_D_T'),
                 _F(  GROUP_MA = 'POU_C_T',  MODELISATION = 'POU_C_T',
                 PHENOMENE = 'MECANIQUE'),
                 _F(  GROUP_MA = 'LIAI_NOE',MODELISATION = 'DIS_T',
                 PHENOMENE = 'MECANIQUE')) )

CARLEM=AFFE_CARA_ELEM(   MODELE=MOD,
            POUTRE=_F(  GROUP_MA = 'TOUT',
                     SECTION = 'GENERALE',
  CARA = (  'A',   'IY',    'IZ',    'AY',    'AZ',    'JX',   ),
  VALE = ( 0.11780973E-2, 0.125172834E-6, 0.125172834E-6, 1.3096094, 1.3096094,
        0.250345668E-6, )),DEFI_ARC=(

            _F(  MAILLE = 'CD',   ORIE_ARC = 90., RAYON = 2.82800),
                     _F(  MAILLE = 'DE',   ORIE_ARC = 90., RAYON = 2.82800)),

           ORIENTATION=_F( CARA = 'VECT_Y', VALE = ( -1., 0., 0.,), MAILLE = ('AB','FG',)),

            #------ RESSORTS         RAIDEUR KX KZ REPERE LOCAL
            DISCRET=_F(  MAILLE = ('AB','FG',),
                CARA = 'K_T_D_L', VALE = ( 1.E5, 0., 1.E5,), REPERE = 'LOCAL') )

# CONDITIONS LIMITES COMMUNES AUX 3 CAS DE CHARGEMENT 1,3,4
COND_LIM=AFFE_CHAR_MECA(  MODELE=MOD,DDL_IMPO=(
            _F(  NOEUD = ('B','C','D','E','F',),  DX = 0., DRY = 0., DRZ = 0.),
                     _F(  NOEUD = ('A','G',),        DX = 0., DY = 0.,  DZ = 0.)))

#-----------------------------------------------------------------------
MELR=CALC_MATR_ELEM(  MODELE=MOD,          CHARGE=COND_LIM,
                           OPTION='RIGI_MECA',   CHAM_MATER=CHMAT,
                            CARA_ELEM=CARLEM   )

NUM=NUME_DDL(  MATR_RIGI=MELR  )

MATASSR=ASSE_MATRICE(  MATR_ELEM=MELR,        NUME_DDL=NUM   )

MATASSR=FACT_LDLT(reuse=MATASSR,  MATR_ASSE=MATASSR )

#-----------------------------------------------------------------------
#-----------------------------------------------------------------------
# CAS 1:         FORCES EN C ET E
#-----------------------------------------------------------------------

CH1=AFFE_CHAR_MECA(  MODELE=MOD,
                       FORCE_NODALE=_F(  NOEUD = ('C','E',),   FZ = -1000.) )

VEL1=CALC_VECT_ELEM(  CHARGE=( COND_LIM,  CH1, ),
                       OPTION='CHAR_MECA'         )

FORCE_PO=ASSE_VECTEUR(  VECT_ELEM=VEL1,    NUME_DDL=NUM     )

FORCE_PO=RESO_LDLT(reuse=FORCE_PO,  MATR_FACT=MATASSR,  CHAM_NO=FORCE_PO )

########################################################################


#----------------------------------------------------------------------
# CAS 2:         DEPLACEMENTS IMPOSES EN A ET G
#----------------------------------------------------------------------
#

CH2=AFFE_CHAR_MECA(  MODELE=MOD,DDL_IMPO=(
               _F(  NOEUD = ('B','C','D','E','F',),  DX = 0., DRY = 0., DRZ = 0.),
                        _F(  NOEUD = 'A',           DX = 0., DY = 1., DZ = 1.),
                        _F(  NOEUD = 'G',           DX = 0., DY = -1., DZ = 1.)))

VEL2=CALC_VECT_ELEM(  CHARGE=CH2,    OPTION='CHAR_MECA'  )

MELR2=CALC_MATR_ELEM(  MODELE=MOD,           CHARGE=CH2,
                          OPTION='RIGI_MECA',    CHAM_MATER=CHMAT,
                            CARA_ELEM=CARLEM   )

NUM2=NUME_DDL(  MATR_RIGI=MELR2 )

MATASS2=ASSE_MATRICE(  MATR_ELEM=MELR2,       NUME_DDL=NUM2  )

MATASS2=FACT_LDLT(reuse=MATASS2,  MATR_ASSE=MATASS2 )

DDL_IMPO=ASSE_VECTEUR(  VECT_ELEM=VEL2,     NUME_DDL=NUM2)

DDL_IMPO=RESO_LDLT(reuse=DDL_IMPO,  MATR_FACT=MATASS2,  CHAM_NO=DDL_IMPO )

########################################################################

#### SUPPRESSION DE L'OPTION EFGE_ELNO_DEPL    07/08/92
########################################################################
# EFFO_IMP  = CALC_CHAM_ELEM( MODELE: MOD, DEPL : DDL_IMPO
#                             CARA_ELEM: CARLEM CHAM_MATER: CHMAT
#                             OPTION:  'EFGE_ELNO_DEPL');
########################################################################

#----------------------------------------------------------------------
# CAS 3:         DILATATION THERMIQUE A 100 DEGRES
#----------------------------------------------------------------------

CHTEMP=CREA_CHAMP(  OPERATION='AFFE', TYPE_CHAM='NOEU_TEMP_R',
                      MAILLAGE=MA,
                      AFFE=_F(  TOUT = 'OUI', NOM_CMP = 'TEMP',  VALE = 100.) )

CHMAT3=AFFE_MATERIAU(  MAILLAGE=MA,
                         AFFE=_F(  GROUP_MA = 'POUTRE', MATER = MATER),
                         AFFE_VARC=_F(NOM_VARC='TEMP',CHAMP_GD=CHTEMP, TOUT='OUI',VALE_REF=0.),)

VEL3=CALC_VECT_ELEM( CHARGE=( COND_LIM, ),   OPTION='CHAR_MECA',
                        CHAM_MATER=CHMAT3,            CARA_ELEM=CARLEM )

DILA_THE=ASSE_VECTEUR(  VECT_ELEM=VEL3,    NUME_DDL=NUM     )

DILA_THE=RESO_LDLT(reuse=DILA_THE,  MATR_FACT=MATASSR,  CHAM_NO=DILA_THE )

#-----------------------------------------------------------------------
# CAS 4:         EFFET DE LA PESANTEUR
#-----------------------------------------------------------------------

CH4=AFFE_CHAR_MECA(  MODELE=MOD, PESANTEUR=( 9.81,    0.,  0.,  -1.,  ) )

VEL4=CALC_VECT_ELEM(  CHARGE=( COND_LIM,  CH4, ),    CARA_ELEM=CARLEM,
                         CHAM_MATER=CHMAT,     OPTION='CHAR_MECA' )

POIDS_PR=ASSE_VECTEUR(  VECT_ELEM=VEL4,    NUME_DDL=NUM     )

POIDS_PR=RESO_LDLT(reuse=POIDS_PR,  MATR_FACT=MATASSR,  CHAM_NO=POIDS_PR )

#--------------------------------------------------------------------
TEST_RESU(CHAM_NO=(
          _F( CHAM_GD = FORCE_PO,  NOEUD = 'B',  NOM_CMP = 'DY',  VALE = -8.120E-3),
          _F( CHAM_GD = FORCE_PO,  NOEUD = 'B',  NOM_CMP = 'DZ',  VALE = -1.000E-2),
          _F( CHAM_GD = FORCE_PO,  NOEUD = 'C',  NOM_CMP = 'DY',  VALE = 7.389E-3),
          _F( CHAM_GD = FORCE_PO,  NOEUD = 'C',  NOM_CMP = 'DZ',  VALE = -2.553E-2),
          _F( CHAM_GD = FORCE_PO,  NOEUD = 'E',  NOM_CMP = 'DY',  VALE = -7.389E-3),
          _F( CHAM_GD = FORCE_PO,  NOEUD = 'E',  NOM_CMP = 'DZ',  VALE = -2.553E-2),
          _F( CHAM_GD = FORCE_PO,  NOEUD = 'F',  NOM_CMP = 'DY',  VALE = 8.120E-3),
          _F( CHAM_GD = FORCE_PO,  NOEUD = 'F',  NOM_CMP = 'DZ',  VALE = -1.000E-2))
           )

TEST_RESU(CHAM_NO=(
          _F( CHAM_GD = DDL_IMPO,  NOEUD = 'B',  NOM_CMP = 'DY',  VALE = 9.858E-1),
          _F( CHAM_GD = DDL_IMPO,  NOEUD = 'B',  NOM_CMP = 'DZ',  VALE = 1.000),
          _F( CHAM_GD = DDL_IMPO,  NOEUD = 'C',  NOM_CMP = 'DY',  VALE = 1.738E-1),
          _F( CHAM_GD = DDL_IMPO,  NOEUD = 'C',  NOM_CMP = 'DZ',  VALE = 1.812),
          _F( CHAM_GD = DDL_IMPO,  NOEUD = 'E',  NOM_CMP = 'DY',  VALE = -1.738E-1),
          _F( CHAM_GD = DDL_IMPO,  NOEUD = 'E',  NOM_CMP = 'DZ',  VALE = 1.812),
          _F( CHAM_GD = DDL_IMPO,  NOEUD = 'F',  NOM_CMP = 'DY',  VALE = -9.858E-1),
          _F( CHAM_GD = DDL_IMPO,  NOEUD = 'F',  NOM_CMP = 'DZ',  VALE = 1.000))
          )

TEST_RESU(CHAM_NO=(
          _F( CHAM_GD = DILA_THE,  NOEUD = 'B',  NOM_CMP = 'DY',  VALE = -5.660E-6),
          _F( CHAM_GD = DILA_THE,  NOEUD = 'B',  NOM_CMP = 'DZ',  VALE = 0.000,
                               PRECISION = 1.E-10,   CRITERE = 'ABSOLU'),
          _F( CHAM_GD = DILA_THE,  NOEUD = 'C',  NOM_CMP = 'DY',  VALE = -1.305E-4),
          _F( CHAM_GD = DILA_THE,  NOEUD = 'C',  NOM_CMP = 'DZ',  VALE = 5.248E-4),
          _F( CHAM_GD = DILA_THE,  NOEUD = 'E',  NOM_CMP = 'DY',  VALE = 1.305E-4),
          _F( CHAM_GD = DILA_THE,  NOEUD = 'E',  NOM_CMP = 'DZ',  VALE = 5.248E-4),
          _F( CHAM_GD = DILA_THE,  NOEUD = 'F',  NOM_CMP = 'DY',  VALE = 5.660E-6),
          _F( CHAM_GD = DILA_THE,  NOEUD = 'F',  NOM_CMP = 'DZ',  VALE = 0.000,
                               PRECISION = 1.E-10,   CRITERE = 'ABSOLU')))

TEST_RESU(CHAM_NO=(
          _F( CHAM_GD = POIDS_PR,  NOEUD = 'B',  NOM_CMP = 'DY',  VALE = -3.111E-3,
                               PRECISION = 5.E-3,    CRITERE = 'RELATIF'),
          _F( CHAM_GD = POIDS_PR,  NOEUD = 'B',  NOM_CMP = 'DZ',  VALE = -4.552E-3,
                               PRECISION = 5.E-3,    CRITERE = 'RELATIF'),
          _F( CHAM_GD = POIDS_PR,  NOEUD = 'C',  NOM_CMP = 'DY',  VALE = 1.180E-3,
                               PRECISION = 5.E-2,    CRITERE = 'RELATIF'),
          _F( CHAM_GD = POIDS_PR,  NOEUD = 'C',  NOM_CMP = 'DZ',  VALE = -8.850E-3,
                               PRECISION = 5.E-3,    CRITERE = 'RELATIF'),
          _F( CHAM_GD = POIDS_PR,  NOEUD = 'E',  NOM_CMP = 'DY',  VALE = -1.180E-3,
                               PRECISION = 5.E-2,    CRITERE = 'RELATIF'),
          _F( CHAM_GD = POIDS_PR,  NOEUD = 'E',  NOM_CMP = 'DZ',  VALE = -8.850E-3,
                               PRECISION = 5.E-3,    CRITERE = 'RELATIF'),
          _F( CHAM_GD = POIDS_PR,  NOEUD = 'F',  NOM_CMP = 'DY',  VALE = 3.111E-3,
                               PRECISION = 5.E-3,    CRITERE = 'RELATIF'),
          _F( CHAM_GD = POIDS_PR,  NOEUD = 'F',  NOM_CMP = 'DZ',  VALE = -4.552E-3,
                               PRECISION = 5.E-3,    CRITERE = 'RELATIF')))

#======================================================================
#               MATERIAU  FONCTION  DE  LA  TEMPERATURE
#======================================================================


T = FORMULE(NOM_PARA=('INST','Y','Z'),VALE='''
        2. * INST * ( 3. + ( 4. * Y * Z ) +
                        ( 5. * Y * Y )  + ( 5. * Z * Z ) )
                 ''')

T1=5.

T2=500.

T3=1000.

A_F=DEFI_CONSTANTE(   NOM_RESU='TEMP',
                                VALE=0.     )

E1=1.8E+11

E2=2.3E+11

E3=2.9E+11

#E_F=DEFI_FONCTION(  NOM_PARA='TEMP',
#                        VALE=( T1, E1,  T2, E2,  T3, E3, )  )
#
E_F = FORMULE(NOM_PARA='TEMP',VALE='''
        ( 1.910E+4 * TEMP * TEMP ) + ( 9.045E+7 * TEMP ) + 1.80005E+11
                    ''')


NU1=0.3

NU2=0.33

NU3=0.35

#NU_F=DEFI_FONCTION(  NOM_PARA='TEMP',
#                         VALE=( T1, NU1,  T2, NU2,  T3, NU3, )  )
#
NU_F = FORMULE(NOM_PARA='TEMP',VALE='''
        ( -2.0E-8 * TEMP * TEMP ) + ( 7.044E-5 * TEMP ) + 0.2996
                  ''')

MATER_F=DEFI_MATERIAU(  ELAS_FO=_F(  E = E_F,      NU = NU_F,
                                     TEMP_DEF_ALPHA=0.0,
                                     ALPHA = A_F) )

CHT1=CREA_CHAMP(  OPERATION='AFFE', TYPE_CHAM='NOEU_TEMP_F',
                       MAILLAGE=MA,
                       AFFE=_F(  TOUT = 'OUI',
                              NOM_CMP = 'TEMP',  VALE_F = T)  )

CHT2=CREA_CHAMP(  OPERATION='AFFE', TYPE_CHAM='NOEU_TEMP_R',
                       MAILLAGE=MA,
                       AFFE=_F(  TOUT = 'OUI',
                              NOM_CMP = 'TEMP',  VALE = T2)  )

CHT3=CREA_CHAMP(  OPERATION='AFFE', TYPE_CHAM='NOEU_TEMP_R',
                       MAILLAGE=MA,
                       AFFE=_F(  TOUT = 'OUI',
                              NOM_CMP = 'TEMP',  VALE = T3)  )

LINST=DEFI_LIST_REEL( VALE=( 1.,  2.,  3.,  )  )

L_1=DEFI_LIST_REEL( VALE=( 1.,   1.5, )  )

L_2=DEFI_LIST_REEL( VALE=( 1.8,  2.,  )  )

TEMP=CREA_RESU(  OPERATION='AFFE', TYPE_RESU='EVOL_THER',      NOM_CHAM='TEMP',
                  AFFE=(_F(  LIST_INST = L_1,  CHAM_GD = CHT1),
                        _F(  LIST_INST = L_2,  CHAM_GD = CHT2),
                        _F(  INST = 3.,  CHAM_GD = CHT3))     )

CHMAT_F=AFFE_MATERIAU(  MAILLAGE=MA,
                  AFFE=_F(  TOUT = 'OUI',      MATER = MATER_F),  
                  AFFE_VARC=_F(NOM_VARC='TEMP',EVOL=TEMP, TOUT='OUI',NOM_CHAM='TEMP',),)

TEST_RESU(RESU=(
            _F(  RESULTAT = TEMP,   NUME_ORDRE = 1,       NOM_CHAM = 'TEMP',
              REFERENCE = 'ANALYTIQUE',
              NOEUD = 'B',      NOM_CMP = 'TEMP',  VALE = 6.),
            _F(  RESULTAT = TEMP,   NUME_ORDRE = 1,       NOM_CHAM = 'TEMP',
              REFERENCE = 'ANALYTIQUE',
              NOEUD = 'C',      NOM_CMP = 'TEMP',  VALE = 118.),
            _F(  RESULTAT = TEMP,   NUME_ORDRE = 1,       NOM_CHAM = 'TEMP',
              REFERENCE = 'ANALYTIQUE',
              NOEUD = 'E',      NOM_CMP = 'TEMP',  VALE = 502.),
            _F(  RESULTAT = TEMP,   NUME_ORDRE = 1,       NOM_CHAM = 'TEMP',
              REFERENCE = 'ANALYTIQUE',
              NOEUD = 'F',      NOM_CMP = 'TEMP',  VALE = 646.),
            _F(  RESULTAT = TEMP,   NUME_ORDRE = 2,       NOM_CHAM = 'TEMP',
              REFERENCE = 'ANALYTIQUE',
              NOEUD = 'B',      NOM_CMP = 'TEMP',  VALE = 9.),
            _F(  RESULTAT = TEMP,   NUME_ORDRE = 2,       NOM_CHAM = 'TEMP',
              REFERENCE = 'ANALYTIQUE',
              NOEUD = 'E',      NOM_CMP = 'TEMP',  VALE = 753.))
            )

CHG1=AFFE_CHAR_MECA(   MODELE=MOD,
                       FORCE_NODALE=_F(  NOEUD = ('C','E',),   FZ = -1000.),DDL_IMPO=(
            _F(  NOEUD = ('B','C','D','E','F',),  DX = 0., DRY = 0., DRZ = 0.),
                     _F(  NOEUD = ('A','G',),        DX = 0., DY = 0.,  DZ = 0.))
                       )

U2=MECA_STATIQUE(      MODELE=MOD,
                        CHAM_MATER=CHMAT_F,     CARA_ELEM=CARLEM,
                         LIST_INST=LINST,
                             EXCIT=_F(   CHARGE = CHG1)        )

TEST_RESU(RESU=(
          _F(  RESULTAT = U2,  NOM_CHAM = 'DEPL',  NUME_ORDRE = 1,
            REFERENCE = 'NON_REGRESSION', VERSION='8.2.9',
            NOEUD = 'B',  NOM_CMP = 'DY',  VALE = -8.12266E-03),
          _F(  RESULTAT = U2,  NOM_CHAM = 'DEPL',  NUME_ORDRE = 1,
            REFERENCE = 'NON_REGRESSION', VERSION='8.2.9',
            NOEUD = 'B',  NOM_CMP = 'DZ',  VALE = -1.00000E-02),
          _F(  RESULTAT = U2,  NOM_CHAM = 'DEPL',  NUME_ORDRE = 1,
            REFERENCE = 'NON_REGRESSION', VERSION='8.2.9',
            NOEUD = 'C',  NOM_CMP = 'DY',  VALE = 9.15710E-03),
          _F(  RESULTAT = U2,  NOM_CHAM = 'DEPL',  NUME_ORDRE = 1,
            REFERENCE = 'NON_REGRESSION', VERSION='8.2.9',
            NOEUD = 'C',  NOM_CMP = 'DZ',  VALE = -2.73042E-02),
          _F(  RESULTAT = U2,  NOM_CHAM = 'DEPL',  NUME_ORDRE = 1,
            REFERENCE = 'NON_REGRESSION', VERSION='8.2.9',
            NOEUD = 'E',  NOM_CMP = 'DY',  VALE = -5.64313E-03),
          _F(  RESULTAT = U2,  NOM_CHAM = 'DEPL',  NUME_ORDRE = 1,
            REFERENCE = 'NON_REGRESSION', VERSION='8.2.9',
            NOEUD = 'E',  NOM_CMP = 'DZ',  VALE = -2.37850E-02),
          _F(  RESULTAT = U2,  NOM_CHAM = 'DEPL',  NUME_ORDRE = 1,
            REFERENCE = 'NON_REGRESSION', VERSION='8.2.9',
            NOEUD = 'F',  NOM_CMP = 'DY',  VALE = 8.12266E-03),
          _F(  RESULTAT = U2,  NOM_CHAM = 'DEPL',  NUME_ORDRE = 1,
            REFERENCE = 'NON_REGRESSION', VERSION='8.2.9',
            NOEUD = 'F',  NOM_CMP = 'DZ',  VALE = -1.00000E-02),

          _F(  RESULTAT = U2,  NOM_CHAM = 'DEPL',  NUME_ORDRE = 2,
            REFERENCE = 'NON_REGRESSION', VERSION='8.2.9',
            NOEUD = 'B',  NOM_CMP = 'DY',  VALE = -8.12266E-03),
          _F(  RESULTAT = U2,  NOM_CHAM = 'DEPL',  NUME_ORDRE = 2,
            REFERENCE = 'NON_REGRESSION', VERSION='8.2.9',
            NOEUD = 'B',  NOM_CMP = 'DZ',  VALE = -1.00000E-02),
          _F(  RESULTAT = U2,  NOM_CHAM = 'DEPL',  NUME_ORDRE = 2,
            REFERENCE = 'NON_REGRESSION', VERSION='8.2.9',
            NOEUD = 'C',  NOM_CMP = 'DY',  VALE = 9.15710E-03),
          _F(  RESULTAT = U2,  NOM_CHAM = 'DEPL',  NUME_ORDRE = 2,
            REFERENCE = 'NON_REGRESSION', VERSION='8.2.9',
            NOEUD = 'C',  NOM_CMP = 'DZ',  VALE = -2.73042E-02),
          _F(  RESULTAT = U2,  NOM_CHAM = 'DEPL',  NUME_ORDRE = 2,
            REFERENCE = 'NON_REGRESSION', VERSION='8.2.9',
            NOEUD = 'E',  NOM_CMP = 'DY',  VALE = -5.64313E-03),
          _F(  RESULTAT = U2,  NOM_CHAM = 'DEPL',  NUME_ORDRE = 2,
            REFERENCE = 'NON_REGRESSION', VERSION='8.2.9',
            NOEUD = 'E',  NOM_CMP = 'DZ',  VALE = -2.37850E-02),
          _F(  RESULTAT = U2,  NOM_CHAM = 'DEPL',  NUME_ORDRE = 2,
            REFERENCE = 'NON_REGRESSION', VERSION='8.2.9',
            NOEUD = 'F',  NOM_CMP = 'DY',  VALE = 8.12266E-03),
          _F(  RESULTAT = U2,  NOM_CHAM = 'DEPL',  NUME_ORDRE = 2,
            REFERENCE = 'NON_REGRESSION', VERSION='8.2.9',
            NOEUD = 'F',  NOM_CMP = 'DZ',  VALE = -1.00000E-02),

          _F(  RESULTAT = U2,  NOM_CHAM = 'DEPL',  NUME_ORDRE = 3,
            REFERENCE = 'NON_REGRESSION', VERSION='8.2.9',
            NOEUD = 'B',  NOM_CMP = 'DY',  VALE = -8.12266E-03),
          _F(  RESULTAT = U2,  NOM_CHAM = 'DEPL',  NUME_ORDRE = 3,
            REFERENCE = 'NON_REGRESSION', VERSION='8.2.9',
            NOEUD = 'B',  NOM_CMP = 'DZ',  VALE = -1.00000E-02),
          _F(  RESULTAT = U2,  NOM_CHAM = 'DEPL',  NUME_ORDRE = 3,
            REFERENCE = 'NON_REGRESSION', VERSION='8.2.9',
            NOEUD = 'C',  NOM_CMP = 'DY',  VALE = 9.15710E-03),
          _F(  RESULTAT = U2,  NOM_CHAM = 'DEPL',  NUME_ORDRE = 3,
            REFERENCE = 'NON_REGRESSION', VERSION='8.2.9',
            NOEUD = 'C',  NOM_CMP = 'DZ',  VALE = -2.73042E-02),
          _F(  RESULTAT = U2,  NOM_CHAM = 'DEPL',  NUME_ORDRE = 3,
            REFERENCE = 'NON_REGRESSION', VERSION='8.2.9',
            NOEUD = 'E',  NOM_CMP = 'DY',  VALE = -5.64313E-03),
          _F(  RESULTAT = U2,  NOM_CHAM = 'DEPL',  NUME_ORDRE = 3,
            REFERENCE = 'NON_REGRESSION', VERSION='8.2.9',
            NOEUD = 'E',  NOM_CMP = 'DZ',  VALE = -2.37850E-02),
          _F(  RESULTAT = U2,  NOM_CHAM = 'DEPL',  NUME_ORDRE = 3,
            REFERENCE = 'NON_REGRESSION', VERSION='8.2.9',
            NOEUD = 'F',  NOM_CMP = 'DY',  VALE = 8.12266E-03),
          _F(  RESULTAT = U2,  NOM_CHAM = 'DEPL',  NUME_ORDRE = 3,
            REFERENCE = 'NON_REGRESSION', VERSION='8.2.9',
            NOEUD = 'F',  NOM_CMP = 'DZ',  VALE = -1.00000E-02))
           )

FIN( )
#
