# ======================================================================
# COPYRIGHT (C) 1991 - 2016  EDF R&D                  WWW.CODE-ASTER.ORG
# THIS PROGRAM IS FREE SOFTWARE; YOU CAN REDISTRIBUTE IT AND/OR MODIFY
# IT UNDER THE TERMS OF THE GNU GENERAL PUBLIC LICENSE AS PUBLISHED BY
# THE FREE SOFTWARE FOUNDATION; EITHER VERSION 2 OF THE LICENSE, OR
# (AT YOUR OPTION) ANY LATER VERSION.
#
# THIS PROGRAM IS DISTRIBUTED IN THE HOPE THAT IT WILL BE USEFUL, BUT
# WITHOUT ANY WARRANTY; WITHOUT EVEN THE IMPLIED WARRANTY OF
# MERCHANTABILITY OR FITNESS FOR A PARTICULAR PURPOSE. SEE THE GNU
# GENERAL PUBLIC LICENSE FOR MORE DETAILS.
#
# YOU SHOULD HAVE RECEIVED A COPY OF THE GNU GENERAL PUBLIC LICENSE
# ALONG WITH THIS PROGRAM; IF NOT, WRITE TO EDF R&D CODE_ASTER,
#    1 AVENUE DU GENERAL DE GAULLE, 92141 CLAMART CEDEX, FRANCE.
# ======================================================================

DEBUT(CODE=_F(NIV_PUB_WEB='INTERNET'), DEBUG=_F(SDVERI='OUI'))

# lecture maillage lineique
MAPOU=LIRE_MAILLAGE(UNITE=20,);

# lecture maillage section fibres
MASEC1=LIRE_MAILLAGE(UNITE=18,)


MOPOU=AFFE_MODELE(
    MAILLAGE=MAPOU,
    AFFE=_F(TOUT='OUI', PHENOMENE='MECANIQUE', MODELISATION='POU_D_EM',),
)

GF=DEFI_GEOM_FIBRE(INFO=1,
    # on s'arrange pour utiliser plusieurs occurrences de SECTION :
    SECTION = (
        _F( GROUP_FIBRE='SEC1',
            MAILLAGE_SECT = MASEC1 , TOUT_SECT = 'OUI',
            COOR_AXE_POUTRE = (0., 1.38889E-02,)),
        _F( GROUP_FIBRE='SEC2',
            MAILLAGE_SECT= MASEC1 , TOUT_SECT = 'OUI',
            COOR_AXE_POUTRE = (0., 1.38889E-02,)),
    ),
    FIBRE = _F( GROUP_FIBRE = 'SACI', CARA = 'SURFACE',
                COOR_AXE_POUTRE = (0.0, 0.0,),
                VALE =(  0.08, -0.15, 2.0E-4,
                        -0.08, -0.15, 2.0E-4,
                         0.10,  0.11, 1.5E-4,
                        -0.10,  0.11, 1.5E-4, ),
    ),
)
#
POUCA=AFFE_CARA_ELEM(MODELE=MOPOU,    INFO=1,
    # caracteristiques des sections, orientations et rigidite de torsion
    POUTRE=_F(  GROUP_MA=('POUTRE'),
                SECTION='GENERALE',
                CARA=('A','IY','IZ','JX'),
                VALE=(4.57e-2,4.657e-4,1.6806e-4,9.77e-5),
            ),
    ORIENTATION=_F(GROUP_MA=('POUTRE'), CARA='ANGL_VRIL', VALE=0.0,),
    GEOM_FIBRE=GF,
    MULTIFIBRE = (
        _F(MAILLE = 'M1',GROUP_FIBRE=('SEC1','SACI')),
        _F(MAILLE = 'M2',GROUP_FIBRE=('SEC2','SACI')),
    )
)


# LES MATERIAUX
BETON=DEFI_MATERIAU(ELAS=_F(E=2.E10, NU=0.25,),);

ACIER=DEFI_MATERIAU(ELAS=_F(E=2.10000000000E11, NU=0.3,),);
# relation ELAS par defaut
COMP1=DEFI_COMPOR(
    GEOM_FIBRE=GF,MATER_SECT=BETON,
    MULTIFIBRE=(
        _F(GROUP_FIBRE='SEC1',MATER=BETON),
        _F(GROUP_FIBRE='SEC2',MATER=BETON),
        _F(GROUP_FIBRE='SACI',MATER=ACIER),
    ),
)
#
# LES CHAMPS DE MATERIAUX
CHMAT=AFFE_MATERIAU(MAILLAGE=MAPOU,
    AFFE=_F(TOUT='OUI', MATER=(BETON,ACIER)),
    AFFE_COMPOR=_F(GROUP_MA='POUTRE',COMPOR=COMP1),
)
#
BLOQUAGE=AFFE_CHAR_MECA(MODELE=MOPOU,
    DDL_IMPO=(
        _F(GROUP_NO='A',  DX=0.0, DY=0.0, DZ=0.0,  DRX=0.0,  DRZ=0.0,),
        _F(GROUP_NO='B', DZ=0.0,),
    ),
)
#
CHARGT=AFFE_CHAR_MECA(
    MODELE=MOPOU,
    FORCE_NODALE=_F(GROUP_NO='C', FZ=1.E4,),
)
#
# RESOLUTION DU PROBLEME ELASTIQUE
U1=MECA_STATIQUE(
    MODELE=MOPOU, CHAM_MATER=CHMAT, CARA_ELEM=POUCA,
    EXCIT=(_F(CHARGE=BLOQUAGE,),  _F(CHARGE=CHARGT,),),);
#
# CALCUL DES EFFORTS GENERALISES
U1=CALC_CHAMP(reuse=U1,RESULTAT=U1,CONTRAINTE=('EFGE_ELNO'))

U1=CALC_CHAMP(reuse =U1, RESULTAT=U1, CONTRAINTE='EFGE_NOEU')

TEST_RESU(RESU=(_F(NUME_ORDRE=1,
                   MAILLE='M1',
                   NOEUD = 'N1',
                   RESULTAT=U1,
                   NOM_CHAM='EFGE_ELNO',
                   NOM_CMP='VZ',
                   VALE_CALC=5000.0,
                   ),))

TEST_RESU(RESU=(_F(NUME_ORDRE=1,
                   GROUP_NO='C',
                   RESULTAT=U1,
                   NOM_CHAM='DEPL',
                   NOM_CMP='DZ',
                   VALE_CALC=  0.00222931698673, ),
                _F(NUME_ORDRE=1,
                   GROUP_NO='A',
                   RESULTAT=U1,
                   NOM_CHAM='DEPL',
                   NOM_CMP='DRY',
                   VALE_CALC= -0.00133759019204, ),
                _F(NUME_ORDRE=1,
                   GROUP_NO='A',
                   RESULTAT=U1,
                   NOM_CHAM='EFGE_NOEU',
                   NOM_CMP='VZ',
                   VALE_CALC=5000.0, ),
                _F(NUME_ORDRE=1,
                   GROUP_NO='C',
                   RESULTAT=U1,
                   NOM_CHAM='EFGE_NOEU',
                   NOM_CMP='MFY',
                   VALE_CALC=1.2500E4, ),
                _F(NUME_ORDRE=1,
                   RESULTAT=U1,
                   NOM_CHAM='DEPL',
                   NOEUD='N1',
                   NOM_CMP='DRY',
                   VALE_CALC= -0.00133759019204, ),
                _F(NUME_ORDRE=1,
                   RESULTAT=U1,
                   NOM_CHAM='DEPL',
                   NOEUD='N1',
                   NOM_CMP='DX', ORDRE_GRANDEUR=1.0E-05,
                   VALE_CALC=0.0, VALE_REFE=0.0, CRITERE='ABSOLU', REFERENCE='ANALYTIQUE',),
                _F(NUME_ORDRE=1,
                   RESULTAT=U1,
                   NOM_CHAM='DEPL',
                   NOEUD='N1',
                   NOM_CMP='DY', ORDRE_GRANDEUR=1.0E-05,
                   VALE_CALC=0.0, VALE_REFE=0.0, CRITERE='ABSOLU', REFERENCE='ANALYTIQUE', ),
                _F(NUME_ORDRE=1,
                   RESULTAT=U1,
                   NOM_CHAM='DEPL',
                   NOEUD='N1',
                   NOM_CMP='DZ', ORDRE_GRANDEUR=1.0E-05,
                   VALE_CALC=0.0, VALE_REFE=0.0, CRITERE='ABSOLU', REFERENCE='ANALYTIQUE', ),
                _F(NUME_ORDRE=1,
                   RESULTAT=U1,
                   NOM_CHAM='DEPL',
                   NOEUD='N1',
                   NOM_CMP='DRX', ORDRE_GRANDEUR=1.0E-05,
                   VALE_CALC=0.0, VALE_REFE=0.0, CRITERE='ABSOLU', REFERENCE='ANALYTIQUE', ),
                _F(NUME_ORDRE=1,
                   RESULTAT=U1,
                   NOM_CHAM='DEPL',
                   NOEUD='N1',
                   NOM_CMP='DRZ', ORDRE_GRANDEUR=1.0E-05,
                   VALE_CALC=0.0, VALE_REFE=0.0, CRITERE='ABSOLU', REFERENCE='ANALYTIQUE', ),
                _F(NUME_ORDRE=1,
                   RESULTAT=U1,
                   NOM_CHAM='DEPL',
                   NOEUD='N2',
                   NOM_CMP='DZ',
                   VALE_CALC=  0.00222931698673, ),
                _F(NUME_ORDRE=1,
                   RESULTAT=U1,
                   NOM_CHAM='EFGE_ELNO',
                   NOEUD='N1',
                   NOM_CMP='N', ORDRE_GRANDEUR=1.0E-05,
                   VALE_CALC=0.0, VALE_REFE=0.0, CRITERE='ABSOLU', REFERENCE='ANALYTIQUE',
                   MAILLE='M1',),
                _F(NUME_ORDRE=1,
                   RESULTAT=U1,
                   NOM_CHAM='EFGE_ELNO',
                   NOEUD='N1',
                   NOM_CMP='VZ',
                   VALE_CALC=5000.0,
                   MAILLE='M1',),
                _F(NUME_ORDRE=1,
                   RESULTAT=U1,
                   NOM_CHAM='EFGE_ELNO',
                   NOEUD='N1',
                   NOM_CMP='MFY', ORDRE_GRANDEUR=1.0E-05,
                   VALE_CALC=0.0, VALE_REFE=0.0, CRITERE='ABSOLU', REFERENCE='ANALYTIQUE',
                   MAILLE='M1',),
                _F(NUME_ORDRE=1,
                   RESULTAT=U1,
                   NOM_CHAM='EFGE_ELNO',
                   NOEUD='N1',
                   NOM_CMP='VY', ORDRE_GRANDEUR=1.0E-05,
                   VALE_CALC=0.0, VALE_REFE=0.0, CRITERE='ABSOLU', REFERENCE='ANALYTIQUE',
                   MAILLE='M1',),
                _F(NUME_ORDRE=1,
                   RESULTAT=U1,
                   NOM_CHAM='EFGE_ELNO',
                   NOEUD='N1',
                   NOM_CMP='MT', ORDRE_GRANDEUR=1.0E-05,
                   VALE_CALC=0.0, VALE_REFE=0.0, CRITERE='ABSOLU', REFERENCE='ANALYTIQUE',
                   MAILLE='M1',),
                _F(NUME_ORDRE=1,
                   RESULTAT=U1,
                   NOM_CHAM='EFGE_ELNO',
                   NOEUD='N1',
                   NOM_CMP='MFZ', ORDRE_GRANDEUR=1.0E-05,
                   VALE_CALC=0.0, VALE_REFE=0.0, CRITERE='ABSOLU', REFERENCE='ANALYTIQUE',
                   MAILLE='M1',),
                ),
)

# Test de CREA_TABLE/RESU sur des elements a sous-points
TU1_1 = CREA_TABLE(RESU=_F(RESULTAT=U1,TOUT='OUI',NOM_CHAM='EFGE_NOEU',TOUT_CMP='OUI'))

PourTest = [
   [ 1, 'N3', 'COOR_X',      5.0 ],
   [ 1, 'N3', 'VZ',      -5000.0 ],
   [ 1, 'N2', 'COOR_X',      2.5 ],
   [ 1, 'N2', 'MFY',     12500.0 ],
]
for numordre,noeud,npara,lavale in PourTest:
   TEST_TABLE(
      TABLE=TU1_1,
      FILTRE=(
         _F(NOM_PARA='NUME_ORDRE', CRIT_COMP='EQ', VALE_I= numordre),
         _F(NOM_PARA='NOEUD',      CRIT_COMP='EQ', VALE_K= noeud),
      ),
      NOM_PARA=npara,
      VALE_CALC=lavale,
   )


linst=DEFI_LIST_REEL(VALE=(0.0,1.0))
U2=STAT_NON_LINE(
   MODELE=MOPOU, CHAM_MATER=CHMAT, CARA_ELEM=POUCA,
   INCREMENT=_F(LIST_INST=linst),
   COMPORTEMENT=_F(TOUT='OUI',RELATION='MULTIFIBRE',),
   EXCIT=(_F(CHARGE=BLOQUAGE,),  _F(CHARGE=CHARGT,),),
)
U2=CALC_CHAMP(reuse=U2,RESULTAT=U2,CONTRAINTE=('EFGE_ELNO'))
TEST_RESU(RESU=(_F(NUME_ORDRE=1,
                   MAILLE='M1',
                   NOEUD = 'N1',
                   RESULTAT=U2,
                   NOM_CHAM='EFGE_ELNO',
                   NOM_CMP='VZ',
                   VALE_CALC=5000.0,
                   VALE_REFE=5000.0,
                   REFERENCE = 'AUTRE_ASTER',
                   ),))

TU2_1 = CREA_TABLE(RESU=_F(RESULTAT=U2,TOUT='OUI',NOM_CHAM='SIEF_ELGA',TOUT_CMP='OUI'))
#IMPR_TABLE(TABLE=TU2_1)
PourTest = [
   [ 1, 'M1', 2,   1, 'COOR_X',   5.28312E-01 ],
   [ 1, 'M1', 2,   1, 'SIXX',     436557.404914 ],
   [ 1, 'M1', 2,  66, 'COOR_X',   5.28312E-01 ],
   [ 1, 'M1', 2,  66, 'SIXX',     278261.568353 ],
   [ 1, 'M2', 1,  23, 'COOR_X',   4.47169E+00 ],
   [ 1, 'M2', 1,  23, 'SIXX',     617466.784938 ],
   [ 1, 'M2', 1, 138, 'COOR_X',   4.47169E+00 ],
   [ 1, 'M2', 1, 138, 'SIXX',    -701643.679789 ],
]
for numordre,maille,point,spoint,npara,lavale in PourTest:
   TEST_TABLE(
      TABLE=TU2_1,
      FILTRE=(
         _F(NOM_PARA='NUME_ORDRE', CRIT_COMP='EQ', VALE_I=  numordre),
         _F(NOM_PARA='MAILLE',     CRIT_COMP='EQ', VALE_K=  maille),
         _F(NOM_PARA='POINT',      CRIT_COMP='EQ', VALE_I=  point),
         _F(NOM_PARA='SOUS_POINT', CRIT_COMP='EQ', VALE_I=  spoint),
      ),
      NOM_PARA=npara,
      VALE_CALC=lavale,
   )

# IMPRESSION DU MAILLE GLOBAL SECTION
MAGF=CREA_MAILLAGE(GEOM_FIBRE=GF)
# DEFI_FICHIER pour forcer la fermeture
unite=DEFI_FICHIER(ACTION='ASSOCIER', FICHIER='./MAGF.mail',ACCES='NEW')
IMPR_RESU(FORMAT='ASTER',UNITE=unite,RESU=_F(MAILLAGE=MAGF))
DEFI_FICHIER(ACTION='LIBERER', UNITE=unite)
#
TEST_FICHIER(FICHIER="./MAGF.mail",
             NB_VALE_I=2823,
             VALE_CALC_I=600257,
             NB_VALE=800,
             VALE_CALC=-5.5800044000e+00,
             VALE_CALC_K="c44dcee219bea31bcd4a1c541a5e341f",
             EXPR_IGNORE = ('ASTER'),
)

FIN()
