# TITRE POUTRE DE SECTION RECTANGULAIRE  (ENCASTREE-LIBRE)
# ======================================================================
# COPYRIGHT (C) 1991 - 2015  EDF R&D                  WWW.CODE-ASTER.ORG
# THIS PROGRAM IS FREE SOFTWARE; YOU CAN REDISTRIBUTE IT AND/OR MODIFY
# IT UNDER THE TERMS OF THE GNU GENERAL PUBLIC LICENSE AS PUBLISHED BY
# THE FREE SOFTWARE FOUNDATION; EITHER VERSION 2 OF THE LICENSE, OR
# (AT YOUR OPTION) ANY LATER VERSION.
#
# THIS PROGRAM IS DISTRIBUTED IN THE HOPE THAT IT WILL BE USEFUL, BUT
# WITHOUT ANY WARRANTY; WITHOUT EVEN THE IMPLIED WARRANTY OF
# MERCHANTABILITY OR FITNESS FOR A PARTICULAR PURPOSE. SEE THE GNU
# GENERAL PUBLIC LICENSE FOR MORE DETAILS.
#
# YOU SHOULD HAVE RECEIVED A COPY OF THE GNU GENERAL PUBLIC LICENSE
# ALONG WITH THIS PROGRAM; IF NOT, WRITE TO EDF R&D CODE_ASTER,
#    1 AVENUE DU GENERAL DE GAULLE, 92141 CLAMART CEDEX, FRANCE.
# ======================================================================
# person_in_charge: jean-michel.proix at edf.fr
#CAS_TEST__: SSLL104A
# POUTRE ELANCEE DE SECTION RECTANGULAIRE  (ENCASTREE-LIBRE)
# SOUMISE A UN CHAMP DE DEFORMATIONS INITIALES
# MODELISATION POU_D_E : 10 MAILLES SEG2
# MODELISATION POU_D_T : 10 MAILLES SEG2
# MODELISATION POU_D_TG: 10 MAILLES SEG2
# MODELISATION POU_D_EM: 10 MAILLES SEG2
# POINTS   A=N1     B=N11
# TOUTES LES CARACTERISTIQUES DE LA POUTRE SONT PRISES EGALES A 1
# LA LONGUEUR DE LA POUTRE EST EGALE A 100
#----------------------------------------------------------------------


DEBUT(CODE=_F(NIV_PUB_WEB='INTERNET'),DEBUG=_F(SDVERI='OUI'))

MA=LIRE_MAILLAGE( )

MA=DEFI_GROUP( reuse=MA,   MAILLAGE=MA,
  CREA_GROUP_MA=_F(  NOM = 'TOUT', TOUT = 'OUI'))

PRE_GMSH(UNITE_MAILLAGE=21,);

MASEC=LIRE_MAILLAGE(UNITE=21,);

MO1=AFFE_MODELE(  MAILLAGE=MA,
                  AFFE=_F(  TOUT = 'OUI',    PHENOMENE = 'MECANIQUE',
                         MODELISATION = 'POU_D_E') )

MO2=AFFE_MODELE(  MAILLAGE=MA,
                  AFFE=_F(  TOUT = 'OUI',    PHENOMENE = 'MECANIQUE',
                         MODELISATION = 'POU_D_T') )

MO3=AFFE_MODELE(  MAILLAGE=MA,
                  AFFE=_F(  TOUT = 'OUI',    PHENOMENE = 'MECANIQUE',
                         MODELISATION = 'POU_D_TG') )

MO4=AFFE_MODELE(  MAILLAGE=MA,
                  AFFE=_F(  TOUT = 'OUI',    PHENOMENE = 'MECANIQUE',
                         MODELISATION = 'POU_D_EM') )
MO5=AFFE_MODELE(  MAILLAGE=MA,
                  AFFE=_F(  TOUT = 'OUI',    PHENOMENE = 'MECANIQUE',
                         MODELISATION = 'POU_D_TGM') )

GF=DEFI_GEOM_FIBRE(
           SECTION = _F ( GROUP_FIBRE='SEC1',
                            MAILLAGE_SECT = MASEC , GROUP_MA_SECT = 'GM1000',
                            COOR_AXE_POUTRE = (0., 0.,)),
            )

MAT=DEFI_MATERIAU( ELAS=_F(  E = 1., NU = 0.))

COMPF=DEFI_COMPOR(GEOM_FIBRE=GF,MATER_SECT=MAT,
                  MULTIFIBRE=(_F(GROUP_FIBRE='SEC1',MATER=MAT),))

CHMAT=AFFE_MATERIAU(  MAILLAGE=MA,
                       AFFE=_F(  TOUT = 'OUI',  MATER = MAT),
                       AFFE_COMPOR=_F(GROUP_MA = 'TOUT',COMPOR=COMPF)
                    )

# --------- PB PLAN + NOEUDS 'A ET B' ENCASTRES
#
CH1=AFFE_CHAR_MECA(  MODELE=MO1,
          DDL_IMPO=_F(
                    NOEUD = ( 'N1',),  DX = 0.,  DY = 0.,  DZ = 0.,
                                DRX = 0., DRY = 0., DRZ = 0.),
           PRE_EPSI=_F( TOUT = 'OUI',  EPX = 1.E-3,
                                   KY = 2.E-3, KZ = 3.E-3)
                    )

CH2=AFFE_CHAR_MECA(  MODELE=MO2,
          DDL_IMPO=_F(
                   NOEUD = ( 'N1',),  DX = 0.,  DY = 0.,  DZ = 0.,
                               DRX = 0., DRY = 0., DRZ = 0.),
           PRE_EPSI=_F( TOUT = 'OUI',  EPX = 1.E-3,
                                    KY = 2.E-3, KZ = 3.E-3)
                    )

CH3=AFFE_CHAR_MECA(  MODELE=MO3,
          DDL_IMPO=_F(
                   NOEUD = ( 'N1',),  DX = 0.,  DY = 0.,  DZ = 0.,
                               DRX = 0., DRY = 0., DRZ = 0.),
           PRE_EPSI=_F( TOUT = 'OUI',  EPX = 1.E-3,
                                    KY = 2.E-3, KZ = 3.E-3)
                    )

CH4=AFFE_CHAR_MECA(  MODELE=MO4,
          DDL_IMPO=_F(
                   NOEUD = ( 'N1',),  DX = 0.,  DY = 0.,  DZ = 0.,
                               DRX = 0., DRY = 0., DRZ = 0.),
           PRE_EPSI=_F( TOUT = 'OUI',  EPX = 1.E-3,
                                    KY = 2.E-3, KZ = 3.E-3)
                    )

CH5=AFFE_CHAR_MECA(  MODELE=MO5,
          DDL_IMPO=_F(
                   NOEUD = ( 'N1',),  DX = 0.,  DY = 0.,  DZ = 0.,
                               DRX = 0., DRY = 0., DRZ = 0.),
           PRE_EPSI=_F( TOUT = 'OUI',  EPX = 1.E-3,
                                    KY = 2.E-3, KZ = 3.E-3)
                    )

#  -----------------------------------------------------------------
#  DEFINITION DES SECTIONS
#  -----------------------------------------------------------------


CELEM1=AFFE_CARA_ELEM(   MODELE=MO1,
                         VERIF=( 'MAILLE',  ),
            POUTRE=
               _F(  GROUP_MA = 'TOUT',
                    SECTION = 'GENERALE', VARI_SECT = 'HOMOTHETIQUE',
                    CARA = ( 'A1',   'IZ1',  'A2',   'IZ2',
                             'AY1',  'AZ1',  'AY2',  'AZ2',
                             'IY1',  'JX1',  'IY2',  'JX2', ),
                    VALE = (  1.,     1.,     1.,     1.,
                              1.,     1.,     1.,     1.,
                              1.,     1.,     1.,     1.,   )),
                     )

CELEM2=AFFE_CARA_ELEM(   MODELE=MO2,
                         VERIF=( 'MAILLE', ),
            POUTRE=
               _F(  GROUP_MA = 'TOUT',
                    SECTION = 'GENERALE', VARI_SECT = 'HOMOTHETIQUE',
                    CARA = ( 'A1',   'IZ1',  'A2',   'IZ2',
                             'AY1',  'AZ1',  'AY2',  'AZ2',
                             'IY1',  'JX1',  'IY2',  'JX2', ),
                    VALE = (  1.,     1.,     1.,     1.,
                              1.,     1.,     1.,     1.,
                              1.,     1.,     1.,     1.,   )),
                     )

CELEM3=AFFE_CARA_ELEM(   MODELE=MO3,
                         VERIF=( 'MAILLE',  ),
            POUTRE=
               _F(  GROUP_MA = 'TOUT',
                    SECTION = 'GENERALE', VARI_SECT = 'HOMOTHETIQUE',
                    CARA = ( 'A1',   'IZ1',  'A2',   'IZ2',
                             'AY1',  'AZ1',  'AY2',  'AZ2',
                             'IY1',  'JX1',  'IY2',  'JX2', ),
                    VALE = (  1.,     1.,     1.,     1.,
                              1.,     1.,     1.,     1.,
                              1.,     1.,     1.,     1.,   )),
                     )

CELEM4=AFFE_CARA_ELEM(   MODELE=MO4,
                         VERIF=( 'MAILLE',  ),
            POUTRE=
               _F(  GROUP_MA = 'TOUT',
                    SECTION = 'GENERALE', VARI_SECT = 'HOMOTHETIQUE',
                    CARA = ( 'A1',       'IZ1',    'A2',    'IZ2',
                             'AY1',      'AZ1',    'AY2',   'AZ2',
                             'IY1',      'JX1',    'IY2',   'JX2', ),
                    VALE = (  1.,         0.0833,     1.,     0.0833,
                              1.,         1.,         1.,     1.,
                              0.0833,     1.,     0.0833,     1.,   )),
            GEOM_FIBRE=GF,
            MULTIFIBRE=_F(GROUP_MA='TOUT',
                       GROUP_FIBRE='SEC1'),
                     )

CELEM5=AFFE_CARA_ELEM(   MODELE=MO5,
                         VERIF=( 'MAILLE',  ),
            POUTRE=
               _F(  GROUP_MA = 'TOUT',
                    SECTION = 'GENERALE', VARI_SECT = 'HOMOTHETIQUE',
                    CARA = ( 'A1',       'IZ1',    'A2',    'IZ2',
                             'AY1',      'AZ1',    'AY2',   'AZ2',
                             'IY1',      'JX1',    'IY2',   'JX2', ),
                    VALE = (  1.,         0.0833,     1.,     0.0833,
                              1.,         1.,         1.,     1.,
                              0.0833,     1.,     0.0833,     1.,   )),
            GEOM_FIBRE=GF,
            MULTIFIBRE=_F(GROUP_MA='TOUT',
                       GROUP_FIBRE='SEC1'),
                     )

# ------------------------------------------------------------------

MELR1=CALC_MATR_ELEM(  MODELE=MO1,            CHARGE=CH1,
                       CARA_ELEM=CELEM1,
                       CHAM_MATER=CHMAT,    OPTION='RIGI_MECA' )

MELR2=CALC_MATR_ELEM(  MODELE=MO2,            CHARGE=CH2,
                       CARA_ELEM=CELEM2,
                       CHAM_MATER=CHMAT,    OPTION='RIGI_MECA' )

MELR3=CALC_MATR_ELEM(  MODELE=MO3,            CHARGE=CH3,
                       CARA_ELEM=CELEM3,
                       CHAM_MATER=CHMAT,    OPTION='RIGI_MECA' )

MELR4=CALC_MATR_ELEM(  MODELE=MO4,            CHARGE=CH4,
                       CARA_ELEM=CELEM4,
                       CHAM_MATER=CHMAT,    OPTION='RIGI_MECA' )

MELR5=CALC_MATR_ELEM(  MODELE=MO5,            CHARGE=CH5,
                       CARA_ELEM=CELEM5,
                       CHAM_MATER=CHMAT,    OPTION='RIGI_MECA' )

NUM1=NUME_DDL(  MATR_RIGI=MELR1  )

NUM2=NUME_DDL(  MATR_RIGI=MELR2  )

NUM3=NUME_DDL(  MATR_RIGI=MELR3  )

NUM4=NUME_DDL(  MATR_RIGI=MELR4  )

NUM5=NUME_DDL(  MATR_RIGI=MELR5  )

MATASS1=ASSE_MATRICE(MATR_ELEM=MELR1,NUME_DDL=NUM1)

MATASS2=ASSE_MATRICE(MATR_ELEM=MELR2,NUME_DDL=NUM2)

MATASS3=ASSE_MATRICE(MATR_ELEM=MELR3,NUME_DDL=NUM3)

MATASS4=ASSE_MATRICE(MATR_ELEM=MELR4,NUME_DDL=NUM4)

MATASS5=ASSE_MATRICE(MATR_ELEM=MELR5,NUME_DDL=NUM5)

VEL1=CALC_VECT_ELEM(    CHARGE=CH1,
                              OPTION='CHAR_MECA',
                             CHAM_MATER=CHMAT,
                             CARA_ELEM=CELEM1 )

VEL2=CALC_VECT_ELEM(    CHARGE=CH2,
                              OPTION='CHAR_MECA',
                             CHAM_MATER=CHMAT,
                             CARA_ELEM=CELEM2 )

VEL3=CALC_VECT_ELEM(    CHARGE=CH3,
                              OPTION='CHAR_MECA',
                             CHAM_MATER=CHMAT,
                             CARA_ELEM=CELEM3 )

VEL4=CALC_VECT_ELEM(    CHARGE=CH4,
                              OPTION='CHAR_MECA',
                             CHAM_MATER=CHMAT,
                             CARA_ELEM=CELEM4 )

VEL5=CALC_VECT_ELEM(    CHARGE=CH5,
                              OPTION='CHAR_MECA',
                             CHAM_MATER=CHMAT,
                             CARA_ELEM=CELEM5 )

VECASS1=ASSE_VECTEUR(    VECT_ELEM=VEL1,
                              NUME_DDL=NUM1   )

VECASS2=ASSE_VECTEUR(    VECT_ELEM=VEL2,
                              NUME_DDL=NUM2   )

VECASS3=ASSE_VECTEUR(    VECT_ELEM=VEL3,
                              NUME_DDL=NUM3   )

VECASS4=ASSE_VECTEUR(    VECT_ELEM=VEL4,
                              NUME_DDL=NUM4   )

VECASS5=ASSE_VECTEUR(    VECT_ELEM=VEL5,
                              NUME_DDL=NUM5   )

MATASS1=FACTORISER( reuse=MATASS1,   MATR_ASSE=MATASS1 )

MATASS2=FACTORISER( reuse=MATASS2,   MATR_ASSE=MATASS2 )

MATASS3=FACTORISER( reuse=MATASS3,   MATR_ASSE=MATASS3 )

MATASS4=FACTORISER( reuse=MATASS4,   MATR_ASSE=MATASS4 )

MATASS5=FACTORISER( reuse=MATASS5,   MATR_ASSE=MATASS5 )

VECASS1=RESOUDRE( reuse=VECASS1,   MATR=MATASS1,
                            CHAM_NO=VECASS1  )

VECASS2=RESOUDRE( reuse=VECASS2,   MATR=MATASS2,
                            CHAM_NO=VECASS2  )

VECASS3=RESOUDRE( reuse=VECASS3,   MATR=MATASS3,
                            CHAM_NO=VECASS3  )

VECASS4=RESOUDRE( reuse=VECASS4,   MATR=MATASS4,
                            CHAM_NO=VECASS4  )

VECASS5=RESOUDRE( reuse=VECASS5,   MATR=MATASS5,
                            CHAM_NO=VECASS5  )

TEST_RESU(CHAM_NO=(_F(NOEUD='N11',
                      CRITERE='RELATIF',
                      REFERENCE='ANALYTIQUE',
                      NOM_CMP='DX',
                      PRECISION=1.0000000000000001E-09,
                      CHAM_GD=VECASS1,
                      VALE_CALC=-6.4663837861999998,
                      VALE_REFE=-6.4663837861999998,),
                   _F(NOEUD='N11',
                      CRITERE='RELATIF',
                      REFERENCE='ANALYTIQUE',
                      NOM_CMP='DY',
                      PRECISION=1.0000000000000001E-09,
                      CHAM_GD=VECASS1,
                      VALE_CALC=14.7468196494,
                      VALE_REFE=14.746819649000001,),
                   _F(NOEUD='N11',
                      CRITERE='RELATIF',
                      REFERENCE='ANALYTIQUE',
                      NOM_CMP='DZ',
                      PRECISION=1.0000000000000001E-09,
                      CHAM_GD=VECASS1,
                      VALE_CALC=-8.1072307824,
                      VALE_REFE=-8.1072307824000003,),
                   _F(NOEUD='N11',
                      CRITERE='RELATIF',
                      REFERENCE='ANALYTIQUE',
                      NOM_CMP='DRX',
                      PRECISION=1.0000000000000001E-09,
                      CHAM_GD=VECASS1,
                      VALE_CALC=-0.2638958434,
                      VALE_REFE=-0.26389584337999999,),
                   _F(NOEUD='N11',
                      CRITERE='RELATIF',
                      REFERENCE='ANALYTIQUE',
                      NOM_CMP='DRY',
                      PRECISION=5.0000000000000001E-09,
                      CHAM_GD=VECASS1,
                      VALE_CALC=0.018946869098389,
                      VALE_REFE=0.018946869097999999,),
                   _F(NOEUD='N11',
                      CRITERE='RELATIF',
                      REFERENCE='ANALYTIQUE',
                      NOM_CMP='DRZ',
                      PRECISION=1.0000000000000001E-09,
                      CHAM_GD=VECASS1,
                      VALE_CALC=0.2449489743,
                      VALE_REFE=0.24494897428000001,),
                   _F(NOEUD='N6',
                      CRITERE='RELATIF',
                      REFERENCE='ANALYTIQUE',
                      NOM_CMP='DX',
                      PRECISION=1.0000000000000001E-09,
                      CHAM_GD=VECASS1,
                      VALE_CALC=-1.6021621898,
                      VALE_REFE=-1.6021621898,),
                   _F(NOEUD='N6',
                      CRITERE='RELATIF',
                      REFERENCE='ANALYTIQUE',
                      NOM_CMP='DY',
                      PRECISION=1.0000000000000001E-09,
                      CHAM_GD=VECASS1,
                      VALE_CALC=3.7011386690,
                      VALE_REFE=3.7011386691000001,),
                   _F(NOEUD='N6',
                      CRITERE='RELATIF',
                      REFERENCE='ANALYTIQUE',
                      NOM_CMP='DZ',
                      PRECISION=1.0000000000000001E-09,
                      CHAM_GD=VECASS1,
                      VALE_CALC=-2.0123739388,
                      VALE_REFE=-2.0123739389000002,),
                   _F(NOEUD='N6',
                      CRITERE='RELATIF',
                      REFERENCE='ANALYTIQUE',
                      NOM_CMP='DRX',
                      PRECISION=1.0000000000000001E-09,
                      CHAM_GD=VECASS1,
                      VALE_CALC=-0.1319479217,
                      VALE_REFE=-0.13194792169,),
                   _F(NOEUD='N6',
                      CRITERE='RELATIF',
                      REFERENCE='ANALYTIQUE',
                      NOM_CMP='DRY',
                      PRECISION=5.0000000000000001E-09,
                      CHAM_GD=VECASS1,
                      VALE_CALC= 9.47343455E-03,
                      VALE_REFE=9.4734345490999992E-3,),
                   _F(NOEUD='N6',
                      CRITERE='RELATIF',
                      REFERENCE='ANALYTIQUE',
                      NOM_CMP='DRZ',
                      PRECISION=1.0000000000000001E-09,
                      CHAM_GD=VECASS1,
                      VALE_CALC=0.1224744871,
                      VALE_REFE=0.12247448714,),
                   _F(NOEUD='N11',
                      CRITERE='RELATIF',
                      REFERENCE='ANALYTIQUE',
                      NOM_CMP='DX',
                      PRECISION=1.0000000000000001E-09,
                      CHAM_GD=VECASS2,
                      VALE_CALC=-6.4663837862,
                      VALE_REFE=-6.4663837861999998,),
                   _F(NOEUD='N11',
                      CRITERE='RELATIF',
                      REFERENCE='ANALYTIQUE',
                      NOM_CMP='DY',
                      PRECISION=1.0000000000000001E-09,
                      CHAM_GD=VECASS2,
                      VALE_CALC=14.7468196494,
                      VALE_REFE=14.746819649000001,),
                   _F(NOEUD='N11',
                      CRITERE='RELATIF',
                      REFERENCE='ANALYTIQUE',
                      NOM_CMP='DZ',
                      PRECISION=1.0000000000000001E-09,
                      CHAM_GD=VECASS2,
                      VALE_CALC=-8.1072307824,
                      VALE_REFE=-8.1072307824000003,),
                   _F(NOEUD='N11',
                      CRITERE='RELATIF',
                      REFERENCE='ANALYTIQUE',
                      NOM_CMP='DRX',
                      PRECISION=1.0000000000000001E-09,
                      CHAM_GD=VECASS2,
                      VALE_CALC=-0.2638958434,
                      VALE_REFE=-0.26389584337999999,),
                   _F(NOEUD='N11',
                      CRITERE='RELATIF',
                      REFERENCE='ANALYTIQUE',
                      NOM_CMP='DRY',
                      PRECISION=5.0000000000000001E-09,
                      CHAM_GD=VECASS2,
                      VALE_CALC=0.018946869098212,
                      VALE_REFE=0.018946869097999999,),
                   _F(NOEUD='N11',
                      CRITERE='RELATIF',
                      REFERENCE='ANALYTIQUE',
                      NOM_CMP='DRZ',
                      PRECISION=1.0000000000000001E-09,
                      CHAM_GD=VECASS2,
                      VALE_CALC=0.2449489743,
                      VALE_REFE=0.24494897428000001,),
                   _F(NOEUD='N6',
                      CRITERE='RELATIF',
                      REFERENCE='ANALYTIQUE',
                      NOM_CMP='DX',
                      PRECISION=1.0000000000000001E-09,
                      CHAM_GD=VECASS2,
                      VALE_CALC=-1.6021621898,
                      VALE_REFE=-1.6021621898,),
                   _F(NOEUD='N6',
                      CRITERE='RELATIF',
                      REFERENCE='ANALYTIQUE',
                      NOM_CMP='DY',
                      PRECISION=1.0000000000000001E-09,
                      CHAM_GD=VECASS2,
                      VALE_CALC=3.7011386689,
                      VALE_REFE=3.7011386691000001,),
                   _F(NOEUD='N6',
                      CRITERE='RELATIF',
                      REFERENCE='ANALYTIQUE',
                      NOM_CMP='DZ',
                      PRECISION=1.0000000000000001E-09,
                      CHAM_GD=VECASS2,
                      VALE_CALC=-2.0123739388,
                      VALE_REFE=-2.0123739389000002,),
                   _F(NOEUD='N6',
                      CRITERE='RELATIF',
                      REFERENCE='ANALYTIQUE',
                      NOM_CMP='DRX',
                      PRECISION=1.0000000000000001E-09,
                      CHAM_GD=VECASS2,
                      VALE_CALC=-0.1319479217,
                      VALE_REFE=-0.13194792169,),
                   _F(NOEUD='N6',
                      CRITERE='RELATIF',
                      REFERENCE='ANALYTIQUE',
                      NOM_CMP='DRY',
                      PRECISION=5.0000000000000001E-09,
                      CHAM_GD=VECASS2,
                      VALE_CALC= 9.47343455E-03,
                      VALE_REFE=9.4734345490999992E-3,),
                   _F(NOEUD='N6',
                      CRITERE='RELATIF',
                      REFERENCE='ANALYTIQUE',
                      NOM_CMP='DRZ',
                      PRECISION=1.0000000000000001E-09,
                      CHAM_GD=VECASS2,
                      VALE_CALC=0.1224744871,
                      VALE_REFE=0.12247448714,),
                   _F(NOEUD='N11',
                      CRITERE='RELATIF',
                      REFERENCE='ANALYTIQUE',
                      NOM_CMP='DX',
                      PRECISION=1.0000000000000001E-09,
                      CHAM_GD=VECASS3,
                      VALE_CALC=-6.4663837863,
                      VALE_REFE=-6.4663837861999998,),
                   _F(NOEUD='N11',
                      CRITERE='RELATIF',
                      REFERENCE='ANALYTIQUE',
                      NOM_CMP='DY',
                      PRECISION=1.0000000000000001E-09,
                      CHAM_GD=VECASS3,
                      VALE_CALC=14.7468196494,
                      VALE_REFE=14.746819649000001,),
                   _F(NOEUD='N11',
                      CRITERE='RELATIF',
                      REFERENCE='ANALYTIQUE',
                      NOM_CMP='DZ',
                      PRECISION=1.0000000000000001E-09,
                      CHAM_GD=VECASS3,
                      VALE_CALC=-8.1072307823,
                      VALE_REFE=-8.1072307824000003,),
                   _F(NOEUD='N11',
                      CRITERE='RELATIF',
                      REFERENCE='ANALYTIQUE',
                      NOM_CMP='DRX',
                      PRECISION=1.0000000000000001E-09,
                      CHAM_GD=VECASS3,
                      VALE_CALC=-0.2638958434,
                      VALE_REFE=-0.26389584337999999,),
                   _F(NOEUD='N11',
                      CRITERE='RELATIF',
                      REFERENCE='ANALYTIQUE',
                      NOM_CMP='DRY',
                      PRECISION=5.0000000000000001E-09,
                      CHAM_GD=VECASS3,
                      VALE_CALC=0.018946869097875,
                      VALE_REFE=0.018946869097999999,),
                   _F(NOEUD='N11',
                      CRITERE='RELATIF',
                      REFERENCE='ANALYTIQUE',
                      NOM_CMP='DRZ',
                      PRECISION=1.0000000000000001E-09,
                      CHAM_GD=VECASS3,
                      VALE_CALC=0.2449489743,
                      VALE_REFE=0.24494897428000001,),
                   _F(NOEUD='N6',
                      CRITERE='RELATIF',
                      REFERENCE='ANALYTIQUE',
                      NOM_CMP='DX',
                      PRECISION=1.0000000000000001E-09,
                      CHAM_GD=VECASS3,
                      VALE_CALC=-1.6021621898,
                      VALE_REFE=-1.6021621898,),
                   _F(NOEUD='N6',
                      CRITERE='RELATIF',
                      REFERENCE='ANALYTIQUE',
                      NOM_CMP='DY',
                      PRECISION=1.0000000000000001E-09,
                      CHAM_GD=VECASS3,
                      VALE_CALC=3.7011386689,
                      VALE_REFE=3.7011386691000001,),
                   _F(NOEUD='N6',
                      CRITERE='RELATIF',
                      REFERENCE='ANALYTIQUE',
                      NOM_CMP='DZ',
                      PRECISION=1.0000000000000001E-09,
                      CHAM_GD=VECASS3,
                      VALE_CALC=-2.0123739388,
                      VALE_REFE=-2.0123739389000002,),
                   _F(NOEUD='N6',
                      CRITERE='RELATIF',
                      REFERENCE='ANALYTIQUE',
                      NOM_CMP='DRX',
                      PRECISION=1.0000000000000001E-09,
                      CHAM_GD=VECASS3,
                      VALE_CALC=-0.1319479217,
                      VALE_REFE=-0.13194792169,),
                   _F(NOEUD='N6',
                      CRITERE='RELATIF',
                      REFERENCE='ANALYTIQUE',
                      NOM_CMP='DRY',
                      PRECISION=5.0000000000000001E-09,
                      CHAM_GD=VECASS3,
                      VALE_CALC= 9.47343455E-03,
                      VALE_REFE=9.4734345490999992E-3,),
                   _F(NOEUD='N6',
                      CRITERE='RELATIF',
                      REFERENCE='ANALYTIQUE',
                      NOM_CMP='DRZ',
                      PRECISION=1.0000000000000001E-09,
                      CHAM_GD=VECASS3,
                      VALE_CALC=0.1224744871,
                      VALE_REFE=0.12247448714,),
                   _F(NOEUD='N11',
                      CRITERE='RELATIF',
                      REFERENCE='ANALYTIQUE',
                      NOM_CMP='DX',
                      PRECISION=1.E-08,
                      CHAM_GD=VECASS4,
                      VALE_CALC=-6.466383758,
                      VALE_REFE=-6.4663837861999998,),
                   _F(NOEUD='N11',
                      CRITERE='RELATIF',
                      REFERENCE='ANALYTIQUE',
                      NOM_CMP='DY',
                      PRECISION=4.9999999999999998E-08,
                      CHAM_GD=VECASS4,
                      VALE_CALC=14.746819259,
                      VALE_REFE=14.746819649000001,),
                   _F(NOEUD='N11',
                      CRITERE='RELATIF',
                      REFERENCE='ANALYTIQUE',
                      NOM_CMP='DZ',
                      PRECISION=9.9999999999999995E-08,
                      CHAM_GD=VECASS4,
                      VALE_CALC=-8.107230420,
                      VALE_REFE=-8.1072307824000003,),
                   _F(NOEUD='N11',
                      CRITERE='RELATIF',
                      REFERENCE='ANALYTIQUE',
                      NOM_CMP='DRX',
                      PRECISION=4.9999999999999998E-08,
                      CHAM_GD=VECASS4,
                      VALE_CALC=-0.263895835,
                      VALE_REFE=-0.26389584337999999,),
                   _F(NOEUD='N11',
                      CRITERE='RELATIF',
                      REFERENCE='ANALYTIQUE',
                      NOM_CMP='DRY',
                      PRECISION=4.9999999999999998E-07,
                      CHAM_GD=VECASS4,
                      VALE_CALC=0.018946865238637,
                      VALE_REFE=0.018946869097999999,),
                   _F(NOEUD='N11',
                      CRITERE='RELATIF',
                      REFERENCE='ANALYTIQUE',
                      NOM_CMP='DRZ',
                      PRECISION=4.9999999999999998E-08,
                      CHAM_GD=VECASS4,
                      VALE_CALC=0.244948969,
                      VALE_REFE=0.24494897428000001,),
                   _F(NOEUD='N6',
                      CRITERE='RELATIF',
                      REFERENCE='ANALYTIQUE',
                      NOM_CMP='DX',
                      PRECISION=1.E-08,
                      CHAM_GD=VECASS4,
                      VALE_CALC=-1.602162183,
                      VALE_REFE=-1.6021621898,),
                   _F(NOEUD='N6',
                      CRITERE='RELATIF',
                      REFERENCE='ANALYTIQUE',
                      NOM_CMP='DY',
                      PRECISION=9.9999999999999995E-08,
                      CHAM_GD=VECASS4,
                      VALE_CALC=3.701138571,
                      VALE_REFE=3.7011386691000001,),
                   _F(NOEUD='N6',
                      CRITERE='RELATIF',
                      REFERENCE='ANALYTIQUE',
                      NOM_CMP='DZ',
                      PRECISION=9.9999999999999995E-08,
                      CHAM_GD=VECASS4,
                      VALE_CALC=-2.012373848,
                      VALE_REFE=-2.0123739389000002,),
                   _F(NOEUD='N6',
                      CRITERE='RELATIF',
                      REFERENCE='ANALYTIQUE',
                      NOM_CMP='DRX',
                      PRECISION=9.9999999999999995E-08,
                      CHAM_GD=VECASS4,
                      VALE_CALC=-0.131947917,
                      VALE_REFE=-0.13194792169,),
                   _F(NOEUD='N6',
                      CRITERE='RELATIF',
                      REFERENCE='ANALYTIQUE',
                      NOM_CMP='DRY',
                      PRECISION=4.9999999999999998E-07,
                      CHAM_GD=VECASS4,
                      VALE_CALC= 9.47343262E-03,
                      VALE_REFE=9.4734345490999992E-3,),
                   _F(NOEUD='N6',
                      CRITERE='RELATIF',
                      REFERENCE='ANALYTIQUE',
                      NOM_CMP='DRZ',
                      PRECISION=9.9999999999999995E-08,
                      CHAM_GD=VECASS4,
                      VALE_CALC=0.122474485,
                      VALE_REFE=0.12247448714,),
                   _F(NOEUD='N11',
                      CRITERE='RELATIF',
                      REFERENCE='ANALYTIQUE',
                      NOM_CMP='DX',
                      PRECISION=1.E-08,
                      CHAM_GD=VECASS5,
                      VALE_CALC=-6.466383758,
                      VALE_REFE=-6.4663837861999998,),
                   _F(NOEUD='N11',
                      CRITERE='RELATIF',
                      REFERENCE='ANALYTIQUE',
                      NOM_CMP='DY',
                      PRECISION=4.9999999999999998E-08,
                      CHAM_GD=VECASS5,
                      VALE_CALC=14.746819259,
                      VALE_REFE=14.746819649000001,),
                   _F(NOEUD='N11',
                      CRITERE='RELATIF',
                      REFERENCE='ANALYTIQUE',
                      NOM_CMP='DZ',
                      PRECISION=9.9999999999999995E-08,
                      CHAM_GD=VECASS5,
                      VALE_CALC=-8.107230420,
                      VALE_REFE=-8.1072307824000003,),
                   _F(NOEUD='N11',
                      CRITERE='RELATIF',
                      REFERENCE='ANALYTIQUE',
                      NOM_CMP='DRX',
                      PRECISION=4.9999999999999998E-08,
                      CHAM_GD=VECASS5,
                      VALE_CALC=-0.263895835,
                      VALE_REFE=-0.26389584337999999,),
                   _F(NOEUD='N11',
                      CRITERE='RELATIF',
                      REFERENCE='ANALYTIQUE',
                      NOM_CMP='DRY',
                      PRECISION=4.9999999999999998E-07,
                      CHAM_GD=VECASS5,
                      VALE_CALC=0.018946865238637,
                      VALE_REFE=0.018946869097999999,),
                   _F(NOEUD='N11',
                      CRITERE='RELATIF',
                      REFERENCE='ANALYTIQUE',
                      NOM_CMP='DRZ',
                      PRECISION=4.9999999999999998E-08,
                      CHAM_GD=VECASS5,
                      VALE_CALC=0.244948969,
                      VALE_REFE=0.24494897428000001,),
                   _F(NOEUD='N6',
                      CRITERE='RELATIF',
                      REFERENCE='ANALYTIQUE',
                      NOM_CMP='DX',
                      PRECISION=1.E-08,
                      CHAM_GD=VECASS5,
                      VALE_CALC=-1.602162183,
                      VALE_REFE=-1.6021621898,),
                   _F(NOEUD='N6',
                      CRITERE='RELATIF',
                      REFERENCE='ANALYTIQUE',
                      NOM_CMP='DY',
                      PRECISION=9.9999999999999995E-08,
                      CHAM_GD=VECASS5,
                      VALE_CALC=3.701138571,
                      VALE_REFE=3.7011386691000001,),
                   _F(NOEUD='N6',
                      CRITERE='RELATIF',
                      REFERENCE='ANALYTIQUE',
                      NOM_CMP='DZ',
                      PRECISION=9.9999999999999995E-08,
                      CHAM_GD=VECASS5,
                      VALE_CALC=-2.012373848,
                      VALE_REFE=-2.0123739389000002,),
                   _F(NOEUD='N6',
                      CRITERE='RELATIF',
                      REFERENCE='ANALYTIQUE',
                      NOM_CMP='DRX',
                      PRECISION=9.9999999999999995E-08,
                      CHAM_GD=VECASS5,
                      VALE_CALC=-0.131947917,
                      VALE_REFE=-0.13194792169,),
                   _F(NOEUD='N6',
                      CRITERE='RELATIF',
                      REFERENCE='ANALYTIQUE',
                      NOM_CMP='DRY',
                      PRECISION=4.9999999999999998E-07,
                      CHAM_GD=VECASS5,
                      VALE_CALC= 9.47343262E-03,
                      VALE_REFE=9.4734345490999992E-3,),
                   _F(NOEUD='N6',
                      CRITERE='RELATIF',
                      REFERENCE='ANALYTIQUE',
                      NOM_CMP='DRZ',
                      PRECISION=9.9999999999999995E-08,
                      CHAM_GD=VECASS5,
                      VALE_CALC=0.122474485,
                      VALE_REFE=0.12247448714,),
                   ),
          )

# -------------------------------------------------------------------

FIN()
#
