# MODIF  DATE 30/07/2012   AUTEUR LEFEBVRE J-P.LEFEBVRE 
# TITRE VALIDATION DE POST_ELEM MOT CLE FACTEUR CARA_GEOM
# ssll107a.para = tps_job 60 mem_job 256Mo ncpus 1 liste_test R
#            CONFIGURATION MANAGEMENT OF EDF VERSION
# ======================================================================
# COPYRIGHT (C) 1991 - 2012  EDF R&D                  WWW.CODE-ASTER.ORG
# THIS PROGRAM IS FREE SOFTWARE; YOU CAN REDISTRIBUTE IT AND/OR MODIFY
# IT UNDER THE TERMS OF THE GNU GENERAL PUBLIC LICENSE AS PUBLISHED BY
# THE FREE SOFTWARE FOUNDATION; EITHER VERSION 2 OF THE LICENSE, OR
# (AT YOUR OPTION) ANY LATER VERSION.
#
# THIS PROGRAM IS DISTRIBUTED IN THE HOPE THAT IT WILL BE USEFUL, BUT
# WITHOUT ANY WARRANTY; WITHOUT EVEN THE IMPLIED WARRANTY OF
# MERCHANTABILITY OR FITNESS FOR A PARTICULAR PURPOSE. SEE THE GNU
# GENERAL PUBLIC LICENSE FOR MORE DETAILS.
#
# YOU SHOULD HAVE RECEIVED A COPY OF THE GNU GENERAL PUBLIC LICENSE
# ALONG WITH THIS PROGRAM; IF NOT, WRITE TO EDF R&D CODE_ASTER,
#    1 AVENUE DU GENERAL DE GAULLE, 92141 CLAMART CEDEX, FRANCE.
# ======================================================================

DEBUT(CODE=_F(NOM='SSLL107A',NIV_PUB_WEB='INTERNET'),DEBUG=_F(SDVERI='NON'))

TCARA=MACR_CARA_POUTRE(   FORMAT='MED',GROUP_MA_BORD='LSURF',
   # UNIQUEMENT POUR NE PAS AVOIR DE MATRICE SINGULIERE:
                               GROUP_NO='P1',INFO=2, )

IMPR_TABLE(     TABLE=TCARA, )

TEST_TABLE(     TABLE=TCARA,
                  FILTRE=_F(  NOM_PARA = 'LIEU',
                           VALE_K = '.9000002'),
                NOM_PARA='A_M',
                    REFERENCE='NON_REGRESSION',VERSION='6.3.22',VALE=7.39E-04          )

TEST_TABLE(     TABLE=TCARA,
                  FILTRE=_F(  NOM_PARA = 'LIEU',
                           VALE_K = '.9000002'),
                NOM_PARA='CDG_Y_M',
                PRECISION=0.0015,
                    REFERENCE='NON_REGRESSION',VERSION='6.3.22',VALE=1.53E-02      )

TEST_TABLE(     TABLE=TCARA,
                  FILTRE=_F(  NOM_PARA = 'LIEU',
                           VALE_K = '.9000002'),
                NOM_PARA='CDG_Z_M',
                PRECISION=0.0015,
                    REFERENCE='NON_REGRESSION',VERSION='6.3.22',VALE=1.53E-02      )

TEST_TABLE(     TABLE=TCARA,
                  FILTRE=_F(  NOM_PARA = 'LIEU',
                           VALE_K = '.9000002'),
                NOM_PARA='IY_G_M',
                PRECISION=0.0040,
                    REFERENCE='NON_REGRESSION',VERSION='6.3.22',VALE=1.64E-07      )

TEST_TABLE(     TABLE=TCARA,
                  FILTRE=_F(  NOM_PARA = 'LIEU',
                           VALE_K = '.9000002'),
                NOM_PARA='IZ_G_M',
                PRECISION=0.0040,
                    REFERENCE='NON_REGRESSION',VERSION='6.3.22',VALE=1.64E-07      )

TEST_TABLE(     TABLE=TCARA,
                  FILTRE=_F(  NOM_PARA = 'LIEU',
                            VALE_K = '.9000002'),
                NOM_PARA='IYZ_G_M',
                    REFERENCE='NON_REGRESSION',VERSION='6.3.22',VALE=-9.50E-08     )

TEST_TABLE(     TABLE=TCARA,
                  FILTRE=_F(  NOM_PARA = 'LIEU',
                           VALE_K = '.9000002'),
                NOM_PARA='A',
                    REFERENCE='NON_REGRESSION',VERSION='6.3.22',VALE=7.39E-04      )

TEST_TABLE(     TABLE=TCARA,
                  FILTRE=_F(  NOM_PARA = 'LIEU',
                           VALE_K = '.9000002'),
                NOM_PARA='CDG_Y',
                PRECISION=0.0015,
                    REFERENCE='NON_REGRESSION',VERSION='6.3.22',VALE=1.53E-02      )

TEST_TABLE(     TABLE=TCARA,
                  FILTRE=_F(  NOM_PARA = 'LIEU',
                           VALE_K = '.9000002'),
                NOM_PARA='CDG_Z',
                PRECISION=0.0015,
                    REFERENCE='NON_REGRESSION',VERSION='6.3.22',VALE=1.53E-02      )

TEST_TABLE(     TABLE=TCARA,
                  FILTRE=_F(  NOM_PARA = 'LIEU',
                           VALE_K = '.9000002'),
                NOM_PARA='IY_G',
                PRECISION=0.0040,
                    REFERENCE='NON_REGRESSION',VERSION='6.3.22',VALE=1.64E-07      )

TEST_TABLE(     TABLE=TCARA,
                  FILTRE=_F(  NOM_PARA = 'LIEU',
                           VALE_K = '.9000002'),
                NOM_PARA='IZ_G',
                PRECISION=0.0040,
                    REFERENCE='NON_REGRESSION',VERSION='6.3.22',VALE=1.64E-07      )

TEST_TABLE(     TABLE=TCARA,
                  FILTRE=_F(  NOM_PARA = 'LIEU',
                           VALE_K = '.9000002'),
                NOM_PARA='IYZ_G',
                    REFERENCE='NON_REGRESSION',VERSION='6.3.22',VALE=-9.50E-08     )

TEST_TABLE(     TABLE=TCARA,
                  FILTRE=_F(  NOM_PARA = 'LIEU',
                           VALE_K = '.9000002'),
                NOM_PARA='IY',
                PRECISION=0.0040,
                    REFERENCE='NON_REGRESSION',VERSION='6.3.22',VALE=6.95E-08      )

TEST_TABLE(     TABLE=TCARA,
                  FILTRE=_F(  NOM_PARA = 'LIEU',
                           VALE_K = '.9000002'),
                NOM_PARA='IZ',
                PRECISION=0.0040,
                    REFERENCE='NON_REGRESSION',VERSION='6.3.22',VALE=2.60E-07      )

TEST_TABLE(     TABLE=TCARA,
                  FILTRE=_F(  NOM_PARA = 'LIEU',
                           VALE_K = '.9000002'),
                NOM_PARA='ALPHA',
                    REFERENCE='NON_REGRESSION',VERSION='6.3.22',VALE=135.           )

TEST_TABLE(     TABLE=TCARA,
                  FILTRE=_F(  NOM_PARA = 'LIEU',
                           VALE_K = '.9000002'),
                NOM_PARA='Y_MIN',
                    REFERENCE='NON_REGRESSION',VERSION='6.3.22',VALE=-3.536E-02    )

TEST_TABLE(     TABLE=TCARA,
                  FILTRE=_F(  NOM_PARA = 'LIEU',
                           VALE_K = '.9000002'),
                NOM_PARA='Y_MAX',
                     REFERENCE='NON_REGRESSION',VERSION='6.3.22',VALE=3.536E-02    )

TEST_TABLE(     TABLE=TCARA,
                  FILTRE=_F(  NOM_PARA = 'LIEU',
                           VALE_K = '.9000002'),
                NOM_PARA='Z_MIN',
                    REFERENCE='NON_REGRESSION',VERSION='6.3.22',VALE=-1.831E-02    )

TEST_TABLE(     TABLE=TCARA,
                  FILTRE=_F(  NOM_PARA = 'LIEU',
                           VALE_K = '.9000002'),
                NOM_PARA='Z_MAX',
                     REFERENCE='NON_REGRESSION',VERSION='6.3.22',VALE=2.166E-02    )

TEST_TABLE(     TABLE=TCARA,
                  FILTRE=_F(  NOM_PARA = 'LIEU',
                           VALE_K = '.9000002'),
                NOM_PARA='R_MAX',
                     REFERENCE='NON_REGRESSION',VERSION='6.3.22',VALE=3.792E-02    )

TEST_TABLE(     TABLE=TCARA,
                  FILTRE=_F(  NOM_PARA = 'LIEU',
                           VALE_K = '.9000002'),
                NOM_PARA='JX',
                PRECISION=0.12,
                     REFERENCE='NON_REGRESSION',VERSION='6.3.22',VALE=1.4336E-8    )

TEST_TABLE(     TABLE=TCARA,
                  FILTRE=_F(  NOM_PARA = 'LIEU',
                           VALE_K = '.9000002'),
                NOM_PARA='EY',
                 CRITERE='ABSOLU',
                     REFERENCE='NON_REGRESSION',VERSION='6.3.22',VALE=0.           )

TEST_TABLE(     TABLE=TCARA,
                  FILTRE=_F(  NOM_PARA = 'LIEU',
                           VALE_K = '.9000002'),
                NOM_PARA='EZ',
                 CRITERE='ABSOLU',
                     REFERENCE='NON_REGRESSION',VERSION='6.3.22',VALE=-1.6003E-2    )

TEST_TABLE(     TABLE=TCARA,
                  FILTRE=_F(  NOM_PARA = 'LIEU',
                           VALE_K = '.9000002'),
                NOM_PARA='PCTY',
                 CRITERE='ABSOLU',
                     REFERENCE='NON_REGRESSION',VERSION='6.3.22',VALE=-0.004        )

TEST_TABLE(     TABLE=TCARA,
                  FILTRE=_F(  NOM_PARA = 'LIEU',
                           VALE_K = '.9000002'),
                NOM_PARA='PCTZ',
                 CRITERE='ABSOLU',
                     REFERENCE='NON_REGRESSION',VERSION='6.3.22',VALE=-0.004        )

TEST_TABLE(     TABLE=TCARA,
                  FILTRE=_F(  NOM_PARA = 'LIEU',
                           VALE_K = '.9000002'),
                REFERENCE='ANALYTIQUE',
                NOM_PARA='IYR2_P',
                PRECISION=0.014,
                VALE=1.4084E-8        )

TEST_TABLE(     TABLE=TCARA,
                  FILTRE=_F(  NOM_PARA = 'LIEU',
                           VALE_K = '.9000002'),
                REFERENCE='ANALYTIQUE',
                NOM_PARA='IZR2_P',
                PRECISION=0.014,
                VALE=1.4084E-8        )

TEST_TABLE(     TABLE=TCARA,
                  FILTRE=_F(  NOM_PARA = 'LIEU',
                           VALE_K = '.9000002'),
                NOM_PARA='RY',
                REFERENCE='NON_REGRESSION',VERSION='6.3.22',VALE=3.536E-02    )

TEST_TABLE(     TABLE=TCARA,
                  FILTRE=_F(  NOM_PARA = 'LIEU',
                           VALE_K = '.9000002'),
                NOM_PARA='RZ',
                REFERENCE='NON_REGRESSION',VERSION='6.3.22',VALE=2.166E-02    )

FIN( )
#
