# TITRE PROBLEME DE HOVGAARD : CALCUL DES EFFORTS POU_C_T + POU_D_T
# ======================================================================
# COPYRIGHT (C) 1991 - 2012  EDF R&D                  WWW.CODE-ASTER.ORG
# THIS PROGRAM IS FREE SOFTWARE; YOU CAN REDISTRIBUTE IT AND/OR MODIFY
# IT UNDER THE TERMS OF THE GNU GENERAL PUBLIC LICENSE AS PUBLISHED BY
# THE FREE SOFTWARE FOUNDATION; EITHER VERSION 2 OF THE LICENSE, OR
# (AT YOUR OPTION) ANY LATER VERSION.
#
# THIS PROGRAM IS DISTRIBUTED IN THE HOPE THAT IT WILL BE USEFUL, BUT
# WITHOUT ANY WARRANTY; WITHOUT EVEN THE IMPLIED WARRANTY OF
# MERCHANTABILITY OR FITNESS FOR A PARTICULAR PURPOSE. SEE THE GNU
# GENERAL PUBLIC LICENSE FOR MORE DETAILS.
#
# YOU SHOULD HAVE RECEIVED A COPY OF THE GNU GENERAL PUBLIC LICENSE
# ALONG WITH THIS PROGRAM; IF NOT, WRITE TO EDF R&D CODE_ASTER,
#    1 AVENUE DU GENERAL DE GAULLE, 92141 CLAMART CEDEX, FRANCE.
# ======================================================================
#       VALIDATION : COMPORTEMENT=_F(RELATION='ELAS',),

DEBUT(CODE=_F(NOM='SSLL101F',NIV_PUB_WEB='INTERNET'),DEBUG=_F(SDVERI='OUI'),)

#
MAILLAGE=LIRE_MAILLAGE(FORMAT='MED',VERI_MAIL=_F(APLAT=0.0,VERIF='OUI'))

MODELE=AFFE_MODELE(  MAILLAGE=MAILLAGE,AFFE=(
                      _F(  GROUP_MA = 'POU_D_T',PHENOMENE = 'MECANIQUE',
                             MODELISATION = 'POU_D_T'),
                      _F(  GROUP_MA = 'POU_C_T',PHENOMENE = 'MECANIQUE',
                             MODELISATION = 'POU_C_T'),
                      _F(  GROUP_MA = ('APA','APB'),PHENOMENE = 'MECANIQUE',
                             MODELISATION = 'DIS_TR',),),
                  )

#
# ----------------------------------------------------------------------
#  DEFINITION DES MATERIAUX
MAT_1=DEFI_MATERIAU(  ELAS=_F(
                         E = 1.658000000E+11,NU = 3.000000000E-01,
                         RHO = 1.340410000E+04,ALPHA = 1.288000000E-05) )

#

CHAMPMAT=AFFE_MATERIAU(   MAILLAGE=MAILLAGE,
                     AFFE=_F(  GROUP_MA = 'MAT_1',    MATER = MAT_1) )

#
# ----------------------------------------------------------------------
#       CONDITIONS LIMITES

CON_LIM=AFFE_CHAR_MECA( MODELE=MODELE,
                        DDL_IMPO=_F(  GROUP_NO = 'ENCASTRE',
                              DX = 0., DY = 0., DZ = 0.,
                              DRX = 0., DRY = 0., DRZ = 0.)
                  )

#

# ---------- AFFECTATION DES CARACTERISTIQUES ELEMENTAIRES ----------
grd = 1.0E+12
CARA_ELE=AFFE_CARA_ELEM( MODELE=MODELE,
#
       POUTRE=(
          _F(  GROUP_MA = 'SEC_1',
             SECTION = 'GENERALE',
              CARA = ('A', 'IZ', 'IY', 'AY', 'AZ', 'JX',
                      'EZ', 'EY', 'RY', 'RZ', 'RT', ),
              VALE = ( 3.439000000E-03, 1.377000000E-05, 1.377000000E-05,
                      2.000000000E+00, 2.000000000E+00, 2.754000000E-05,
                      0.000000000E+00, 0.000000000E+00, 1.000000000E+00,
                      1.000000000E+00, 1.000000000E+00, )),
          _F(  GROUP_MA = 'SEC_2',   SECTION = 'GENERALE',
             CARA = ('A', 'IZ', 'IY', 'AY', 'AZ', 'JX',
                      'EZ', 'EY', 'RY', 'RZ', 'RT', ),
               VALE = ( 3.439000000E-03, 5.887000000E-06, 5.887000000E-06,
                      2.000000000E+00, 2.000000000E+00, 2.754000000E-05,
                      0.000000000E+00, 0.000000000E+00, 1.000000000E+00,
                      1.000000000E+00, 1.000000000E+00, )),
      ),
      DISCRET=(_F(GROUP_MA=('APA','APB'),CARA='K_TR_D_L',VALE=(grd,grd,grd,grd,grd,grd),),
               _F(GROUP_MA=('APA','APB'),CARA='M_TR_L',VALE=(0.,0.,0.,0.,0.,0.,0.,0.,0.,0.,0.,0.,0.,0.,0.,0.,0.,0.,0.,0.,
                                                                       0.,0.,0.,0.,0.,0.,0.,0.,0.,0.,0.,0.,0.,0.,0.,0.,0.,0.,0.,0.,
                                                                0.,0.,0.,0.,0.,0.,0.,0.,0.,0.,0.,0.,0.,0.,0.,0.,0.,0.,0.,0.,
                                                                0.,0.,0.,0.,0.,0.,0.,0.,0.,0.,0.,0.,0.,0.,0.,0.,0.,0.,),),),
      ORIENTATION=(
         _F(GROUP_MA='APA', CARA='ANGL_NAUT',VALE=( 0.0, -90.0, 0.0),),
         _F(GROUP_MA='APB', CARA='ANGL_NAUT',VALE=( 0.0,   0.0, 0.0),),
      ),
      DEFI_ARC=(
         _F( MAILLE = ('E9', 'E10',),
             POIN_TANG = (0.,     0.,     0.), ),
         _F( MAILLE = ('E3','E4',),
             CENTRE = (0., -1.828, -0.922),), )
)

# ----------------------------------------------------------------------
# CALCUL STATIQUE

#CHARGEMENT 1
CH1=AFFE_CHAR_MECA( MODELE=MODELE, PESANTEUR=_F(GRAVITE=-9.81,
                                                DIRECTION=(0., 0., 1.,), ),)


#CHARGEMENT 2
TEMPER0=CREA_CHAMP( OPERATION='AFFE', TYPE_CHAM='NOEU_TEMP_R',
MAILLAGE=MAILLAGE,AFFE=(
       _F( NOEUD = 'N100',    NOM_CMP = 'TEMP',VALE = 0.),
       _F( NOEUD = 'N200',    NOM_CMP = 'TEMP',VALE = 0.),
       _F( NOEUD = 'N200',    NOM_CMP = 'TEMP',VALE = 0.),
       _F( NOEUD = 'N300',    NOM_CMP = 'TEMP',VALE = 0.),
       _F( NOEUD = 'N500',    NOM_CMP = 'TEMP',VALE = 0.),
       _F( NOEUD = 'N600',    NOM_CMP = 'TEMP',VALE = 0.),
       _F( NOEUD = 'N600',    NOM_CMP = 'TEMP',VALE = 0.),
       _F( NOEUD = 'N700',    NOM_CMP = 'TEMP',VALE = 0.),
       _F( NOEUD = 'N700',    NOM_CMP = 'TEMP',VALE = 0.),
       _F( NOEUD = 'N800',    NOM_CMP = 'TEMP',VALE = 0.),
       _F( NOEUD = 'N800',    NOM_CMP = 'TEMP',VALE = 0.),
       _F( NOEUD = 'N900',    NOM_CMP = 'TEMP',VALE = 0.),
       _F( NOEUD = 'N1100',   NOM_CMP = 'TEMP',VALE = 0.),
       _F( NOEUD = 'N1200',   NOM_CMP = 'TEMP',VALE = 0.),
       _F( NOEUD = 'N1200',   NOM_CMP = 'TEMP',VALE = 0.),
       _F( NOEUD = 'N1300',   NOM_CMP = 'TEMP',VALE = 0.),
       _F( NOEUD = 'N1300',   NOM_CMP = 'TEMP',VALE = 0.),
       _F( NOEUD = 'N1400',   NOM_CMP = 'TEMP',VALE = 0.),
       _F( NOEUD = 'N1400',   NOM_CMP = 'TEMP',VALE = 0.),
       _F( NOEUD = 'N1500',   NOM_CMP = 'TEMP',VALE = 0.),
# ... 7 like lines cut
       _F( NOEUD = 'N1100',   NOM_CMP = 'TEMP',VALE = 0.)
         ))

TEMPER=CREA_CHAMP( OPERATION='AFFE', TYPE_CHAM='NOEU_TEMP_R',
MAILLAGE=MAILLAGE,AFFE=(
       _F( NOEUD = 'N100',    NOM_CMP = 'TEMP',VALE = 4.722200000E+02),
       _F( NOEUD = 'N200',    NOM_CMP = 'TEMP',VALE = 4.722200000E+02),
       _F( NOEUD = 'N200',    NOM_CMP = 'TEMP',VALE = 4.722200000E+02),
       _F( NOEUD = 'N300',    NOM_CMP = 'TEMP',VALE = 4.722200000E+02),
       _F( NOEUD = 'N500',    NOM_CMP = 'TEMP',VALE = 4.722200000E+02),
       _F( NOEUD = 'N600',    NOM_CMP = 'TEMP',VALE = 4.722200000E+02),
       _F( NOEUD = 'N600',    NOM_CMP = 'TEMP',VALE = 4.722200000E+02),
       _F( NOEUD = 'N700',    NOM_CMP = 'TEMP',VALE = 4.722200000E+02),
       _F( NOEUD = 'N700',    NOM_CMP = 'TEMP',VALE = 4.722200000E+02),
       _F( NOEUD = 'N800',    NOM_CMP = 'TEMP',VALE = 4.722200000E+02),
       _F( NOEUD = 'N800',    NOM_CMP = 'TEMP',VALE = 4.722200000E+02),
       _F( NOEUD = 'N900',    NOM_CMP = 'TEMP',VALE = 4.722200000E+02),
       _F( NOEUD = 'N1100',   NOM_CMP = 'TEMP',VALE = 4.722200000E+02),
       _F( NOEUD = 'N1200',   NOM_CMP = 'TEMP',VALE = 4.722200000E+02),
       _F( NOEUD = 'N1200',   NOM_CMP = 'TEMP',VALE = 4.722200000E+02),
       _F( NOEUD = 'N1300',   NOM_CMP = 'TEMP',VALE = 4.722200000E+02),
       _F( NOEUD = 'N1300',   NOM_CMP = 'TEMP',VALE = 4.722200000E+02),
       _F( NOEUD = 'N1400',   NOM_CMP = 'TEMP',VALE = 4.722200000E+02),
       _F( NOEUD = 'N1400',   NOM_CMP = 'TEMP',VALE = 4.722200000E+02),
       _F( NOEUD = 'N1500',   NOM_CMP = 'TEMP',VALE = 4.722200000E+02),
# ... 7 like lines cut
       _F( NOEUD = 'N1100',   NOM_CMP = 'TEMP',VALE = 4.722200000E+02))
         )

#CHARGEMENT 3

CH3=AFFE_CHAR_MECA( MODELE=MODELE,FORCE_NODALE=(
             _F( NOEUD = 'N200',    FZ = -6.248970000E+02),
             _F( NOEUD = 'N300',    FZ = -7.887240000E+02),
             _F( NOEUD = 'N400',    FZ = -3.276540000E+02),
             _F( NOEUD = 'N500',    FZ = -2.148390000E+02),
             _F( NOEUD = 'N600',    FZ = -1.025140000E+02),
             _F( NOEUD = 'N700',    FZ = -1.025140000E+02),
             _F( NOEUD = 'N800',    FZ = -1.025140000E+02),
             _F( NOEUD = 'N900',    FZ = -2.148390000E+02),
             _F( NOEUD = 'N1000',   FZ = -3.276540000E+02),
             _F( NOEUD = 'N1100',   FZ = -2.226870000E+02),
             _F( NOEUD = 'N1200',   FZ = -1.177200000E+02),
             _F( NOEUD = 'N1300',   FZ = -1.177200000E+02),
             _F( NOEUD = 'N1400',   FZ = -1.765800000E+02))
               )

TEMPE=CREA_RESU(
                OPERATION='AFFE', TYPE_RESU='EVOL_THER',
                NOM_CHAM='TEMP',
                AFFE=(_F(INST = 0.0, CHAM_GD = TEMPER0),
                      _F(INST = 1.0, CHAM_GD = TEMPER),
                ))

CHAMTH=AFFE_MATERIAU(   MAILLAGE=MAILLAGE,
                     AFFE=_F(  GROUP_MA = 'MAT_1',    MATER = MAT_1),
                    );

CHAMTH1=AFFE_MATERIAU(   MAILLAGE=MAILLAGE,
                     AFFE=_F(  GROUP_MA = 'MAT_1',    MATER = MAT_1),
                     AFFE_VARC=_F( TOUT='OUI',
                              EVOL=TEMPE,VALE_REF=0.,
                              NOM_VARC='TEMP',
                              NOM_CHAM='TEMP',),
                    );

L_INST=DEFI_LIST_REEL(DEBUT=0.0,
                      INTERVALLE=_F(JUSQU_A=1.,
                                     NOMBRE=1,),);

# POIDS PROPRE

RESU1 =STAT_NON_LINE(MODELE=MODELE,
                    CHAM_MATER=CHAMTH,
                    CARA_ELEM=CARA_ELE,
                    EXCIT=(_F(CHARGE=CON_LIM,),
                           _F(CHARGE=CH1,),),
                     COMPORTEMENT=_F(RELATION='ELAS'),
                     INCREMENT=_F(LIST_INST=L_INST),);


RESU1=CALC_CHAMP(reuse=RESU1,RESULTAT=RESU1,CONTRAINTE=('SIEF_ELNO'))


IMPR_RESU(RESU=_F(RESULTAT=RESU1, NUME_ORDRE=1))


# DILATATION
RESU2 =STAT_NON_LINE(MODELE=MODELE,
                    CHAM_MATER=CHAMTH1,
                    CARA_ELEM=CARA_ELE,
                    EXCIT=_F(CHARGE=CON_LIM,),
                    COMPORTEMENT=_F(RELATION='ELAS',DEFORMATION='PETIT'),
                    INCREMENT=_F(LIST_INST=L_INST),);


RESU2=CALC_CHAMP(reuse=RESU2,RESULTAT=RESU2,CONTRAINTE=('SIEF_ELNO'))



# FORCES NODALES

RESU3 =STAT_NON_LINE(MODELE=MODELE,
                    CHAM_MATER=CHAMTH,
                    CARA_ELEM=CARA_ELE,
                    EXCIT=(_F(CHARGE=CON_LIM,),
                           _F(CHARGE=CH3,),),
                    COMPORTEMENT=_F(RELATION='ELAS',TOUT='OUI'),
                    INCREMENT=_F(LIST_INST=L_INST),);


RESU3=CALC_CHAMP(reuse=RESU3,RESULTAT=RESU3,CONTRAINTE=('SIEF_ELNO'))



TEST_RESU(RESU=(_F(NUME_ORDRE=1,
                   REFERENCE='SOURCE_EXTERNE',
                   RESULTAT=RESU1,
                   NOM_CHAM='DEPL',
                   NOEUD='N300',
                   NOM_CMP='DX',
                   VALE_CALC=-1.6582830093716E-04,
                   VALE_REFE=-1.6579999999999999E-4,),
                _F(NUME_ORDRE=1,
                   REFERENCE='SOURCE_EXTERNE',
                   RESULTAT=RESU1,
                   NOM_CHAM='DEPL',
                   NOEUD='N300',
                   NOM_CMP='DY',
                   VALE_CALC=-2.0532386290452E-05,
                   VALE_REFE=-2.0400000000000001E-05,
                   PRECISION=8.0000000000000002E-3,),
                _F(NUME_ORDRE=1,
                   REFERENCE='SOURCE_EXTERNE',
                   RESULTAT=RESU1,
                   NOM_CHAM='DEPL',
                   NOEUD='N300',
                   NOM_CMP='DZ',
                   VALE_CALC=-8.0117976958964E-06,
                   VALE_REFE=-8.0099999999999995E-06,),
                _F(NUME_ORDRE=1,
                   REFERENCE='SOURCE_EXTERNE',
                   RESULTAT=RESU1,
                   NOM_CHAM='DEPL',
                   NOEUD='N500',
                   NOM_CMP='DX',
                   VALE_CALC=-2.3973901749997E-04,
                   VALE_REFE=-2.397E-4,),
                _F(NUME_ORDRE=1,
                   REFERENCE='SOURCE_EXTERNE',
                   RESULTAT=RESU1,
                   NOM_CHAM='DEPL',
                   NOEUD='N500',
                   NOM_CMP='DY',
                   VALE_CALC=1.7773844297226E-04,
                   VALE_REFE=1.7770000000000001E-4,),
                _F(NUME_ORDRE=1,
                   REFERENCE='SOURCE_EXTERNE',
                   RESULTAT=RESU1,
                   NOM_CHAM='DEPL',
                   NOEUD='N500',
                   NOM_CMP='DZ',
                   VALE_CALC=-2.6829434974533E-04,
                   VALE_REFE=-2.6810000000000001E-4,),
                _F(NUME_ORDRE=1,
                   REFERENCE='SOURCE_EXTERNE',
                   RESULTAT=RESU1,
                   NOM_CHAM='DEPL',
                   NOEUD='N700',
                   NOM_CMP='DX',
                   VALE_CALC=-1.8556901899958E-04,
                   VALE_REFE=-1.8550000000000001E-4,),
                _F(NUME_ORDRE=1,
                   REFERENCE='SOURCE_EXTERNE',
                   RESULTAT=RESU1,
                   NOM_CHAM='DEPL',
                   NOEUD='N700',
                   NOM_CMP='DY',
                   VALE_CALC=1.7761044737425E-04,
                   VALE_REFE=1.775E-4,),
                _F(NUME_ORDRE=1,
                   REFERENCE='SOURCE_EXTERNE',
                   RESULTAT=RESU1,
                   NOM_CHAM='DEPL',
                   NOEUD='N700',
                   NOM_CMP='DZ',
                   VALE_CALC=-3.9409338558128E-04,
                   VALE_REFE=-3.9399999999999998E-4,),
                _F(NUME_ORDRE=1,
                   REFERENCE='SOURCE_EXTERNE',
                   RESULTAT=RESU1,
                   NOM_CHAM='DEPL',
                   NOEUD='N900',
                   NOM_CMP='DX',
                   VALE_CALC=-1.2784766565912E-04,
                   VALE_REFE=-1.2779999999999999E-4,),
                _F(NUME_ORDRE=1,
                   REFERENCE='SOURCE_EXTERNE',
                   RESULTAT=RESU1,
                   NOM_CHAM='DEPL',
                   NOEUD='N900',
                   NOM_CMP='DY',
                   VALE_CALC=1.7748245177624E-04,
                   VALE_REFE=1.774E-4,),
                _F(NUME_ORDRE=1,
                   REFERENCE='SOURCE_EXTERNE',
                   RESULTAT=RESU1,
                   NOM_CHAM='DEPL',
                   NOEUD='N900',
                   NOM_CMP='DZ',
                   VALE_CALC=-4.9774646684505E-04,
                   VALE_REFE=-4.9770000000000001E-4,),
                _F(NUME_ORDRE=1,
                   REFERENCE='SOURCE_EXTERNE',
                   RESULTAT=RESU1,
                   NOM_CHAM='DEPL',
                   NOEUD='N1100',
                   NOM_CMP='DX',
                   VALE_CALC=-1.8396684851346E-08,
                   VALE_REFE=0.0,
                   CRITERE='ABSOLU',),
                _F(NUME_ORDRE=1,
                   REFERENCE='SOURCE_EXTERNE',
                   RESULTAT=RESU1,
                   NOM_CHAM='DEPL',
                   NOEUD='N1100',
                   NOM_CMP='DY',
                   VALE_CALC=5.6836248302576E-05,
                   VALE_REFE=5.6820000000000001E-05,),
                _F(NUME_ORDRE=1,
                   REFERENCE='SOURCE_EXTERNE',
                   RESULTAT=RESU1,
                   NOM_CHAM='DEPL',
                   NOEUD='N1100',
                   NOM_CMP='DZ',
                   VALE_CALC=-2.2067653429365E-04,
                   VALE_REFE=-2.207E-4,),
                _F(NUME_ORDRE=1,
                   REFERENCE='SOURCE_EXTERNE',
                   RESULTAT=RESU1,
                   NOM_CHAM='SIEF_ELNO',
                   NOEUD='N100',
                   NOM_CMP='N',
                   VALE_CALC=-2275.7551774259,
                   VALE_REFE=-2276.0,
                   PRECISION=5.0000000000000001E-3,
                   MAILLE='EAA',),
                _F(NUME_ORDRE=1,
                   REFERENCE='SOURCE_EXTERNE',
                   RESULTAT=RESU1,
                   NOM_CHAM='SIEF_ELNO',
                   NOEUD='N100',
                   NOM_CMP='VY',
                   VALE_CALC=-161.10667471219,
                   VALE_REFE=-161.09999999999999,
                   MAILLE='EAA',),
                _F(NUME_ORDRE=1,
                   REFERENCE='SOURCE_EXTERNE',
                   RESULTAT=RESU1,
                   NOM_CHAM='SIEF_ELNO',
                   NOEUD='N100',
                   NOM_CMP='VZ',
                   VALE_CALC=-10.099977803529,
                   VALE_REFE=-10.099977804,
                   PRECISION=5.0000000000000001E-3,
                   MAILLE='EAA',),
                _F(NUME_ORDRE=1,
                   REFERENCE='SOURCE_EXTERNE',
                   RESULTAT=RESU1,
                   NOM_CHAM='SIEF_ELNO',
                   NOEUD='N100',
                   NOM_CMP='MT',
                   VALE_CALC=-53.398297412679,
                   VALE_REFE=-53.399999999999999,
                   MAILLE='EAA',),
                _F(NUME_ORDRE=1,
                   REFERENCE='SOURCE_EXTERNE',
                   RESULTAT=RESU1,
                   NOM_CHAM='SIEF_ELNO',
                   NOEUD='N100',
                   NOM_CMP='MFY',
                   VALE_CALC=-89.659738740775,
                   VALE_REFE=-89.659999999999997,
                   MAILLE='EAA',),
                _F(NUME_ORDRE=1,
                   REFERENCE='SOURCE_EXTERNE',
                   RESULTAT=RESU1,
                   NOM_CHAM='SIEF_ELNO',
                   NOEUD='N100',
                   NOM_CMP='MFZ',
                   VALE_CALC=-158.46013834045,
                   VALE_REFE=-158.5,
                   MAILLE='EAA',),
                _F(NUME_ORDRE=1,
                   REFERENCE='SOURCE_EXTERNE',
                   RESULTAT=RESU1,
                   NOM_CHAM='SIEF_ELNO',
                   NOEUD='N1500',
                   NOM_CMP='N',
                   VALE_CALC=10.099977803489,
                   VALE_REFE=10.095000000000001,
                   PRECISION=5.0E-3,
                   MAILLE='EBB',),
                _F(NUME_ORDRE=1,
                   REFERENCE='SOURCE_EXTERNE',
                   RESULTAT=RESU1,
                   NOM_CHAM='SIEF_ELNO',
                   NOEUD='N1500',
                   NOM_CMP='VY',
                   VALE_CALC=-161.10667471244,
                   VALE_REFE=-161.09999999999999,
                   MAILLE='EBB',),
                _F(NUME_ORDRE=1,
                   REFERENCE='SOURCE_EXTERNE',
                   RESULTAT=RESU1,
                   NOM_CHAM='SIEF_ELNO',
                   NOEUD='N1500',
                   NOM_CMP='VZ',
                   VALE_CALC=1164.9464392321,
                   VALE_REFE=1165.0,
                   PRECISION=5.0000000000000001E-3,
                   MAILLE='EBB',),
                _F(NUME_ORDRE=1,
                   REFERENCE='SOURCE_EXTERNE',
                   RESULTAT=RESU1,
                   NOM_CHAM='SIEF_ELNO',
                   NOEUD='N1500',
                   NOM_CMP='MT',
                   VALE_CALC=15.647254526314,
                   VALE_REFE=15.6,
                   PRECISION=5.0E-3,
                   MAILLE='EBB',),
                _F(NUME_ORDRE=1,
                   REFERENCE='SOURCE_EXTERNE',
                   RESULTAT=RESU1,
                   NOM_CHAM='SIEF_ELNO',
                   NOEUD='N1500',
                   NOM_CMP='MFY',
                   VALE_CALC=1260.3505393818,
                   VALE_REFE=1260.5,
                   PRECISION=5.0E-3,
                   MAILLE='EBB',),
                _F(NUME_ORDRE=1,
                   REFERENCE='SOURCE_EXTERNE',
                   RESULTAT=RESU1,
                   NOM_CHAM='SIEF_ELNO',
                   NOEUD='N1500',
                   NOM_CMP='MFZ',
                   VALE_CALC=290.14572398334,
                   VALE_REFE=290.1,
                   MAILLE='EBB',),
                ),
          )

# TESTS DE LA CHARGE THERMIQUE (DILATATION)


TEST_RESU(RESU=(_F(NUME_ORDRE=1,
                   REFERENCE='SOURCE_EXTERNE',
                   RESULTAT=RESU2,
                   NOM_CHAM='DEPL',
                   NOEUD='N300',
                   NOM_CMP='DX',
                   VALE_CALC=-6.1404889557255E-03,
                   VALE_REFE=-6.1418000000000002E-3,),
                _F(NUME_ORDRE=1,
                   REFERENCE='SOURCE_EXTERNE',
                   RESULTAT=RESU2,
                   NOM_CHAM='DEPL',
                   NOEUD='N300',
                   NOM_CMP='DY',
                   VALE_CALC=-0.013090661777432,
                   VALE_REFE=-0.013089999999999999,),
                _F(NUME_ORDRE=1,
                   REFERENCE='SOURCE_EXTERNE',
                   RESULTAT=RESU2,
                   NOM_CHAM='DEPL',
                   NOEUD='N300',
                   NOM_CMP='DZ',
                   VALE_CALC=0.016799432636341,
                   VALE_REFE=0.016799000000000001,),
                _F(NUME_ORDRE=1,
                   REFERENCE='SOURCE_EXTERNE',
                   RESULTAT=RESU2,
                   NOM_CHAM='DEPL',
                   NOEUD='N500',
                   NOM_CMP='DX',
                   VALE_CALC=-0.010301575744739,
                   VALE_REFE=-0.010302,),
                _F(NUME_ORDRE=1,
                   REFERENCE='SOURCE_EXTERNE',
                   RESULTAT=RESU2,
                   NOM_CHAM='DEPL',
                   NOEUD='N500',
                   NOM_CMP='DY',
                   VALE_CALC=-8.131691059415E-03,
                   VALE_REFE=-8.1320000000000003E-3,),
                _F(NUME_ORDRE=1,
                   REFERENCE='SOURCE_EXTERNE',
                   RESULTAT=RESU2,
                   NOM_CHAM='DEPL',
                   NOEUD='N500',
                   NOM_CMP='DZ',
                   VALE_CALC=0.019722634613170,
                   VALE_REFE=0.019723000000000001,),
                _F(NUME_ORDRE=1,
                   REFERENCE='SOURCE_EXTERNE',
                   RESULTAT=RESU2,
                   NOM_CHAM='DEPL',
                   NOEUD='N700',
                   NOM_CMP='DX',
                   VALE_CALC=-0.011369663376587,
                   VALE_REFE=-0.01137,),
                _F(NUME_ORDRE=1,
                   REFERENCE='SOURCE_EXTERNE',
                   RESULTAT=RESU2,
                   NOM_CHAM='DEPL',
                   NOEUD='N700',
                   NOM_CMP='DY',
                   VALE_CALC=-5.3825060524501E-03,
                   VALE_REFE=-5.3829999999999998E-3,),
                _F(NUME_ORDRE=1,
                   REFERENCE='SOURCE_EXTERNE',
                   RESULTAT=RESU2,
                   NOM_CHAM='DEPL',
                   NOEUD='N700',
                   NOM_CMP='DZ',
                   VALE_CALC=0.016134237919298,
                   VALE_REFE=0.016135,),
                _F(NUME_ORDRE=1,
                   REFERENCE='SOURCE_EXTERNE',
                   RESULTAT=RESU2,
                   NOM_CHAM='DEPL',
                   NOEUD='N900',
                   NOM_CMP='DX',
                   VALE_CALC=-0.012237990262771,
                   VALE_REFE=-0.012238000000000001,),
                _F(NUME_ORDRE=1,
                   REFERENCE='SOURCE_EXTERNE',
                   RESULTAT=RESU2,
                   NOM_CHAM='DEPL',
                   NOEUD='N900',
                   NOM_CMP='DY',
                   VALE_CALC=-2.6333210454851E-03,
                   VALE_REFE=-2.6329999999999999E-3,),
                _F(NUME_ORDRE=1,
                   REFERENCE='SOURCE_EXTERNE',
                   RESULTAT=RESU2,
                   NOM_CHAM='DEPL',
                   NOEUD='N900',
                   NOM_CMP='DZ',
                   VALE_CALC=0.012261360833161,
                   VALE_REFE=0.012262,),
                _F(NUME_ORDRE=1,
                   REFERENCE='SOURCE_EXTERNE',
                   RESULTAT=RESU2,
                   NOM_CHAM='DEPL',
                   NOEUD='N1100',
                   NOM_CMP='DX',
                   VALE_CALC=-6.3082333521386E-03,
                   VALE_REFE=-6.3080000000000002E-3,),
                _F(NUME_ORDRE=1,
                   REFERENCE='SOURCE_EXTERNE',
                   RESULTAT=RESU2,
                   NOM_CHAM='DEPL',
                   NOEUD='N1100',
                   NOM_CMP='DY',
                   VALE_CALC=1.5416871862951E-03,
                   VALE_REFE=1.542E-3,),
                _F(NUME_ORDRE=1,
                   REFERENCE='SOURCE_EXTERNE',
                   RESULTAT=RESU2,
                   NOM_CHAM='DEPL',
                   NOEUD='N1100',
                   NOM_CMP='DZ',
                   VALE_CALC=1.9313670260705E-03,
                   VALE_REFE=1.931E-3,),
                _F(NUME_ORDRE=1,
                   REFERENCE='SOURCE_EXTERNE',
                   RESULTAT=RESU2,
                   NOM_CHAM='SIEF_ELNO',
                   NOEUD='N100',
                   NOM_CMP='N',
                   VALE_CALC=-7430.5104058315,
                   VALE_REFE=-7431.0,
                   MAILLE='E1',),
                _F(NUME_ORDRE=1,
                   REFERENCE='SOURCE_EXTERNE',
                   RESULTAT=RESU2,
                   NOM_CHAM='SIEF_ELNO',
                   NOEUD='N100',
                   NOM_CMP='VY',
                   VALE_CALC=-7613.4255028082,
                   VALE_REFE=-7613.0,
                   MAILLE='E1',),
                _F(NUME_ORDRE=1,
                   REFERENCE='SOURCE_EXTERNE',
                   RESULTAT=RESU2,
                   NOM_CHAM='SIEF_ELNO',
                   NOEUD='N100',
                   NOM_CMP='VZ',
                   VALE_CALC=2790.9536232251,
                   VALE_REFE=2791.0,
                   MAILLE='E1',),
                _F(NUME_ORDRE=1,
                   REFERENCE='SOURCE_EXTERNE',
                   RESULTAT=RESU2,
                   NOM_CHAM='SIEF_ELNO',
                   NOEUD='N100',
                   NOM_CMP='MT',
                   VALE_CALC=1615.1101378808,
                   VALE_REFE=1615.0,
                   MAILLE='E1',),
                _F(NUME_ORDRE=1,
                   REFERENCE='SOURCE_EXTERNE',
                   RESULTAT=RESU2,
                   NOM_CHAM='SIEF_ELNO',
                   NOEUD='N100',
                   NOM_CMP='MFY',
                   VALE_CALC=-6192.5992217431,
                   VALE_REFE=-6193.0,
                   MAILLE='E1',),
                _F(NUME_ORDRE=1,
                   REFERENCE='SOURCE_EXTERNE',
                   RESULTAT=RESU2,
                   NOM_CHAM='SIEF_ELNO',
                   NOEUD='N100',
                   NOM_CMP='MFZ',
                   VALE_CALC=-14711.583296382,
                   VALE_REFE=-1.4712E4,
                   MAILLE='E1',),
                _F(NUME_ORDRE=1,
                   REFERENCE='SOURCE_EXTERNE',
                   RESULTAT=RESU2,
                   NOM_CHAM='SIEF_ELNO',
                   NOEUD='N1500',
                   NOM_CMP='N',
                   VALE_CALC=-2790.9536232441,
                   VALE_REFE=-2791.0,
                   MAILLE='E14',),
                _F(NUME_ORDRE=1,
                   REFERENCE='SOURCE_EXTERNE',
                   RESULTAT=RESU2,
                   NOM_CHAM='SIEF_ELNO',
                   NOEUD='N1500',
                   NOM_CMP='VY',
                   VALE_CALC=-7613.4255028276,
                   VALE_REFE=-7613.0,
                   MAILLE='E14',),
                _F(NUME_ORDRE=1,
                   REFERENCE='SOURCE_EXTERNE',
                   RESULTAT=RESU2,
                   NOM_CHAM='SIEF_ELNO',
                   NOEUD='N1500',
                   NOM_CMP='VZ',
                   VALE_CALC=-7430.5104058146,
                   VALE_REFE=-7433.0,
                   MAILLE='E14',),
                _F(NUME_ORDRE=1,
                   REFERENCE='SOURCE_EXTERNE',
                   RESULTAT=RESU2,
                   NOM_CHAM='SIEF_ELNO',
                   NOEUD='N1500',
                   NOM_CMP='MT',
                   VALE_CALC=7051.9468070108,
                   VALE_REFE=7052.0,
                   MAILLE='E14',),
                _F(NUME_ORDRE=1,
                   REFERENCE='SOURCE_EXTERNE',
                   RESULTAT=RESU2,
                   NOM_CHAM='SIEF_ELNO',
                   NOEUD='N1500',
                   NOM_CMP='MFY',
                   VALE_CALC=-10457.780747439,
                   VALE_REFE=-1.0460E4,
                   MAILLE='E14',),
                _F(NUME_ORDRE=1,
                   REFERENCE='SOURCE_EXTERNE',
                   RESULTAT=RESU2,
                   NOM_CHAM='SIEF_ELNO',
                   NOEUD='N1500',
                   NOM_CMP='MFZ',
                   VALE_CALC=8862.3016595469,
                   VALE_REFE=8862.0,
                   MAILLE='E14',),
                ),
          )

## TESTS DE LA CHARGE FORCE NODALE

TEST_RESU(RESU=(_F(NUME_ORDRE=1,
                   REFERENCE='SOURCE_EXTERNE',
                   RESULTAT=RESU3,
                   NOM_CHAM='DEPL',
                   NOEUD='N300',
                   NOM_CMP='DX',
                   VALE_CALC=-1.651611822265E-04,
                   VALE_REFE=-1.651E-4,),
                _F(NUME_ORDRE=1,
                   REFERENCE='SOURCE_EXTERNE',
                   RESULTAT=RESU3,
                   NOM_CHAM='DEPL',
                   NOEUD='N300',
                   NOM_CMP='DY',
                   VALE_CALC=-2.0803875520895E-05,
                   VALE_REFE=-2.0800000000000001E-05,),
                _F(NUME_ORDRE=1,
                   REFERENCE='SOURCE_EXTERNE',
                   RESULTAT=RESU3,
                   NOM_CHAM='DEPL',
                   NOEUD='N300',
                   NOM_CMP='DZ',
                   VALE_CALC=-9.518474167112E-06,
                   VALE_REFE=-9.516E-06,),
                _F(NUME_ORDRE=1,
                   REFERENCE='SOURCE_EXTERNE',
                   RESULTAT=RESU3,
                   NOM_CHAM='DEPL',
                   NOEUD='N500',
                   NOM_CMP='DX',
                   VALE_CALC=-2.3863436236015E-04,
                   VALE_REFE=-2.386E-4,),
                _F(NUME_ORDRE=1,
                   REFERENCE='SOURCE_EXTERNE',
                   RESULTAT=RESU3,
                   NOM_CHAM='DEPL',
                   NOEUD='N500',
                   NOM_CMP='DY',
                   VALE_CALC=1.7727541607509E-04,
                   VALE_REFE=1.773E-4,),
                _F(NUME_ORDRE=1,
                   REFERENCE='SOURCE_EXTERNE',
                   RESULTAT=RESU3,
                   NOM_CHAM='DEPL',
                   NOEUD='N500',
                   NOM_CMP='DZ',
                   VALE_CALC=-2.6969270533452E-04,
                   VALE_REFE=-2.697E-4,),
                _F(NUME_ORDRE=1,
                   REFERENCE='SOURCE_EXTERNE',
                   RESULTAT=RESU3,
                   NOM_CHAM='DEPL',
                   NOEUD='N700',
                   NOM_CMP='DX',
                   VALE_CALC=-1.847726775964E-04,
                   VALE_REFE=-1.8479999999999999E-4,),
                _F(NUME_ORDRE=1,
                   REFERENCE='SOURCE_EXTERNE',
                   RESULTAT=RESU3,
                   NOM_CHAM='DEPL',
                   NOEUD='N700',
                   NOM_CMP='DY',
                   VALE_CALC=1.7714741840972E-04,
                   VALE_REFE=1.771E-4,),
                _F(NUME_ORDRE=1,
                   REFERENCE='SOURCE_EXTERNE',
                   RESULTAT=RESU3,
                   NOM_CHAM='DEPL',
                   NOEUD='N700',
                   NOM_CMP='DZ',
                   VALE_CALC=-3.9484126181922E-04,
                   VALE_REFE=-3.948E-4,),
                _F(NUME_ORDRE=1,
                   REFERENCE='SOURCE_EXTERNE',
                   RESULTAT=RESU3,
                   NOM_CHAM='DEPL',
                   NOEUD='N900',
                   NOM_CMP='DX',
                   VALE_CALC=-1.2735789653962E-04,
                   VALE_REFE=-1.2740000000000001E-4,),
                _F(NUME_ORDRE=1,
                   REFERENCE='SOURCE_EXTERNE',
                   RESULTAT=RESU3,
                   NOM_CHAM='DEPL',
                   NOEUD='N900',
                   NOM_CMP='DY',
                   VALE_CALC=1.7701942074435E-04,
                   VALE_REFE=1.7699999999999999E-4,),
                _F(NUME_ORDRE=1,
                   REFERENCE='SOURCE_EXTERNE',
                   RESULTAT=RESU3,
                   NOM_CHAM='DEPL',
                   NOEUD='N900',
                   NOM_CMP='DZ',
                   VALE_CALC=-4.9638845831664E-04,
                   VALE_REFE=-4.9640000000000003E-4,),
                _F(NUME_ORDRE=1,
                   REFERENCE='SOURCE_EXTERNE',
                   RESULTAT=RESU3,
                   NOM_CHAM='DEPL',
                   NOEUD='N1100',
                   NOM_CMP='DX',
                   VALE_CALC=-1.7868355442702E-08,
                   VALE_REFE=0.0,
                   CRITERE='ABSOLU',),
                _F(NUME_ORDRE=1,
                   REFERENCE='SOURCE_EXTERNE',
                   RESULTAT=RESU3,
                   NOM_CHAM='DEPL',
                   NOEUD='N1100',
                   NOM_CMP='DY',
                   VALE_CALC=5.6738582068667E-05,
                   VALE_REFE=5.6740000000000002E-05,),
                _F(NUME_ORDRE=1,
                   REFERENCE='SOURCE_EXTERNE',
                   RESULTAT=RESU3,
                   NOM_CHAM='DEPL',
                   NOEUD='N1100',
                   NOM_CMP='DZ',
                   VALE_CALC=-2.1859844682011E-04,
                   VALE_REFE=-2.186E-4,),
                _F(NUME_ORDRE=1,
                   REFERENCE='SOURCE_EXTERNE',
                   RESULTAT=RESU3,
                   NOM_CHAM='SIEF_ELNO',
                   NOEUD='N100',
                   NOM_CMP='N',
                   VALE_CALC=-2272.7110529858,
                   VALE_REFE=-2273.0,
                   MAILLE='E1',),
                _F(NUME_ORDRE=1,
                   REFERENCE='SOURCE_EXTERNE',
                   RESULTAT=RESU3,
                   NOM_CHAM='SIEF_ELNO',
                   NOEUD='N100',
                   NOM_CMP='VY',
                   VALE_CALC=-161.10927687734,
                   VALE_REFE=-161.09999999999999,
                   MAILLE='E1',),
                _F(NUME_ORDRE=1,
                   REFERENCE='SOURCE_EXTERNE',
                   RESULTAT=RESU3,
                   NOM_CHAM='SIEF_ELNO',
                   NOEUD='N100',
                   NOM_CMP='VZ',
                   VALE_CALC=-9.809919277042,
                   VALE_REFE=-9.8100000000000005,
                   MAILLE='E1',),
                _F(NUME_ORDRE=1,
                   REFERENCE='SOURCE_EXTERNE',
                   RESULTAT=RESU3,
                   NOM_CHAM='SIEF_ELNO',
                   NOEUD='N100',
                   NOM_CMP='MT',
                   VALE_CALC=-53.018841586397,
                   VALE_REFE=-53.020000000000003,
                   MAILLE='E1',),
                _F(NUME_ORDRE=1,
                   REFERENCE='SOURCE_EXTERNE',
                   RESULTAT=RESU3,
                   NOM_CHAM='SIEF_ELNO',
                   NOEUD='N100',
                   NOM_CMP='MFY',
                   VALE_CALC=-89.525427110271,
                   VALE_REFE=-89.530000000000001,
                   MAILLE='E1',),
                _F(NUME_ORDRE=1,
                   REFERENCE='SOURCE_EXTERNE',
                   RESULTAT=RESU3,
                   NOM_CHAM='SIEF_ELNO',
                   NOEUD='N100',
                   NOM_CMP='MFZ',
                   VALE_CALC=-158.6242962676,
                   VALE_REFE=-158.63,
                   MAILLE='E1',),
                _F(NUME_ORDRE=1,
                   REFERENCE='SOURCE_EXTERNE',
                   RESULTAT=RESU3,
                   NOM_CHAM='SIEF_ELNO',
                   NOEUD='N1500',
                   NOM_CMP='N',
                   VALE_CALC=9.8099192770023,
                   VALE_REFE=9.8100000000000005,
                   MAILLE='E14',),
                _F(NUME_ORDRE=1,
                   REFERENCE='SOURCE_EXTERNE',
                   RESULTAT=RESU3,
                   NOM_CHAM='SIEF_ELNO',
                   NOEUD='N1500',
                   NOM_CMP='VY',
                   VALE_CALC=-161.10927687759,
                   VALE_REFE=-161.09999999999999,
                   MAILLE='E14',),
                _F(NUME_ORDRE=1,
                   REFERENCE='SOURCE_EXTERNE',
                   RESULTAT=RESU3,
                   NOM_CHAM='SIEF_ELNO',
                   NOEUD='N1500',
                   NOM_CMP='VZ',
                   VALE_CALC=1168.1449470141,
                   VALE_REFE=1168.0,
                   MAILLE='E14',),
                _F(NUME_ORDRE=1,
                   REFERENCE='SOURCE_EXTERNE',
                   RESULTAT=RESU3,
                   NOM_CHAM='SIEF_ELNO',
                   NOEUD='N1500',
                   NOM_CMP='MT',
                   VALE_CALC=11.902710301411,
                   VALE_REFE=11.9,
                   PRECISION=5.0000000000000001E-3,
                   MAILLE='E14',),
                _F(NUME_ORDRE=1,
                   REFERENCE='SOURCE_EXTERNE',
                   RESULTAT=RESU3,
                   NOM_CHAM='SIEF_ELNO',
                   NOEUD='N1500',
                   NOM_CMP='MFY',
                   VALE_CALC=1261.0610829051,
                   VALE_REFE=1261.0,
                   MAILLE='E14',),
                _F(NUME_ORDRE=1,
                   REFERENCE='SOURCE_EXTERNE',
                   RESULTAT=RESU3,
                   NOM_CHAM='SIEF_ELNO',
                   NOEUD='N1500',
                   NOM_CMP='MFZ',
                   VALE_CALC=289.73261910546,
                   VALE_REFE=289.69999999999999,
                   MAILLE='E14',),
                ),
          )

# ----------------------------------------------------------------------
FIN()
#
