# TITRE ANNEAU DYNAMOMETRIQUE
# ======================================================================
# COPYRIGHT (C) 1991 - 2012  EDF R&D                  WWW.CODE-ASTER.ORG
# THIS PROGRAM IS FREE SOFTWARE; YOU CAN REDISTRIBUTE IT AND/OR MODIFY
# IT UNDER THE TERMS OF THE GNU GENERAL PUBLIC LICENSE AS PUBLISHED BY
# THE FREE SOFTWARE FOUNDATION; EITHER VERSION 2 OF THE LICENSE, OR
# (AT YOUR OPTION) ANY LATER VERSION.
#
# THIS PROGRAM IS DISTRIBUTED IN THE HOPE THAT IT WILL BE USEFUL, BUT
# WITHOUT ANY WARRANTY; WITHOUT EVEN THE IMPLIED WARRANTY OF
# MERCHANTABILITY OR FITNESS FOR A PARTICULAR PURPOSE. SEE THE GNU
# GENERAL PUBLIC LICENSE FOR MORE DETAILS.
#
# YOU SHOULD HAVE RECEIVED A COPY OF THE GNU GENERAL PUBLIC LICENSE
# ALONG WITH THIS PROGRAM; IF NOT, WRITE TO EDF R&D CODE_ASTER,
#    1 AVENUE DU GENERAL DE GAULLE, 92141 CLAMART CEDEX, FRANCE.
# ======================================================================
# MODELISATION POU_C_T
#======================================================================
#
DEBUT(CODE=_F(NOM='SSLL402A',NIV_PUB_WEB='INTERNET'),DEBUG=_F(SDVERI='OUI'))

#
MA=LIRE_MAILLAGE(  )

MA=DEFI_GROUP(   reuse=MA,   MAILLAGE=MA,
         CREA_GROUP_MA=_F(  NOM = 'TOUT',   TOUT = 'OUI'))

#
MO=AFFE_MODELE(    MAILLAGE=MA,
                         AFFE=_F( TOUT = 'OUI',
                               PHENOMENE = 'MECANIQUE',
                               MODELISATION = 'POU_C_T')
                 )

#
MATR=DEFI_MATERIAU(    ELAS=_F( E = 2.E11,
                               NU = 0.3)
                     )

#
CHMAT=AFFE_MATERIAU(    MAILLAGE=MA,
                              AFFE=_F( TOUT = 'OUI',
                                    MATER = MATR)
                       )

#
CAREL=AFFE_CARA_ELEM(      MODELE=MO,
                             POUTRE=_F( GROUP_MA = 'TOUT',
                                     SECTION = 'CERCLE',
                                     CARA = ('R', 'EP',
                                               ),
                                     VALE = (0.01E0, 0.01E0,
                                               )),DEFI_ARC=(
                           _F(  MAILLE = 'S11',
                                      CENTRE = (0.E0, 0.E0, 0.E0,),
                                      RAYON = 2.E0),
                                    _F(  MAILLE = 'S12',
                                      CENTRE = (0.E0, 0.E0, 0.E0,),
                                      RAYON = 2.E0),
                                    _F(  MAILLE = 'S13',
                                      CENTRE = (0.E0, 0.E0, 0.E0,),
                                      RAYON = 2.E0),
                                    _F(  MAILLE = 'S14',
                                      CENTRE = (0.E0, 0.E0, 0.E0,),
                                      RAYON = 2.E0))
                       )

#
CHARG1=AFFE_CHAR_MECA(      MODELE=MO,DDL_IMPO=(
                            _F( NOEUD = 'N2',
                                      DX = 0.,
                                      DY = 0.,
                                      DZ = 0.,
                                      DRX = 0.),
                            _F( NOEUD = 'N4',
                                      DY = 0.,
                                      DZ = 0.))
                        )

#
CHARG2=AFFE_CHAR_MECA(          MODELE=MO,FORCE_NODALE=(
                            _F( NOEUD = 'N1',
                                          FY = 1.E0),
                            _F( NOEUD = 'N3',
                                          FY = -1.E0))
                        )

#
MEST1=MECA_STATIQUE(        MODELE=MO,
                          CHAM_MATER=CHMAT,
                           CARA_ELEM=CAREL,EXCIT=(
                               _F( CHARGE = CHARG1),
                                     _F( CHARGE = CHARG2))
                      )

MEST1=CALC_CHAMP(reuse=MEST1,RESULTAT=MEST1,CONTRAINTE=('EFGE_ELNO','SIPM_ELNO'))


#
TEST_RESU(RESU=_F(NUME_ORDRE=1,
                  RESULTAT=MEST1,
                  NOM_CHAM='EFGE_ELNO',
                  NOEUD='N1',
                  NOM_CMP='N',
                  VALE_CALC=-2.1167100593351E-15,
                  VALE_REFE=0.0,
                  REFERENCE = 'ANALYTIQUE',
                  PRECISION=1.0E-05,
                  CRITERE='ABSOLU',
                  MAILLE='S11',),
          )

#
TEST_RESU(RESU=_F(NUME_ORDRE=1,
                  RESULTAT=MEST1,
                  NOM_CHAM='EFGE_ELNO',
                  NOEUD='N2',
                  NOM_CMP='N',
                  VALE_CALC=0.50000000000000,
                  VALE_REFE=0.5,
                  REFERENCE = 'ANALYTIQUE',
                  PRECISION=1.0E-05,
                  CRITERE='RELATIF',
                  MAILLE='S11',),
          )

#
TEST_RESU(RESU=_F(NUME_ORDRE=1,
                  RESULTAT=MEST1,
                  NOM_CHAM='EFGE_ELNO',
                  NOEUD='N1',
                  NOM_CMP='VY',
                  VALE_CALC=-0.50000000000000,
                  VALE_REFE=-0.5,
                  REFERENCE = 'ANALYTIQUE',
                  PRECISION=1.0E-05,
                  CRITERE='RELATIF',
                  MAILLE='S11',),
          )

#
TEST_RESU(RESU=_F(NUME_ORDRE=1,
                  RESULTAT=MEST1,
                  NOM_CHAM='EFGE_ELNO',
                  NOEUD='N2',
                  NOM_CMP='VY',
                  VALE_CALC=-2.5607992691852E-15,
                  VALE_REFE=0.0,
                  REFERENCE = 'ANALYTIQUE',
                  PRECISION=1.0E-05,
                  CRITERE='ABSOLU',
                  MAILLE='S11',),
          )

#
TEST_RESU(RESU=_F(NUME_ORDRE=1,
                  RESULTAT=MEST1,
                  NOM_CHAM='EFGE_ELNO',
                  NOEUD='N1',
                  NOM_CMP='MFZ',
                  VALE_CALC=-0.63661977236758,
                  VALE_REFE=-0.63661999999999996,
                  REFERENCE = 'ANALYTIQUE',
                  PRECISION=1.0E-05,
                  CRITERE='RELATIF',
                  MAILLE='S11',),
          )

#
TEST_RESU(RESU=_F(NUME_ORDRE=1,
                  RESULTAT=MEST1,
                  NOM_CHAM='EFGE_ELNO',
                  NOEUD='N2',
                  NOM_CMP='MFZ',
                  VALE_CALC=0.36338022763242,
                  VALE_REFE=0.36337999999999998,
                  REFERENCE = 'ANALYTIQUE',
                  PRECISION=1.0E-05,
                  CRITERE='RELATIF',
                  MAILLE='S11',),
          )

#
TEST_RESU(RESU=_F(NUME_ORDRE=1,
                  RESULTAT=MEST1,
                  NOM_CHAM='SIPM_ELNO',
                  NOEUD='N2',
                  NOM_CMP='SIXX',
                  VALE_CALC=4.6426162502738E+05,
                  VALE_REFE=4.6426159999999998E5,
                  REFERENCE = 'ANALYTIQUE',
                  PRECISION=1.0E-05,
                  CRITERE='RELATIF',
                  MAILLE='S11',),
          )

#
TEST_RESU(RESU=_F(NUME_ORDRE=1,
                  RESULTAT=MEST1,
                  NOM_CHAM='SIPM_ELNO',
                  NOEUD='N1',
                  NOM_CMP='SIXY',
                  VALE_CALC=-1856.8129745701,
                  VALE_REFE=-1856.8,
                  REFERENCE = 'ANALYTIQUE',
                  PRECISION=1.0E-05,
                  CRITERE='RELATIF',
                  MAILLE='S11',),
          )

#
TEST_RESU(RESU=_F(NUME_ORDRE=1,
                  RESULTAT=MEST1,
                  NOM_CHAM='SIPM_ELNO',
                  NOEUD='N2',
                  NOM_CMP='SIXY',
                  VALE_CALC=3.0555344783583E-11,
                  VALE_REFE=0.0,
                  REFERENCE = 'ANALYTIQUE',
                  PRECISION=1.0E-05,
                  CRITERE='ABSOLU',
                  MAILLE='S11',),
          )

#
FIN( )
#
#
