# MODIF  DATE 17/05/2004   AUTEUR LEBOUVIE F.LEBOUVIER 
# TITRE POUTRE ENCASTREE A UNE EXTREMITE ET CHARGEE PAR DES FORCES
#            CONFIGURATION MANAGEMENT OF EDF VERSION
# ======================================================================
# COPYRIGHT (C) 1991 - 2004  EDF R&D                  WWW.CODE-ASTER.ORG
# THIS PROGRAM IS FREE SOFTWARE; YOU CAN REDISTRIBUTE IT AND/OR MODIFY  
# IT UNDER THE TERMS OF THE GNU GENERAL PUBLIC LICENSE AS PUBLISHED BY  
# THE FREE SOFTWARE FOUNDATION; EITHER VERSION 2 OF THE LICENSE, OR     
# (AT YOUR OPTION) ANY LATER VERSION.                                                    
#                                                                       
# THIS PROGRAM IS DISTRIBUTED IN THE HOPE THAT IT WILL BE USEFUL, BUT   
# WITHOUT ANY WARRANTY; WITHOUT EVEN THE IMPLIED WARRANTY OF            
# MERCHANTABILITY OR FITNESS FOR A PARTICULAR PURPOSE. SEE THE GNU      
# GENERAL PUBLIC LICENSE FOR MORE DETAILS.                              
#                                                                       
# YOU SHOULD HAVE RECEIVED A COPY OF THE GNU GENERAL PUBLIC LICENSE     
# ALONG WITH THIS PROGRAM; IF NOT, WRITE TO EDF R&D CODE_ASTER,         
#    1 AVENUE DU GENERAL DE GAULLE, 92141 CLAMART CEDEX, FRANCE.        
# ======================================================================
#       UNITAIRES SUR SON AUTRE EXTREMITE.
# MODELISATION POU_D_EM
#======================================================================

DEBUT(CODE=_F(NOM='SSLL102J',
              NIV_PUB_WEB='INTERNET',),);
#lecture maillage lineique

MA=LIRE_MAILLAGE(INFO=2,);
# lecture maillage section

PRE_GIBI(UNITE_GIBI=18,
         UNITE_MAILLAGE=21,);

MASEC=LIRE_MAILLAGE(UNITE=21,);

MO=AFFE_MODELE(MAILLAGE=MA,
               AFFE=_F(TOUT='OUI',
                       PHENOMENE='MECANIQUE',
                       MODELISATION='POU_D_EM',),);

MATR=DEFI_MATERIAU(ELAS=_F(E=200000000000.0,
                           NU=0.3,),);

CHMAT=AFFE_MATERIAU(MAILLAGE=MA,
                    AFFE=_F(TOUT='OUI',
                            MATER=MATR,),);

CAREL=AFFE_CARA_ELEM(MODELE=MO,INFO=2,
                     POUTRE=_F(GROUP_MA = 'G1',
                               SECTION='GENERALE',
                               CARA = ('A','IY','IZ','JX',),
                               VALE = ( 1.,  1.,  1.,
                                          4.5776e-5,)),         
                 ORIENTATION=_F(GROUP_MA=('G1'),
                          CARA='ANGL_VRIL', VALE=0.0,),
                          
                          AFFE_SECT=_F(GROUP_MA='G1',
                                  GROUP_MA_SECT='SURF1',
                                  MAILLAGE_SECT=MASEC,
                                  COOR_AXE_POUTRE=(0.0,0.0,),),
);

# ------ TORSION GX : --------------------------------------------------

CHARG4=AFFE_CHAR_MECA(MODELE=MO,
                      DDL_IMPO=_F(GROUP_NO='A',
                                  DX=0.0,
                                  DY=0.0,
                                  DZ=0.0,
                                  DRX=0.0,
                                  DRY=0.0,
                                  DRZ=0.0,),
                      FORCE_NODALE=_F(GROUP_NO='B',
                                      MX= 5.7735026919E-01,
                                      MY= 5.7735026919E-01,
                                      MZ= 5.7735026919E-01,
                                      ),);

MEST4=MECA_STATIQUE(MODELE=MO,
                    CHAM_MATER=CHMAT,
                    CARA_ELEM=CAREL,
                    EXCIT=_F(CHARGE=CHARG4,),);

TEST_RESU(RESU=(

# SECTION RECTANGLE
 
   _F( RESULTAT = MEST4, NOM_CHAM = 'DEPL', NUME_ORDRE = 1,
       NOEUD = 'N3', NOM_CMP = 'DX', VALE = 0.0,
       PRECISION = 1.E-13, CRITERE = 'ABSOLU',
       REFERENCE = 'ANALYTIQUE'),
       
   _F( RESULTAT = MEST4, NOM_CHAM = 'DEPL', NUME_ORDRE = 1,
       NOEUD = 'N3', NOM_CMP = 'DY', VALE = 0.0,       
       PRECISION = 1.E-13, CRITERE = 'ABSOLU',
       REFERENCE = 'ANALYTIQUE'),
       
   _F( RESULTAT = MEST4, NOM_CHAM = 'DEPL', NUME_ORDRE = 1,
       NOEUD = 'N3', NOM_CMP = 'DZ', VALE = 0.0,       
       PRECISION = 1.E-13, CRITERE = 'ABSOLU',
       REFERENCE = 'ANALYTIQUE'),

   _F( RESULTAT = MEST4, NOM_CHAM = 'DEPL', NUME_ORDRE = 1,
       NOEUD = 'N3', NOM_CMP = 'DRX', VALE = 3.2792525E-07,
       PRECISION = 1.E-6, CRITERE = 'RELATIF',
       REFERENCE = 'ANALYTIQUE'),
                                     
   _F( RESULTAT = MEST4, NOM_CHAM = 'DEPL', NUME_ORDRE = 1,
       NOEUD = 'N3', NOM_CMP = 'DRY', VALE = 3.2792525E-07,
       PRECISION = 1.E-13, CRITERE = 'ABSOLU',
       REFERENCE = 'ANALYTIQUE'),
                                     
   _F( RESULTAT = MEST4, NOM_CHAM = 'DEPL', NUME_ORDRE = 1,
       NOEUD = 'N3', NOM_CMP = 'DRZ', VALE = 3.2792525E-07,
       PRECISION = 1.E-13, CRITERE = 'ABSOLU',
       REFERENCE = 'ANALYTIQUE'),),);

FIN();
#
