# TITRE TREILLIS DE BARRES ARTICULEES TRAITE UNIQUEMENT DES LIAISONS
# ======================================================================
# COPYRIGHT (C) 1991 - 2012  EDF R&D                  WWW.CODE-ASTER.ORG
# THIS PROGRAM IS FREE SOFTWARE; YOU CAN REDISTRIBUTE IT AND/OR MODIFY
# IT UNDER THE TERMS OF THE GNU GENERAL PUBLIC LICENSE AS PUBLISHED BY
# THE FREE SOFTWARE FOUNDATION; EITHER VERSION 2 OF THE LICENSE, OR
# (AT YOUR OPTION) ANY LATER VERSION.
#
# THIS PROGRAM IS DISTRIBUTED IN THE HOPE THAT IT WILL BE USEFUL, BUT
# WITHOUT ANY WARRANTY; WITHOUT EVEN THE IMPLIED WARRANTY OF
# MERCHANTABILITY OR FITNESS FOR A PARTICULAR PURPOSE. SEE THE GNU
# GENERAL PUBLIC LICENSE FOR MORE DETAILS.
#
# YOU SHOULD HAVE RECEIVED A COPY OF THE GNU GENERAL PUBLIC LICENSE
# ALONG WITH THIS PROGRAM; IF NOT, WRITE TO EDF R&D CODE_ASTER,
#    1 AVENUE DU GENERAL DE GAULLE, 92141 CLAMART CEDEX, FRANCE.
# ======================================================================
# SSLL11/B                    COMMANDES                          7/03/91
# TREILLIS DE BARRES ARTICULEES SOUS CHARGE PONCTUELLE
# FY = -98100 N
#                                                   REF: SFM.VPCS SSLL11
#=======================================================================


DEBUT(CODE=_F(NOM='SSLL11B', NIV_PUB_WEB='INTERNET'), DEBUG=_F(SDVERI='OUI'))

MATER=DEFI_MATERIAU( ELAS=_F(  RHO = 1.E04,  E = 1.962E11, NU = 0.3,
                                 AMOR_ALPHA = 0.1,  AMOR_BETA = 0.1)  )

MA=LIRE_MAILLAGE(  )

CHMAT=AFFE_MATERIAU(  MAILLAGE=MA,
                          AFFE=_F(  TOUT = 'OUI',   MATER = MATER)  )

MOD=AFFE_MODELE(   MAILLAGE=MA,
                       AFFE=_F(  TOUT = 'OUI',  PHENOMENE = 'MECANIQUE',
                              MODELISATION = 'POU_D_T')  )

E1=0.005

R1=(1.E-04 + pi*E1*E1) / (2.*pi*E1)

E2=0.006

R2=(2.E-04 + pi*E2*E2) / (2.*pi*E2)

CAREL=AFFE_CARA_ELEM(  MODELE=MOD,
                POUTRE=(_F( GROUP_MA = 'ACBC',  SECTION = 'CERCLE',
                            VARI_SECT = 'HOMOTHETIQUE',
                            CARA = ( 'R1', 'R2', 'EP1', 'EP2', ),
                            VALE = (  R2,   R2,   E2,   E2,  )),
                        _F( GROUP_MA = 'CDBD', SECTION = 'CERCLE',
                            VARI_SECT = 'HOMOTHETIQUE',
                            CARA = ( 'R1', 'R2', 'EP1', 'EP2', ),
                            VALE = (  R1,   R1,   E1,   E1,  ))) )

CHADEP=CREA_CHAMP( OPERATION='AFFE', TYPE_CHAM='NOEU_DEPL_R',
                   MAILLAGE=MA,
     AFFE=_F(   NOEUD = ('A1','B2',), NOM_CMP = ( 'DY',), VALE = ( 1.,))
                       )

CH=AFFE_CHAR_MECA(    MODELE=MOD,
           FORCE_NODALE=_F( NOEUD = 'D3',     FY = -9810.),DDL_IMPO=(
           _F( TOUT = 'OUI', DZ = 0., DRX = 0., DRY = 0.),
          _F( NOEUD = ('A1', 'B2',    ),  DX = 0.),
          _F( NOEUD = (        'B4',),         DY = 0.)),LIAISON_DDL=(
          _F(  NOEUD = ('A1','B4',),
                        DDL = ('DX','DX',),
                        COEF_MULT = (1.,-1.,),
                        COEF_IMPO = 0.),
          _F(  NOEUD = ('A1','B2',),
                        DDL = ('DY','DY',),
                        COEF_MULT = (1.,-1.,),
                        COEF_IMPO = 0.),
# D3,D4
          _F( NOEUD = ('D3','D4',),
                       DDL = ('DX','DX',),
                       COEF_MULT = (1.,-1.,),
                       COEF_IMPO = 0.),
          _F( NOEUD = ('D3','D4',),
                       DDL = ('DY','DY',),
                       COEF_MULT = (1.,-1.,),
                       COEF_IMPO = 0.),
# C3,C2
          _F( NOEUD = ('C3','C2',),
                       DDL = ('DX','DX',),
                       COEF_MULT = (1.,-1.,),
                       COEF_IMPO = 0.),
          _F( NOEUD = ('C3','C2',),
                       DDL = ('DY','DY',),
                       COEF_MULT = (1.,-1.,),
                       COEF_IMPO = 0.),
# C3,C1
          _F( NOEUD = ('C3','C1',),
                       DDL = ('DX','DX',),
                       COEF_MULT = (1.,-1.,),
                       COEF_IMPO = 0.),
          _F( NOEUD = ('C3','C1',),
                       DDL = ('DY','DY',),
                       COEF_MULT = (1.,-1.,),
                       COEF_IMPO = 0.)),
           LIAISON_CHAMNO=_F( CHAM_NO = CHADEP,  # NUME_LAGR = 'APRES',
                           COEF_IMPO = 0.)               )

#
# CALCUL ELEMENTS FINIS RESOLUTION
#

U=MECA_STATIQUE( MODELE=MOD,  CHAM_MATER=CHMAT,  CARA_ELEM=CAREL,
                      EXCIT=_F( CHARGE = CH))

U1=CREA_CHAMP( OPERATION='EXTR', TYPE_CHAM='NOEU_DEPL_R',
RESULTAT=U, NOM_CHAM='DEPL', NUME_ORDRE=1)

#---------------------------------------------------------------------

TEST_RESU(CHAM_NO=(_F(NOEUD='C3',
                      CRITERE='RELATIF',
                      REFERENCE='ANALYTIQUE',
                      NOM_CMP='DX',
                      PRECISION=2.9999999999999997E-4,
                      CHAM_GD=U1,
                      VALE_CALC= 2.65165043E-04,
                      VALE_REFE=2.6517000000000001E-4,),
                   _F(NOEUD='C3',
                      CRITERE='RELATIF',
                      REFERENCE='ANALYTIQUE',
                      NOM_CMP='DY',
                      PRECISION=2.9999999999999997E-4,
                      CHAM_GD=U1,
                      VALE_CALC= 8.83883476E-05,
                      VALE_REFE=8.8389999999999999E-05,),
                   _F(NOEUD='D3',
                      CRITERE='RELATIF',
                      REFERENCE='ANALYTIQUE',
                      NOM_CMP='DX',
                      PRECISION=2.9999999999999997E-4,
                      CHAM_GD=U1,
                      VALE_CALC= 3.47902545E-03,
                      VALE_REFE=3.4790200000000002E-3,),
                   _F(NOEUD='D4',
                      CRITERE='RELATIF',
                      REFERENCE='ANALYTIQUE',
                      NOM_CMP='DY',
                      PRECISION=2.9999999999999997E-4,
                      CHAM_GD=U1,
                      VALE_CALC=-5.60034579E-03,
                      VALE_REFE=-5.6008400000000002E-3,),
                   ),
          )

#---------------------------------------------------------------------

#---POUR TESTER D'AUTRES MOT CLEF DE MECA_STATIQUE : -----------------

F1=DEFI_FONCTION(   NOM_PARA='INST',
                 VALE=(0.,0., 10.,10.,))

LT=DEFI_LIST_REEL(  DEBUT=0.5, INTERVALLE=_F(  JUSQU_A = 1.5, PAS = 0.5))

V=MECA_STATIQUE( MODELE=MOD,   CHAM_MATER=CHMAT,   CARA_ELEM=CAREL,
                      LIST_INST=LT,
                      EXCIT=_F( CHARGE = CH, FONC_MULT = F1))

V1=CREA_CHAMP( OPERATION='EXTR', TYPE_CHAM='NOEU_DEPL_R',
RESULTAT=V, NOM_CHAM='DEPL', NUME_ORDRE=2)

TEST_RESU(CHAM_NO=(_F(NOEUD='C3',
                      CRITERE='RELATIF',
                      REFERENCE='ANALYTIQUE',
                      NOM_CMP='DX',
                      PRECISION=2.9999999999999997E-4,
                      CHAM_GD=V1,
                      VALE_CALC= 2.65165043E-04,
                      VALE_REFE=2.6517000000000001E-4,),
                   _F(NOEUD='C3',
                      CRITERE='RELATIF',
                      REFERENCE='ANALYTIQUE',
                      NOM_CMP='DY',
                      PRECISION=2.9999999999999997E-4,
                      CHAM_GD=V1,
                      VALE_CALC= 8.83883476E-05,
                      VALE_REFE=8.8389999999999999E-05,),
                   _F(NOEUD='D3',
                      CRITERE='RELATIF',
                      REFERENCE='ANALYTIQUE',
                      NOM_CMP='DX',
                      PRECISION=2.9999999999999997E-4,
                      CHAM_GD=V1,
                      VALE_CALC= 3.47902545E-03,
                      VALE_REFE=3.4790200000000002E-3,),
                   _F(NOEUD='D4',
                      CRITERE='RELATIF',
                      REFERENCE='ANALYTIQUE',
                      NOM_CMP='DY',
                      PRECISION=2.9999999999999997E-4,
                      CHAM_GD=V1,
                      VALE_CALC=-5.60034579E-03,
                      VALE_REFE=-5.6008400000000002E-3,),
                   ),
          )

#======================================================================
#                 CHARGE  REELLE : NOTRE REFERENCE
#======================================================================


CHARGE1=AFFE_CHAR_MECA(    MODELE=MOD,DDL_IMPO=(

            _F(  TOUT = 'OUI', DZ = 0.,  DRX = 0.,  DRY = 0.),
            _F(  NOEUD = ( 'A1', 'B2', 'B4', ),  DX = 0.,    DY = 0.)),LIAISON_DDL=(

            _F(  NOEUD = ('D3','D4',),   DDL = ('DX','DX',),
                          COEF_MULT = (1.,-1.,),
                          COEF_IMPO = 0.),
            _F(  NOEUD = ('D3','D4',),  DDL = ('DY','DY',),
                          COEF_MULT = (1.,-1.,),
                          COEF_IMPO = 0.),
            _F(  NOEUD = ('C3','C2',),  DDL = ('DX','DX',),
                          COEF_MULT = (1.,-1.,),
                          COEF_IMPO = 0.),
            _F(  NOEUD = ('C3','C2',),  DDL = ('DY','DY',),
                          COEF_MULT = (1.,-1.,),
                          COEF_IMPO = 0.),
            _F(  NOEUD = ('C3','C1',),  DDL = ('DX','DX',),
                          COEF_MULT = (1.,-1.,),
                          COEF_IMPO = 0.),
            _F(  NOEUD = ('C3','C1',),  DDL = ('DY','DY',),
                          COEF_MULT = (1.,-1.,),
                          COEF_IMPO = 0.))
                    )

CHARGER=AFFE_CHAR_MECA(    MODELE=MOD,
                             FORCE_POUTRE=_F(  MAILLE = 'CD',   FY = -9810.)
                           )

MATELER=CALC_MATR_ELEM(  MODELE=MOD,           OPTION='RIGI_MECA',
                             CARA_ELEM=CAREL,      CHAM_MATER=CHMAT,
                             CHARGE=( CHARGE1, CHARGER, )       )

MATELEM=CALC_MATR_ELEM(  MODELE=MOD,           OPTION='MASS_MECA',
                             CARA_ELEM=CAREL,      CHAM_MATER=CHMAT,
                             CHARGE=( CHARGE1, CHARGER, )       )

MATELEC=CALC_MATR_ELEM(  MODELE=MOD,           OPTION='AMOR_MECA',
                             RIGI_MECA=MATELER,    MASS_MECA=MATELEM,
                             CARA_ELEM=CAREL,      CHAM_MATER=CHMAT,
                             CHARGE=( CHARGE1, CHARGER, )       )

VECTELE=CALC_VECT_ELEM(  CHARGE=CHARGER,        OPTION='CHAR_MECA',
                             CARA_ELEM=CAREL,      CHAM_MATER=CHMAT )

NUM=NUME_DDL(  MATR_RIGI=MATELER  )

MATASSR=ASSE_MATRICE(  MATR_ELEM=MATELER,    NUME_DDL=NUM  )

MATASSM=ASSE_MATRICE(  MATR_ELEM=MATELEM,    NUME_DDL=NUM  )

MATASSC=ASSE_MATRICE(  MATR_ELEM=MATELEC,    NUME_DDL=NUM  )

VECTASS=ASSE_VECTEUR(  VECT_ELEM=VECTELE,    NUME_DDL=NUM  )

DYNHAR0=DYNA_VIBRA(TYPE_CALCUL='HARM',BASE_CALCUL='PHYS',
                             MATR_MASS=MATASSM, MATR_RIGI=MATASSR,
                             MATR_AMOR=MATASSC,   FREQ=100.,
                             TOUT_CHAM='OUI',
                             EXCIT=_F(  COEF_MULT = 1.,
                                        VECT_ASSE = VECTASS)   )

TEST_RESU(RESU=(_F(VALE_CALC_C=(-1.6507343659112E-05-9.2242372340824E-06j),
                   RESULTAT=DYNHAR0,
                   NOM_CHAM='DEPL',
                   NOEUD='D4',
                   NOM_CMP='DX',
                   FREQ=100.0,
                   ),
                _F(VALE_CALC_C=(2.5282926844858E-05+1.8018356548344E-05j),
                   RESULTAT=DYNHAR0,
                   NOM_CHAM='DEPL',
                   NOEUD='D4',
                   NOM_CMP='DY',
                   FREQ=100.0,
                   ),
                _F(VALE_CALC_C=(5.7957591859125E-03-0.010371869913950j),
                   RESULTAT=DYNHAR0,
                   NOM_CHAM='VITE',
                   NOEUD='D4',
                   NOM_CMP='DX',
                   FREQ=100.0,
                   ),
                _F(VALE_CALC_C=(-0.011321267312408+0.015885731447411j),
                   RESULTAT=DYNHAR0,
                   NOM_CHAM='VITE',
                   NOEUD='D4',
                   NOM_CMP='DY',
                   FREQ=100.0,
                   ),
                _F(VALE_CALC_C=(6.5168380651308+3.6415828960877j),
                   RESULTAT=DYNHAR0,
                   NOM_CHAM='ACCE',
                   NOEUD='D4',
                   NOM_CMP='DX',
                   FREQ=100.0,
                   ),
                _F(VALE_CALC_C=(-9.9812994424171-7.1133620435974j),
                   RESULTAT=DYNHAR0,
                   NOM_CHAM='ACCE',
                   NOEUD='D4',
                   NOM_CMP='DY',
                   FREQ=100.0,
                   ),
                ),
          )

#======================================================================
#                  VALIDATION  CHARGE  COMPLEXE
#======================================================================

# 1/ CHARGE COMPLEXE REELLE PURE:
#    ----------------------------

CHARGEC=AFFE_CHAR_MECA_C(    MODELE=MOD,

            FORCE_POUTRE=_F(  MAILLE = 'CD',    FY = -9810.+0.j),DDL_IMPO=(

            _F(  TOUT = 'OUI', DZ = 0.+0.j,  DRX = 0.+0.j,
                                    DRY = 0.+0.j),
            _F(  NOEUD = ( 'A1', 'B2', 'B4', ),  DX = 0.+0.j,
                                               DY = 0.+0.j)),LIAISON_DDL=(

            _F(  NOEUD = ('D3','D4',),   DDL = ('DX','DX',),
                          COEF_MULT = (1.,-1.,),
                          COEF_IMPO = 0.+0.j),
            _F(  NOEUD = ('D3','D4',),  DDL = ('DY','DY',),
                          COEF_MULT = (1.,-1.,),
                          COEF_IMPO = 0.+0.j),
            _F(  NOEUD = ('C3','C2',),  DDL = ('DX','DX',),
                          COEF_MULT = (1.,-1.,),
                          COEF_IMPO = 0.+0.j),
            _F(  NOEUD = ('C3','C2',),  DDL = ('DY','DY',),
                          COEF_MULT = (1.,-1.,),
                          COEF_IMPO = 0.+0.j),
            _F(  NOEUD = ('C3','C1',),  DDL = ('DX','DX',),
                          COEF_MULT = (1.,-1.,),
                          COEF_IMPO = 0.+0.j),
            _F(  NOEUD = ('C3','C1',),  DDL = ('DY','DY',),
                          COEF_MULT = (1.,-1.,),
                          COEF_IMPO = 0.+0.j))
                    )

MATELCR=CALC_MATR_ELEM(  MODELE=MOD,           OPTION='RIGI_MECA',
                             CARA_ELEM=CAREL,      CHAM_MATER=CHMAT,
                             CHARGE=CHARGEC        )

MATELCM=CALC_MATR_ELEM(  MODELE=MOD,           OPTION='MASS_MECA',
                             CARA_ELEM=CAREL,      CHAM_MATER=CHMAT,
                             CHARGE=CHARGEC        )

MATELCC=CALC_MATR_ELEM(  MODELE=MOD,           OPTION='AMOR_MECA',
                             RIGI_MECA=MATELCR,    MASS_MECA=MATELCM,
                             CARA_ELEM=CAREL,      CHAM_MATER=CHMAT,
                             CHARGE=CHARGEC        )

NUMC=NUME_DDL(  MATR_RIGI=MATELCR  )

MATASCR=ASSE_MATRICE(  MATR_ELEM=MATELCR,    NUME_DDL=NUMC  )

MATASCM=ASSE_MATRICE(  MATR_ELEM=MATELCM,    NUME_DDL=NUMC  )

MATASCC=ASSE_MATRICE(  MATR_ELEM=MATELCC,    NUME_DDL=NUMC  )

DYNHAC0=DYNA_VIBRA(TYPE_CALCUL='HARM',BASE_CALCUL='PHYS',
                             MATR_MASS=MATASCM, MATR_RIGI=MATASCR,
                             MATR_AMOR=MATASCC,   FREQ=100.,
                             TOUT_CHAM='OUI',
                             MODELE=MOD,
                             CARA_ELEM=CAREL,      CHAM_MATER=CHMAT,
                             EXCIT=_F(  COEF_MULT_C = 1.+0.j,
                                     CHARGE = CHARGEC)   )

TEST_RESU(RESU=(_F(VALE_CALC_C=(-1.6507343659112E-05-9.2242372340824E-06j),
                   RESULTAT=DYNHAC0,
                   NOM_CHAM='DEPL',
                   NOEUD='D4',
                   NOM_CMP='DX',
                   FREQ=100.0,
                   ),
                _F(VALE_CALC_C=(2.5282926844858E-05+1.8018356548344E-05j),
                   RESULTAT=DYNHAC0,
                   NOM_CHAM='DEPL',
                   NOEUD='D4',
                   NOM_CMP='DY',
                   FREQ=100.0,
                   ),
                _F(VALE_CALC_C=(5.7957591859125E-03-0.010371869913950j),
                   RESULTAT=DYNHAC0,
                   NOM_CHAM='VITE',
                   NOEUD='D4',
                   NOM_CMP='DX',
                   FREQ=100.0,
                   ),
                _F(VALE_CALC_C=(-0.011321267312408+0.015885731447411j),
                   RESULTAT=DYNHAC0,
                   NOM_CHAM='VITE',
                   NOEUD='D4',
                   NOM_CMP='DY',
                   FREQ=100.0,
                   ),
                _F(VALE_CALC_C=(6.5168380651308+3.6415828960877j),
                   RESULTAT=DYNHAC0,
                   NOM_CHAM='ACCE',
                   NOEUD='D4',
                   NOM_CMP='DX',
                   FREQ=100.0,
                   ),
                _F(VALE_CALC_C=(-9.9812994424171-7.1133620435974j),
                   RESULTAT=DYNHAC0,
                   NOM_CHAM='ACCE',
                   NOEUD='D4',
                   NOM_CMP='DY',
                   FREQ=100.0,
                   ),
                ),
          )

# TEST DE L IMPRESSIION DE LA PARTIE REELLE ET IMAGINAIRE AU FORMAT GMSH

DEFI_FICHIER( UNITE=36,
              FICHIER= './REPE_OUT/ssll11b.36')

IMPR_RESU(UNITE=36,FORMAT='GMSH',
          RESU=(_F(RESULTAT=DYNHAC0,TYPE_CHAM='VECT_3D',NOM_CMP=('DX','DY','DZ'),NOM_CHAM='DEPL',PARTIE='REEL'),
                _F(RESULTAT=DYNHAC0,NOM_CMP=('DRX','DRY','DRZ'),NOM_CHAM='DEPL',PARTIE='REEL'),),);

IMPR_RESU(FORMAT='MED',
          RESU=_F(RESULTAT=DYNHAC0,NOM_CHAM='DEPL',PARTIE='REEL'),);

IMPR_RESU(
          RESU=_F(RESULTAT=DYNHAC0,NOM_CHAM='DEPL',),);

DEFI_FICHIER(ACTION='LIBERER',UNITE=36)

TEST_FICHIER(FICHIER='./REPE_OUT/ssll11b.36',
             NB_VALE=271,
             VALE_CALC=4.7320008E+02,)

DEFI_FICHIER( UNITE=37,
              FICHIER= './REPE_OUT/ssll11b.37')

IMPR_RESU(UNITE=37,FORMAT='GMSH',
          RESU=(_F(RESULTAT=DYNHAC0,TYPE_CHAM='VECT_3D',NOM_CMP=('DX','DY','DZ'),NOM_CHAM='DEPL',PARTIE='IMAG'),
                _F(RESULTAT=DYNHAC0,NOM_CMP=('DRX','DRY','DRZ'),NOM_CHAM='DEPL',PARTIE='IMAG'),),);

DEFI_FICHIER(ACTION='LIBERER',UNITE=37)

TEST_FICHIER(FICHIER='./REPE_OUT/ssll11b.37',
             NB_VALE=271,
             VALE_CALC=4.7320009E+02,)
#
#======================================================================
#

FP=DEFI_FONCTION(    NOM_PARA='INST',
                             VALE=( 0.,  0.,    1., -9810., ),
                         INTERPOL='LIN'
                     )

CHARGE2=AFFE_CHAR_MECA_F(    MODELE=MOD,
                               FORCE_POUTRE=_F(  MAILLE = 'CD',   FY = FP)
                             )

L_INST=DEFI_LIST_REEL(   DEBUT=0.0,
                            INTERVALLE=_F(  JUSQU_A = 1.,   NOMBRE = 2)
                          )

STNL1=STAT_NON_LINE(
                            MODELE=MOD,
                        CHAM_MATER=CHMAT,
                         CARA_ELEM=CAREL,EXCIT=(
                             _F(
                CHARGE = CHARGE1), _F(
                CHARGE = CHARGE2)),
                         INCREMENT=_F(
                LIST_INST = L_INST,
                NUME_INST_FIN = 2),
                         COMP_INCR=_F(
                RELATION = 'ELAS'),
                       CONVERGENCE=_F(
                RESI_GLOB_RELA = 1.E-6)
              )

STNL1=CALC_CHAMP(reuse=STNL1,CONTRAINTE=('SIEF_ELNO'),VARI_INTERNE=('VARI_ELNO'),RESULTAT=STNL1)


DEPL1=CREA_CHAMP( OPERATION='EXTR', TYPE_CHAM='NOEU_DEPL_R',
RESULTAT=STNL1,
                           NOM_CHAM='DEPL',
                         NUME_ORDRE=2
                     )

STL1 = CREA_RESU(OPERATION='AFFE',
                 TYPE_RESU='EVOL_ELAS',
                 NOM_CHAM='DEPL',
                 AFFE=_F(CHAM_GD=DEPL1,
                         INST=0.,
                         MODELE=MOD,
                         CARA_ELEM=CAREL,
                         CHAM_MATER=CHMAT,
                         )
                );


STL1=CALC_CHAMP(reuse=STL1,RESULTAT=STL1,INST=0.,CONTRAINTE=('EFGE_ELNO'))


#
# LA CALCUL STATIQUE (MECA_STATIQUE) DONNE LA SOLUTION DE REFERENCE
#
TEST_RESU(RESU=(_F(INST=0.0,
                   REFERENCE='AUTRE_ASTER',
                   RESULTAT=STL1,
                   NOM_CHAM='EFGE_ELNO',
                   NOEUD='C3',
                   NOM_CMP='N',
                   VALE_CALC= 1.22625000E+04,
                   VALE_REFE=1.22625E4,
                   MAILLE='CD',),
                _F(INST=0.0,
                   REFERENCE='AUTRE_ASTER',
                   RESULTAT=STL1,
                   NOM_CHAM='EFGE_ELNO',
                   NOEUD='C3',
                   NOM_CMP='MFZ',
                   VALE_CALC= 1.93887149E+03,
                   VALE_REFE=1938.8699999999999,
                   MAILLE='CD',),
                _F(INST=0.0,
                   REFERENCE='AUTRE_ASTER',
                   RESULTAT=STL1,
                   NOM_CHAM='EFGE_ELNO',
                   NOEUD='D4',
                   NOM_CMP='N',
                   VALE_CALC=-1.64518701E+04,
                   VALE_REFE=-1.6451900000000001E4,
                   MAILLE='BD',),
                _F(INST=0.0,
                   REFERENCE='AUTRE_ASTER',
                   RESULTAT=STL1,
                   NOM_CHAM='EFGE_ELNO',
                   NOEUD='D4',
                   NOM_CMP='MFZ',
                   VALE_CALC= 0.00000000E+00,
                   VALE_REFE=0.0,
                   CRITERE='ABSOLU',
                   MAILLE='BD',),
                ),)

TEST_RESU(CHAM_NO=(_F(NOEUD='D4',
                      REFERENCE='AUTRE_ASTER',
                      NOM_CMP='DX',
                      CHAM_GD=DEPL1,
                      VALE_CALC= 2.68053399E-03,
                      VALE_REFE=2.68053E-3,),
                   _F(NOEUD='D4',
                      REFERENCE='AUTRE_ASTER',
                      NOM_CMP='DY',
                      CHAM_GD=DEPL1,
                      VALE_CALC=-4.35758497E-03,
                      VALE_REFE=-4.3575799999999998E-3,),
                   _F(NOEUD='C3',
                      REFERENCE='AUTRE_ASTER',
                      NOM_CMP='DX',
                      CHAM_GD=DEPL1,
                      VALE_CALC= 2.09631373E-04,
                      VALE_REFE=2.09631E-4,),
                   _F(NOEUD='C3',
                      REFERENCE='AUTRE_ASTER',
                      NOM_CMP='DY',
                      CHAM_GD=DEPL1,
                      VALE_CALC=-6.98771243E-05,
                      VALE_REFE=-6.9877100000000002E-05,),
                   ),
          )

FIN()
#
