# MODIF  DATE 25/03/2008   AUTEUR LEBOUVIER F.LEBOUVIER 
# TITRE POUTRE ENCASTREE A UNE EXTREMITE ET CHARGEE PAR DES FORCES
#            CONFIGURATION MANAGEMENT OF EDF VERSION
# ======================================================================
# COPYRIGHT (C) 1991 - 2001  EDF R&D                  WWW.CODE-ASTER.ORG
# THIS PROGRAM IS FREE SOFTWARE; YOU CAN REDISTRIBUTE IT AND/OR MODIFY
# IT UNDER THE TERMS OF THE GNU GENERAL PUBLIC LICENSE AS PUBLISHED BY
# THE FREE SOFTWARE FOUNDATION; EITHER VERSION 2 OF THE LICENSE, OR
# (AT YOUR OPTION) ANY LATER VERSION.
#
# THIS PROGRAM IS DISTRIBUTED IN THE HOPE THAT IT WILL BE USEFUL, BUT
# WITHOUT ANY WARRANTY; WITHOUT EVEN THE IMPLIED WARRANTY OF
# MERCHANTABILITY OR FITNESS FOR A PARTICULAR PURPOSE. SEE THE GNU
# GENERAL PUBLIC LICENSE FOR MORE DETAILS.
#
# YOU SHOULD HAVE RECEIVED A COPY OF THE GNU GENERAL PUBLIC LICENSE
# ALONG WITH THIS PROGRAM; IF NOT, WRITE TO EDF R&D CODE_ASTER,
#    1 AVENUE DU GENERAL DE GAULLE, 92141 CLAMART CEDEX, FRANCE.
# ======================================================================
#       UNITAIRES SUR SON AUTRE EXTREMITE.
# MODELISATION POU_D_TG    GAUCHISSEMENT NON GENE   IW/=0
#  (LES RESULTATS SONT IDENTIQUES A CEUX DE POU_D_T : DE PLUS
#   LE DDL GRX VAUT DRX/L)
#======================================================================


DEBUT(CODE=_F(NOM='SSLL102C', NIV_PUB_WEB='INTERNET'), DEBUG=_F(SDVERI='OUI'))

MA=LIRE_MAILLAGE(                                                )

MO=AFFE_MODELE(        MAILLAGE=MA,
         AFFE=_F( TOUT = 'OUI',PHENOMENE = 'MECANIQUE',MODELISATION = 'POU_D_TG')
                        )

MATR=DEFI_MATERIAU(   ELAS=_F( E = 2.E11,  NU = 0.3, ALPHA = 0.) )

CHMAT=AFFE_MATERIAU(   MAILLAGE=MA,
                           AFFE=_F( TOUT = 'OUI', MATER = MATR)            )

CAREL=AFFE_CARA_ELEM(   MODELE=MO,POUTRE=(
          # SECTION RECTANGLE :
           _F(  GROUP_MA = 'G1',   SECTION = 'GENERALE',
          CARA = (   'A',            'IY',              'IZ',
                   'AY',           'AZ',              'JX',
                   'JG',                                   ),
          VALE = (  0.02,        0.166666666666E-4, 0.666666666666E-4,
                    1.2,         1.2,                 0.45776E-4,
                    5.555555555555E-8, )),
          # SECTION CORNIERE 120X120X8 :
           _F(  GROUP_MA = 'G2',   SECTION = 'GENERALE',
          CARA = (   'A',            'IY',              'IZ',
                   'AY',           'AZ',              'JX',
                   'EY',           'EZ',              'JG',        ),
          VALE = (  1.856E-3,       4.167339E-4,       1.045547E-4,
                    2.793296089385, 2.793296089385,    3.9595E-8,
                    41.012E-3,   0.0,   4.43988195555E-11,         )))
)

# ------ TRACTION SIMPLE GX : ------------------------------------------


CHARG1=AFFE_CHAR_MECA(  MODELE=MO,
    DDL_IMPO=_F( GROUP_NO = 'A', DX = 0., DY = 0., DZ = 0., DRX = 0., DRY = 0., DRZ = 0.),
     FORCE_NODALE=_F( GROUP_NO = 'B',  FX = 1.0E0)   )

MEST1=MECA_STATIQUE(        MODELE=MO,    CHAM_MATER=CHMAT,
            CARA_ELEM=CAREL, EXCIT=_F( CHARGE = CHARG1)   )

 
TEST_RESU(RESU=(
   _F( RESULTAT = MEST1, NOM_CHAM = 'DEPL', NUME_ORDRE = 1,
NOEUD = 'N3', NOM_CMP = 'DX', VALE = 5.E-10,    PRECISION = 1.E-6, CRITERE = 'RELATIF', REFERENCE = 'ANALYTIQUE'),
   _F( RESULTAT = MEST1, NOM_CHAM = 'DEPL', NUME_ORDRE = 1,
NOEUD = 'N3', NOM_CMP = 'DY', VALE = 0.0,       PRECISION = 1.E-13, CRITERE = 'ABSOLU', REFERENCE = 'ANALYTIQUE'),
   _F( RESULTAT = MEST1, NOM_CHAM = 'DEPL', NUME_ORDRE = 1,
NOEUD = 'N3', NOM_CMP = 'DZ', VALE = 0.0,       PRECISION = 1.E-13, CRITERE = 'ABSOLU', REFERENCE = 'ANALYTIQUE'),
   _F( RESULTAT = MEST1, NOM_CHAM = 'DEPL', NUME_ORDRE = 1,
NOEUD = 'N3', NOM_CMP = 'DRX', VALE = 0.0,      PRECISION = 1.E-13, CRITERE = 'ABSOLU', REFERENCE = 'ANALYTIQUE'),
   _F( RESULTAT = MEST1, NOM_CHAM = 'DEPL', NUME_ORDRE = 1,
NOEUD = 'N3', NOM_CMP = 'DRY', VALE = 0.0,      PRECISION = 1.E-13, CRITERE = 'ABSOLU', REFERENCE = 'ANALYTIQUE'),
   _F( RESULTAT = MEST1, NOM_CHAM = 'DEPL', NUME_ORDRE = 1,
NOEUD = 'N3', NOM_CMP = 'DRZ', VALE = 0.0,      PRECISION = 1.E-13, CRITERE = 'ABSOLU', REFERENCE = 'ANALYTIQUE'),
   _F( RESULTAT = MEST1, NOM_CHAM = 'DEPL', NUME_ORDRE = 1,
NOEUD = 'M3', NOM_CMP = 'DX', VALE = 5.387931E-9,
                                     PRECISION = 1.E-6, CRITERE = 'RELATIF', REFERENCE = 'ANALYTIQUE'),
   _F( RESULTAT = MEST1, NOM_CHAM = 'DEPL', NUME_ORDRE = 1,
NOEUD = 'M3', NOM_CMP = 'DY', VALE = 0.0,       PRECISION = 1.E-13, CRITERE = 'ABSOLU', REFERENCE = 'ANALYTIQUE'),
   _F( RESULTAT = MEST1, NOM_CHAM = 'DEPL', NUME_ORDRE = 1,
NOEUD = 'M3', NOM_CMP = 'DZ', VALE = 0.0,       PRECISION = 1.E-13, CRITERE = 'ABSOLU', REFERENCE = 'ANALYTIQUE'),
   _F( RESULTAT = MEST1, NOM_CHAM = 'DEPL', NUME_ORDRE = 1,
NOEUD = 'M3', NOM_CMP = 'DRX', VALE = 0.0,      PRECISION = 1.E-13, CRITERE = 'ABSOLU', REFERENCE = 'ANALYTIQUE'),
   _F( RESULTAT = MEST1, NOM_CHAM = 'DEPL', NUME_ORDRE = 1,
NOEUD = 'M3', NOM_CMP = 'DRY', VALE = 0.0,      PRECISION = 1.E-13, CRITERE = 'ABSOLU', REFERENCE = 'ANALYTIQUE'),
   _F( RESULTAT = MEST1, NOM_CHAM = 'DEPL', NUME_ORDRE = 1,
NOEUD = 'M3', NOM_CMP = 'DRZ', VALE = 0.0,      PRECISION = 1.E-13, CRITERE = 'ABSOLU', REFERENCE = 'ANALYTIQUE'),
#
   _F( RESULTAT = MEST1, NOM_CHAM = 'DEPL', NUME_ORDRE = 1,
NOEUD = 'N1', NOM_CMP = 'GRX', VALE = 0.0,      PRECISION = 1.E-13, CRITERE = 'ABSOLU', REFERENCE = 'ANALYTIQUE'),
   _F( RESULTAT = MEST1, NOM_CHAM = 'DEPL', NUME_ORDRE = 1,
NOEUD = 'M1', NOM_CMP = 'GRX', VALE = 0.0,      PRECISION = 1.E-13, CRITERE = 'ABSOLU', REFERENCE = 'ANALYTIQUE'),
   _F( RESULTAT = MEST1, NOM_CHAM = 'DEPL', NUME_ORDRE = 1,
NOEUD = 'N3', NOM_CMP = 'GRX', VALE = 0.0,      PRECISION = 1.E-13, CRITERE = 'ABSOLU', REFERENCE = 'ANALYTIQUE'),
   _F( RESULTAT = MEST1, NOM_CHAM = 'DEPL', NUME_ORDRE = 1,
NOEUD = 'M3', NOM_CMP = 'GRX', VALE = 0.0,      PRECISION = 1.E-13, CRITERE = 'ABSOLU', REFERENCE = 'ANALYTIQUE'))
            )

#
# ------ EFFORT TRANCHANT GY : -----------------------------------------


CHARG2=AFFE_CHAR_MECA(  MODELE=MO,
    DDL_IMPO=_F( GROUP_NO = 'A', DX = 0., DY = 0., DZ = 0., DRX = 0., DRY = 0., DRZ = 0.),
     FORCE_NODALE=_F( GROUP_NO = 'B',  FY = 1.0E0)   )

MEST2=MECA_STATIQUE(        MODELE=MO,    CHAM_MATER=CHMAT,
            CARA_ELEM=CAREL, EXCIT=_F( CHARGE = CHARG2)   )

CALC_ELEM( reuse=MEST2,
                     RESULTAT=MEST2,
                       OPTION=('EFGE_ELNO_DEPL','EFGE_ELNO_CART'))

TEST_RESU(RESU=(
   _F( RESULTAT = MEST2, NOM_CHAM = 'DEPL', NUME_ORDRE = 1,
NOEUD = 'N3', NOM_CMP = 'DX', VALE = 0.0,      PRECISION = 1.E-13, CRITERE = 'ABSOLU', REFERENCE = 'ANALYTIQUE'),
   _F( RESULTAT = MEST2, NOM_CHAM = 'DEPL', NUME_ORDRE = 1,
NOEUD = 'N3', NOM_CMP = 'DY', VALE = 2.01560000E-7,
                                      PRECISION = 1.E-6, CRITERE = 'RELATIF', REFERENCE = 'ANALYTIQUE'),
   _F( RESULTAT = MEST2, NOM_CHAM = 'DEPL', NUME_ORDRE = 1,
NOEUD = 'N3', NOM_CMP = 'DZ', VALE = 0.0,       PRECISION = 1.E-13, CRITERE = 'ABSOLU', REFERENCE = 'ANALYTIQUE'),
   _F( RESULTAT = MEST2, NOM_CHAM = 'DEPL', NUME_ORDRE = 1,
NOEUD = 'N3', NOM_CMP = 'DRX', VALE = 0.0,      PRECISION = 1.E-13, CRITERE = 'ABSOLU', REFERENCE = 'ANALYTIQUE'),
   _F( RESULTAT = MEST2, NOM_CHAM = 'DEPL', NUME_ORDRE = 1,
NOEUD = 'N3', NOM_CMP = 'DRY', VALE = 0.0,      PRECISION = 1.E-13, CRITERE = 'ABSOLU', REFERENCE = 'ANALYTIQUE'),
   _F( RESULTAT = MEST2, NOM_CHAM = 'DEPL', NUME_ORDRE = 1,
NOEUD = 'N3', NOM_CMP = 'DRZ', VALE = 1.5E-7,   PRECISION = 1.E-6, CRITERE = 'RELATIF', REFERENCE = 'ANALYTIQUE'),
   _F( RESULTAT = MEST2, NOM_CHAM = 'DEPL', NUME_ORDRE = 1,
NOEUD = 'M3', NOM_CMP = 'DX', VALE = 0.0,       PRECISION = 1.E-13, CRITERE = 'ABSOLU', REFERENCE = 'ANALYTIQUE'),
   _F( RESULTAT = MEST2, NOM_CHAM = 'DEPL', NUME_ORDRE = 1,
NOEUD = 'M3', NOM_CMP = 'DY', VALE = 1.66655179E-7,
                                     PRECISION = 1.E-6, CRITERE = 'RELATIF', REFERENCE = 'ANALYTIQUE'),
   _F( RESULTAT = MEST2, NOM_CHAM = 'DEPL', NUME_ORDRE = 1,
NOEUD = 'M3', NOM_CMP = 'DZ', VALE = 0.0,       PRECISION = 1.E-13, CRITERE = 'ABSOLU', REFERENCE = 'ANALYTIQUE'),
   _F( RESULTAT = MEST2, NOM_CHAM = 'DEPL', NUME_ORDRE = 1,
NOEUD = 'M3', NOM_CMP = 'DRX', VALE = 0.0,      PRECISION = 1.E-13, CRITERE = 'ABSOLU', REFERENCE = 'ANALYTIQUE'),
   _F( RESULTAT = MEST2, NOM_CHAM = 'DEPL', NUME_ORDRE = 1,
NOEUD = 'M3', NOM_CMP = 'DRY', VALE = 0.0,      PRECISION = 1.E-13, CRITERE = 'ABSOLU', REFERENCE = 'ANALYTIQUE'),
   _F( RESULTAT = MEST2, NOM_CHAM = 'DEPL', NUME_ORDRE = 1,
NOEUD = 'M3', NOM_CMP = 'DRZ', VALE = 9.5643715E-8,
                                     PRECISION = 1.E-6, CRITERE = 'RELATIF', REFERENCE = 'ANALYTIQUE'),
#
   _F( RESULTAT = MEST2, NOM_CHAM = 'DEPL', NUME_ORDRE = 1,
NOEUD = 'N1', NOM_CMP = 'GRX', VALE = 0.0,      PRECISION = 1.E-13, CRITERE = 'ABSOLU', REFERENCE = 'ANALYTIQUE'),
   _F( RESULTAT = MEST2, NOM_CHAM = 'DEPL', NUME_ORDRE = 1,
NOEUD = 'M1', NOM_CMP = 'GRX', VALE = 0.0,      PRECISION = 1.E-13, CRITERE = 'ABSOLU', REFERENCE = 'ANALYTIQUE'),
   _F( RESULTAT = MEST2, NOM_CHAM = 'DEPL', NUME_ORDRE = 1,
NOEUD = 'N3', NOM_CMP = 'GRX', VALE = 0.0,      PRECISION = 1.E-13, CRITERE = 'ABSOLU', REFERENCE = 'ANALYTIQUE'),
   _F( RESULTAT = MEST2, NOM_CHAM = 'DEPL', NUME_ORDRE = 1,
NOEUD = 'M3', NOM_CMP = 'GRX', VALE = 0.0,      PRECISION = 1.E-13, CRITERE = 'ABSOLU', REFERENCE = 'ANALYTIQUE'))
            )

TEST_RESU(RESU=(
   _F( RESULTAT = MEST2, NOM_CHAM = 'EFGE_ELNO_DEPL', NUME_ORDRE = 1,
NOEUD = 'N1', MAILLE='S11',NOM_CMP = 'VY', VALE =1.0,      PRECISION = 1.E-6, REFERENCE = 'ANALYTIQUE'),
   _F( RESULTAT = MEST2, NOM_CHAM = 'EFGE_ELNO_DEPL', NUME_ORDRE = 1,
NOEUD = 'N1', MAILLE='S11', NOM_CMP = 'MFZ', VALE = 2.,     PRECISION = 1.E-6, REFERENCE = 'ANALYTIQUE')))

TEST_RESU(RESU=(
   _F( RESULTAT = MEST2, NOM_CHAM = 'EFGE_ELNO_CART', NUME_ORDRE = 1,
NOEUD = 'N1', MAILLE='S11',NOM_CMP = 'FY', VALE =1.0,      PRECISION = 1.E-6, REFERENCE = 'ANALYTIQUE'),
   _F( RESULTAT = MEST2, NOM_CHAM = 'EFGE_ELNO_CART', NUME_ORDRE = 1,
NOEUD = 'N1', MAILLE='S11', NOM_CMP = 'MZ', VALE = 2.,     PRECISION = 1.E-6, REFERENCE = 'ANALYTIQUE')))
#
# ------ EFFORT TRANCHANT GZ : -----------------------------------------


CHARG3=AFFE_CHAR_MECA(  MODELE=MO,
    DDL_IMPO=_F( GROUP_NO = 'A', DX = 0., DY = 0., DZ = 0., DRX = 0., DRY = 0., DRZ = 0.),
     FORCE_NODALE=_F( GROUP_NO = 'B',  FZ = 1.0E0)   )

MEST3=MECA_STATIQUE(        MODELE=MO,    CHAM_MATER=CHMAT,
            CARA_ELEM=CAREL, EXCIT=_F( CHARGE = CHARG3)   )

TEST_RESU(RESU=(
   _F( RESULTAT = MEST3, NOM_CHAM = 'DEPL', NUME_ORDRE = 1,
NOEUD = 'N3', NOM_CMP = 'DX', VALE = 0.0,       PRECISION = 1.E-13, CRITERE = 'ABSOLU', REFERENCE = 'ANALYTIQUE'),
   _F( RESULTAT = MEST3, NOM_CHAM = 'DEPL', NUME_ORDRE = 1,
NOEUD = 'N3', NOM_CMP = 'DY', VALE = 0.0,       PRECISION = 1.E-13, CRITERE = 'ABSOLU', REFERENCE = 'ANALYTIQUE'),
   _F( RESULTAT = MEST3, NOM_CHAM = 'DEPL', NUME_ORDRE = 1,
NOEUD = 'N3', NOM_CMP = 'DZ', VALE = 8.0156000E-7,
                                     PRECISION = 1.E-6, CRITERE = 'RELATIF', REFERENCE = 'ANALYTIQUE'),
   _F( RESULTAT = MEST3, NOM_CHAM = 'DEPL', NUME_ORDRE = 1,
NOEUD = 'N3', NOM_CMP = 'DRX', VALE = 0.0,      PRECISION = 1.E-13, CRITERE = 'ABSOLU', REFERENCE = 'ANALYTIQUE'),
   _F( RESULTAT = MEST3, NOM_CHAM = 'DEPL', NUME_ORDRE = 1,
NOEUD = 'N3', NOM_CMP = 'DRY', VALE = -6.E-7,   PRECISION = 1.E-6, CRITERE = 'RELATIF', REFERENCE = 'ANALYTIQUE'),
   _F( RESULTAT = MEST3, NOM_CHAM = 'DEPL', NUME_ORDRE = 1,
NOEUD = 'N3', NOM_CMP = 'DRZ', VALE = 0.0,      PRECISION = 1.E-13, CRITERE = 'ABSOLU', REFERENCE = 'ANALYTIQUE'),
   _F( RESULTAT = MEST3, NOM_CHAM = 'DEPL', NUME_ORDRE = 1,
NOEUD = 'M3', NOM_CMP = 'DX', VALE = 0.0,       PRECISION = 1.E-13, CRITERE = 'ABSOLU', REFERENCE = 'ANALYTIQUE'),
   _F( RESULTAT = MEST3, NOM_CHAM = 'DEPL', NUME_ORDRE = 1,
NOEUD = 'M3', NOM_CMP = 'DY', VALE = 0.0,       PRECISION = 1.E-13, CRITERE = 'ABSOLU', REFERENCE = 'ANALYTIQUE'),
   _F( RESULTAT = MEST3, NOM_CHAM = 'DEPL', NUME_ORDRE = 1,
NOEUD = 'M3', NOM_CMP = 'DZ', VALE = 1.17559754E-6,
                                    PRECISION = 1.E-6, CRITERE = 'RELATIF', REFERENCE = 'ANALYTIQUE'),
   _F( RESULTAT = MEST3, NOM_CHAM = 'DEPL', NUME_ORDRE = 1,
NOEUD = 'M3', NOM_CMP = 'DRX', VALE = 2.69304710E-5,
                                    PRECISION = 1.E-6, CRITERE = 'RELATIF', REFERENCE = 'ANALYTIQUE'),
   _F( RESULTAT = MEST3, NOM_CHAM = 'DEPL', NUME_ORDRE = 1,
NOEUD = 'M3', NOM_CMP = 'DRY', VALE = -2.3996127E-8,
                                    PRECISION = 1.E-6, CRITERE = 'RELATIF', REFERENCE = 'ANALYTIQUE'),
   _F( RESULTAT = MEST3, NOM_CHAM = 'DEPL', NUME_ORDRE = 1,
NOEUD = 'M3', NOM_CMP = 'DRZ', VALE = 0.0,     PRECISION = 1.E-13, CRITERE = 'ABSOLU', REFERENCE = 'ANALYTIQUE'),
#
   _F( RESULTAT = MEST3, NOM_CHAM = 'DEPL', NUME_ORDRE = 1,
NOEUD = 'N1', NOM_CMP = 'GRX', VALE = 0.0,      PRECISION = 1.E-13, CRITERE = 'ABSOLU', REFERENCE = 'ANALYTIQUE'),
   _F( RESULTAT = MEST3, NOM_CHAM = 'DEPL', NUME_ORDRE = 1,
NOEUD = 'M1', NOM_CMP = 'GRX', VALE = 1.3465235E-5,
                                     PRECISION = 1.E-6, CRITERE = 'RELATIF', REFERENCE = 'ANALYTIQUE'),
   _F( RESULTAT = MEST3, NOM_CHAM = 'DEPL', NUME_ORDRE = 1,
NOEUD = 'N3', NOM_CMP = 'GRX', VALE = 0.0,      PRECISION = 1.E-13, CRITERE = 'ABSOLU', REFERENCE = 'ANALYTIQUE'),
   _F( RESULTAT = MEST3, NOM_CHAM = 'DEPL', NUME_ORDRE = 1,
NOEUD = 'M3', NOM_CMP = 'GRX', VALE = 1.3465235E-5,
                                     PRECISION = 1.E-6, CRITERE = 'RELATIF', REFERENCE = 'ANALYTIQUE'))
            )

#
# ------ TORSION GX : --------------------------------------------------


CHARG4=AFFE_CHAR_MECA(  MODELE=MO,
    DDL_IMPO=_F( GROUP_NO = 'A', DX = 0., DY = 0., DZ = 0., DRX = 0., DRY = 0., DRZ = 0.),
     FORCE_NODALE=_F( GROUP_NO = 'B',  MX = 1.0E0)   )

MEST4=MECA_STATIQUE(        MODELE=MO,    CHAM_MATER=CHMAT,
            CARA_ELEM=CAREL, EXCIT=_F( CHARGE = CHARG4)   )

TEST_RESU(RESU=(
   _F( RESULTAT = MEST4, NOM_CHAM = 'DEPL', NUME_ORDRE = 1,
NOEUD = 'N3', NOM_CMP = 'DX', VALE = 0.0,       PRECISION = 1.E-13, CRITERE = 'ABSOLU', REFERENCE = 'ANALYTIQUE'),
   _F( RESULTAT = MEST4, NOM_CHAM = 'DEPL', NUME_ORDRE = 1,
NOEUD = 'N3', NOM_CMP = 'DY', VALE = 0.0,       PRECISION = 1.E-13, CRITERE = 'ABSOLU', REFERENCE = 'ANALYTIQUE'),
   _F( RESULTAT = MEST4, NOM_CHAM = 'DEPL', NUME_ORDRE = 1,
NOEUD = 'N3', NOM_CMP = 'DZ', VALE = 0.0,       PRECISION = 1.E-13, CRITERE = 'ABSOLU', REFERENCE = 'ANALYTIQUE'),
   _F( RESULTAT = MEST4, NOM_CHAM = 'DEPL', NUME_ORDRE = 1,
NOEUD = 'N3', NOM_CMP = 'DRX', VALE = 5.679832E-7,
                                     PRECISION = 1.E-6, CRITERE = 'RELATIF', REFERENCE = 'ANALYTIQUE'),
   _F( RESULTAT = MEST4, NOM_CHAM = 'DEPL', NUME_ORDRE = 1,
NOEUD = 'N3', NOM_CMP = 'DRY', VALE = 0.0,      PRECISION = 1.E-13, CRITERE = 'ABSOLU', REFERENCE = 'ANALYTIQUE'),
   _F( RESULTAT = MEST4, NOM_CHAM = 'DEPL', NUME_ORDRE = 1,
NOEUD = 'N3', NOM_CMP = 'DRZ', VALE = 0.0,      PRECISION = 1.E-13, CRITERE = 'ABSOLU', REFERENCE = 'ANALYTIQUE'),
   _F( RESULTAT = MEST4, NOM_CHAM = 'DEPL', NUME_ORDRE = 1,
NOEUD = 'M3', NOM_CMP = 'DX', VALE = 0.0,       PRECISION = 1.E-13, CRITERE = 'ABSOLU', REFERENCE = 'ANALYTIQUE'),
   _F( RESULTAT = MEST4, NOM_CHAM = 'DEPL', NUME_ORDRE = 1,
NOEUD = 'M3', NOM_CMP = 'DY', VALE = 0.0,       PRECISION = 1.E-13, CRITERE = 'ABSOLU', REFERENCE = 'ANALYTIQUE'),
   _F( RESULTAT = MEST4, NOM_CHAM = 'DEPL', NUME_ORDRE = 1,
NOEUD = 'M3', NOM_CMP = 'DZ', VALE = 2.69304710E-5,
                                     PRECISION = 1.E-6, CRITERE = 'RELATIF', REFERENCE = 'ANALYTIQUE'),
   _F( RESULTAT = MEST4, NOM_CHAM = 'DEPL', NUME_ORDRE = 1,
NOEUD = 'M3', NOM_CMP = 'DRX', VALE = 6.566485E-4,
                                     PRECISION = 1.E-6, CRITERE = 'RELATIF', REFERENCE = 'ANALYTIQUE'),
   _F( RESULTAT = MEST4, NOM_CHAM = 'DEPL', NUME_ORDRE = 1,
NOEUD = 'M3', NOM_CMP = 'DRY', VALE = 0.0,      PRECISION = 1.E-13, CRITERE = 'ABSOLU', REFERENCE = 'ANALYTIQUE'),
   _F( RESULTAT = MEST4, NOM_CHAM = 'DEPL', NUME_ORDRE = 1,
NOEUD = 'M3', NOM_CMP = 'DRZ', VALE = 0.0,      PRECISION = 1.E-13, CRITERE = 'ABSOLU', REFERENCE = 'ANALYTIQUE'),
#
   _F( RESULTAT = MEST4, NOM_CHAM = 'DEPL', NUME_ORDRE = 1,
NOEUD = 'N1', NOM_CMP = 'GRX', VALE = 2.8399161E-7,
                                     PRECISION = 1.E-6, CRITERE = 'RELATIF', REFERENCE = 'ANALYTIQUE'),
   _F( RESULTAT = MEST4, NOM_CHAM = 'DEPL', NUME_ORDRE = 1,
NOEUD = 'M1', NOM_CMP = 'GRX', VALE = 3.2832428E-4,
                                     PRECISION = 1.E-6, CRITERE = 'RELATIF', REFERENCE = 'ANALYTIQUE'),
   _F( RESULTAT = MEST4, NOM_CHAM = 'DEPL', NUME_ORDRE = 1,
NOEUD = 'N3', NOM_CMP = 'GRX', VALE = 2.8399161E-7,
                                     PRECISION = 1.E-6, CRITERE = 'RELATIF', REFERENCE = 'ANALYTIQUE'),
   _F( RESULTAT = MEST4, NOM_CHAM = 'DEPL', NUME_ORDRE = 1,
NOEUD = 'M3', NOM_CMP = 'GRX', VALE = 3.2832428E-4,
                                    PRECISION = 1.E-6, CRITERE = 'RELATIF', REFERENCE = 'ANALYTIQUE'))
            )

#
# ------ FLEXION GY : --------------------------------------------------


CHARG5=AFFE_CHAR_MECA(  MODELE=MO,
    DDL_IMPO=_F( GROUP_NO = 'A', DX = 0., DY = 0., DZ = 0., DRX = 0., DRY = 0., DRZ = 0.),
     FORCE_NODALE=_F( GROUP_NO = 'B',  MY = 1.0E0)   )

MEST5=MECA_STATIQUE(        MODELE=MO,    CHAM_MATER=CHMAT,
            CARA_ELEM=CAREL, EXCIT=_F( CHARGE = CHARG5)   )

TEST_RESU(RESU=(
   _F( RESULTAT = MEST5, NOM_CHAM = 'DEPL', NUME_ORDRE = 1,
NOEUD = 'N3', NOM_CMP = 'DX', VALE = 0.0,       PRECISION = 1.E-13, CRITERE = 'ABSOLU', REFERENCE = 'ANALYTIQUE'),
   _F( RESULTAT = MEST5, NOM_CHAM = 'DEPL', NUME_ORDRE = 1,
NOEUD = 'N3', NOM_CMP = 'DY', VALE = 0.0,       PRECISION = 1.E-13, CRITERE = 'ABSOLU', REFERENCE = 'ANALYTIQUE'),
   _F( RESULTAT = MEST5, NOM_CHAM = 'DEPL', NUME_ORDRE = 1,
NOEUD = 'N3', NOM_CMP = 'DZ', VALE = -6.E-7,    PRECISION = 1.E-6, CRITERE = 'RELATIF', REFERENCE = 'ANALYTIQUE'),
   _F( RESULTAT = MEST5, NOM_CHAM = 'DEPL', NUME_ORDRE = 1,
NOEUD = 'N3', NOM_CMP = 'DRX', VALE = 0.0,      PRECISION = 1.E-13, CRITERE = 'ABSOLU', REFERENCE = 'ANALYTIQUE'),
   _F( RESULTAT = MEST5, NOM_CHAM = 'DEPL', NUME_ORDRE = 1,
NOEUD = 'N3', NOM_CMP = 'DRY', VALE = 6.E-7,    PRECISION = 1.E-6, CRITERE = 'RELATIF', REFERENCE = 'ANALYTIQUE'),
   _F( RESULTAT = MEST5, NOM_CHAM = 'DEPL', NUME_ORDRE = 1,
NOEUD = 'N3', NOM_CMP = 'DRZ', VALE = 0.0,      PRECISION = 1.E-13, CRITERE = 'ABSOLU', REFERENCE = 'ANALYTIQUE'),
   _F( RESULTAT = MEST5, NOM_CHAM = 'DEPL', NUME_ORDRE = 1,
NOEUD = 'M3', NOM_CMP = 'DX', VALE = 0.0,       PRECISION = 1.E-13, CRITERE = 'ABSOLU', REFERENCE = 'ANALYTIQUE'),
   _F( RESULTAT = MEST5, NOM_CHAM = 'DEPL', NUME_ORDRE = 1,
NOEUD = 'M3', NOM_CMP = 'DY', VALE = 0.0,       PRECISION = 1.E-13, CRITERE = 'ABSOLU', REFERENCE = 'ANALYTIQUE'),
   _F( RESULTAT = MEST5, NOM_CHAM = 'DEPL', NUME_ORDRE = 1,
NOEUD = 'M3', NOM_CMP = 'DZ', VALE = -2.3996127E-8,
                                     PRECISION = 1.E-6, CRITERE = 'RELATIF', REFERENCE = 'ANALYTIQUE'),
   _F( RESULTAT = MEST5, NOM_CHAM = 'DEPL', NUME_ORDRE = 1,
NOEUD = 'M3', NOM_CMP = 'DRX', VALE = 0.0,      PRECISION = 1.E-13, CRITERE = 'ABSOLU', REFERENCE = 'ANALYTIQUE'),
   _F( RESULTAT = MEST5, NOM_CHAM = 'DEPL', NUME_ORDRE = 1,
NOEUD = 'M3', NOM_CMP = 'DRY', VALE = 2.3996127E-8,
                                     PRECISION = 1.E-6, CRITERE = 'RELATIF', REFERENCE = 'ANALYTIQUE'),
   _F( RESULTAT = MEST5, NOM_CHAM = 'DEPL', NUME_ORDRE = 1,
NOEUD = 'M3', NOM_CMP = 'DRZ', VALE = 0.0,      PRECISION = 1.E-13, CRITERE = 'ABSOLU', REFERENCE = 'ANALYTIQUE'),
#
   _F( RESULTAT = MEST5, NOM_CHAM = 'DEPL', NUME_ORDRE = 1,
NOEUD = 'N1', NOM_CMP = 'GRX', VALE = 0.0,      PRECISION = 1.E-13, CRITERE = 'ABSOLU', REFERENCE = 'ANALYTIQUE'),
   _F( RESULTAT = MEST5, NOM_CHAM = 'DEPL', NUME_ORDRE = 1,
NOEUD = 'M1', NOM_CMP = 'GRX', VALE = 0.0,      PRECISION = 1.E-13, CRITERE = 'ABSOLU', REFERENCE = 'ANALYTIQUE'),
   _F( RESULTAT = MEST5, NOM_CHAM = 'DEPL', NUME_ORDRE = 1,
NOEUD = 'N3', NOM_CMP = 'GRX', VALE = 0.0,      PRECISION = 1.E-13, CRITERE = 'ABSOLU', REFERENCE = 'ANALYTIQUE'),
   _F( RESULTAT = MEST5, NOM_CHAM = 'DEPL', NUME_ORDRE = 1,
NOEUD = 'M3', NOM_CMP = 'GRX', VALE = 0.0,      PRECISION = 1.E-13, CRITERE = 'ABSOLU', REFERENCE = 'ANALYTIQUE'))
            )

#
# ------ FLEXION GZ : --------------------------------------------------


CHARG6=AFFE_CHAR_MECA(  MODELE=MO,
    DDL_IMPO=_F( GROUP_NO = 'A', DX = 0., DY = 0., DZ = 0., DRX = 0., DRY = 0., DRZ = 0.),
     FORCE_NODALE=_F( GROUP_NO = 'B',  MZ = 1.0E0)   )

MEST6=MECA_STATIQUE(        MODELE=MO,    CHAM_MATER=CHMAT,
            CARA_ELEM=CAREL, EXCIT=_F( CHARGE = CHARG6)   )

TEST_RESU(RESU=(
   _F( RESULTAT = MEST6, NOM_CHAM = 'DEPL', NUME_ORDRE = 1,
NOEUD = 'N3', NOM_CMP = 'DX', VALE = 0.0,       PRECISION = 1.E-13, CRITERE = 'ABSOLU', REFERENCE = 'ANALYTIQUE'),
   _F( RESULTAT = MEST6, NOM_CHAM = 'DEPL', NUME_ORDRE = 1,
NOEUD = 'N3', NOM_CMP = 'DY', VALE = 1.5E-7,    PRECISION = 1.E-6, CRITERE = 'RELATIF', REFERENCE = 'ANALYTIQUE'),
   _F( RESULTAT = MEST6, NOM_CHAM = 'DEPL', NUME_ORDRE = 1,
NOEUD = 'N3', NOM_CMP = 'DZ', VALE = 0.0,       PRECISION = 1.E-13, CRITERE = 'ABSOLU', REFERENCE = 'ANALYTIQUE'),
   _F( RESULTAT = MEST6, NOM_CHAM = 'DEPL', NUME_ORDRE = 1,
NOEUD = 'N3', NOM_CMP = 'DRX', VALE = 0.0,      PRECISION = 1.E-13, CRITERE = 'ABSOLU', REFERENCE = 'ANALYTIQUE'),
   _F( RESULTAT = MEST6, NOM_CHAM = 'DEPL', NUME_ORDRE = 1,
NOEUD = 'N3', NOM_CMP = 'DRY', VALE = 0.0,      PRECISION = 1.E-13, CRITERE = 'ABSOLU', REFERENCE = 'ANALYTIQUE'),
   _F( RESULTAT = MEST6, NOM_CHAM = 'DEPL', NUME_ORDRE = 1,
NOEUD = 'N3', NOM_CMP = 'DRZ', VALE = 1.5E-7,   PRECISION = 1.E-6, CRITERE = 'RELATIF', REFERENCE = 'ANALYTIQUE'),
   _F( RESULTAT = MEST6, NOM_CHAM = 'DEPL', NUME_ORDRE = 1,
NOEUD = 'M3', NOM_CMP = 'DX', VALE = 0.0,       PRECISION = 1.E-13, CRITERE = 'ABSOLU', REFERENCE = 'ANALYTIQUE'),
   _F( RESULTAT = MEST6, NOM_CHAM = 'DEPL', NUME_ORDRE = 1,
NOEUD = 'M3', NOM_CMP = 'DY', VALE = 9.5643715E-8,
                                     PRECISION = 1.E-6, CRITERE = 'RELATIF', REFERENCE = 'ANALYTIQUE'),
   _F( RESULTAT = MEST6, NOM_CHAM = 'DEPL', NUME_ORDRE = 1,
NOEUD = 'M3', NOM_CMP = 'DZ', VALE = 0.0,       PRECISION = 1.E-13, CRITERE = 'ABSOLU', REFERENCE = 'ANALYTIQUE'),
   _F( RESULTAT = MEST6, NOM_CHAM = 'DEPL', NUME_ORDRE = 1,
NOEUD = 'M3', NOM_CMP = 'DRX', VALE = 0.0,      PRECISION = 1.E-13, CRITERE = 'ABSOLU', REFERENCE = 'ANALYTIQUE'),
   _F( RESULTAT = MEST6, NOM_CHAM = 'DEPL', NUME_ORDRE = 1,
NOEUD = 'M3', NOM_CMP = 'DRY', VALE = 0.0,      PRECISION = 1.E-13, CRITERE = 'ABSOLU', REFERENCE = 'ANALYTIQUE'),
   _F( RESULTAT = MEST6, NOM_CHAM = 'DEPL', NUME_ORDRE = 1,
NOEUD = 'M3', NOM_CMP = 'DRZ', VALE = 9.5643715E-8,
                                     PRECISION = 1.E-6, CRITERE = 'RELATIF', REFERENCE = 'ANALYTIQUE'),
#
   _F( RESULTAT = MEST6, NOM_CHAM = 'DEPL', NUME_ORDRE = 1,
NOEUD = 'N1', NOM_CMP = 'GRX', VALE = 0.0,      PRECISION = 1.E-13, CRITERE = 'ABSOLU', REFERENCE = 'ANALYTIQUE'),
   _F( RESULTAT = MEST6, NOM_CHAM = 'DEPL', NUME_ORDRE = 1,
NOEUD = 'M1', NOM_CMP = 'GRX', VALE = 0.0,      PRECISION = 1.E-13, CRITERE = 'ABSOLU', REFERENCE = 'ANALYTIQUE'),
   _F( RESULTAT = MEST6, NOM_CHAM = 'DEPL', NUME_ORDRE = 1,
NOEUD = 'N3', NOM_CMP = 'GRX', VALE = 0.0,      PRECISION = 1.E-13, CRITERE = 'ABSOLU', REFERENCE = 'ANALYTIQUE'),
   _F( RESULTAT = MEST6, NOM_CHAM = 'DEPL', NUME_ORDRE = 1,
NOEUD = 'M3', NOM_CMP = 'GRX', VALE = 0.0,      PRECISION = 1.E-13, CRITERE = 'ABSOLU', REFERENCE = 'ANALYTIQUE'))
            )

#
#======================================================================
#               MATERIAU  FONCTION  DE  LA  TEMPERATURE
#======================================================================

T0=0.

T1=50.

T2=75.

T3=100.

E1=2.0E+11

E2=2.3E+11

E3=2.5E+11

E_F=DEFI_FONCTION(  NOM_PARA='TEMP',
                        VALE=( T1, E1,  T2, E2,  T3, E3, )  )

NU1=0.3

NU2=0.33

NU3=0.35

NU_F=DEFI_FONCTION(  NOM_PARA='TEMP',
                         VALE=( T1, NU1,  T2, NU2,  T3, NU3, )  )

ALPHA1=0.

ALPHA2=0.

ALPHA3=0.

ALPHA_F=DEFI_FONCTION(  NOM_PARA='TEMP',
                         VALE=( T0, ALPHA1,  T2, ALPHA2,  T3, ALPHA3, ))

MATER_F=DEFI_MATERIAU(  ELAS_FO=_F(  E = E_F,   NU = NU_F,
                                       ALPHA = ALPHA_F,TEMP_DEF_ALPHA=0.) )


CHT1=CREA_CHAMP( OPERATION='AFFE', TYPE_CHAM='NOEU_TEMP_R', MAILLAGE=MA,
                        AFFE=_F(  TOUT = 'OUI',
                               NOM_CMP = 'TEMP',  VALE = T1)  )

CHT2=CREA_CHAMP( OPERATION='AFFE', TYPE_CHAM='NOEU_TEMP_R', MAILLAGE=MA,
                        AFFE=_F(  TOUT = 'OUI',
                               NOM_CMP = 'TEMP',  VALE = T2)  )

CHT3=CREA_CHAMP( OPERATION='AFFE', TYPE_CHAM='NOEU_TEMP_R', MAILLAGE=MA,
                        AFFE=_F(  TOUT = 'OUI',
                               NOM_CMP = 'TEMP',  VALE = T3)  )

LINST=DEFI_LIST_REEL( VALE=( 1.,  2.,  3.,  )  )

TEMP=CREA_RESU(  OPERATION='AFFE', TYPE_RESU='EVOL_THER',
                       NOM_CHAM='TEMP',AFFE=(
                        _F(  INST = 1.,  CHAM_GD = CHT1),
                                _F(  INST = 2.,  CHAM_GD = CHT2),
                                _F(  INST = 3.,  CHAM_GD = CHT3))
                  )

CHMAT_F=AFFE_MATERIAU(  MAILLAGE=MA,
             AFFE=_F(  TOUT = 'OUI',      MATER = MATER_F),
             AFFE_VARC =_F(TOUT='OUI', EVOL=TEMP, NOM_VARC='TEMP',VALE_REF=0.),
                  )

CHG1=AFFE_CHAR_MECA(   MODELE=MO,
                          DDL_IMPO=_F(  GROUP_NO = 'A',   DX = 0.,   DY = 0.,
                                     DZ = 0.,  DRX = 0.,  DRY = 0.,  DRZ = 0.),
                          FORCE_NODALE=_F(  GROUP_NO = 'B',  FX = 1.)
                        )

U2=MECA_STATIQUE(      MODELE=MO,
                       CHAM_MATER=CHMAT_F,     CARA_ELEM=CAREL,
                       LIST_INST=LINST,
                       EXCIT=_F(   CHARGE = CHG1)        )

TEST_RESU(RESU=(
            _F(  RESULTAT = U2,   NOM_CHAM = 'DEPL',   NUME_ORDRE = 1,
              NOEUD = 'N2',  NOM_CMP = 'DX',   VALE = 2.50000E-10,
              PRECISION = 1.E-13,       CRITERE = 'ABSOLU', REFERENCE = 'ANALYTIQUE'),
            _F(  RESULTAT = U2,   NOM_CHAM = 'DEPL',   NUME_ORDRE = 1,
              NOEUD = 'N3',  NOM_CMP = 'DX',   VALE = 5.00000E-10,
              PRECISION = 1.E-6,        CRITERE = 'RELATIF', REFERENCE = 'ANALYTIQUE'),
            _F(  RESULTAT = U2,   NOM_CHAM = 'DEPL',   NUME_ORDRE = 1,
              NOEUD = 'N3',  NOM_CMP = 'DY',   VALE = 0.,
              PRECISION = 1.E-13,       CRITERE = 'ABSOLU', REFERENCE = 'ANALYTIQUE'),
            _F(  RESULTAT = U2,   NOM_CHAM = 'DEPL',   NUME_ORDRE = 1,
              NOEUD = 'N3',  NOM_CMP = 'DZ',   VALE = 0.,
              PRECISION = 1.E-13,       CRITERE = 'ABSOLU', REFERENCE = 'ANALYTIQUE'),
            _F(  RESULTAT = U2,   NOM_CHAM = 'DEPL',   NUME_ORDRE = 1,
              NOEUD = 'N3',  NOM_CMP = 'DRX',  VALE = 0.,
              PRECISION = 1.E-13,       CRITERE = 'ABSOLU', REFERENCE = 'ANALYTIQUE'),
            _F(  RESULTAT = U2,   NOM_CHAM = 'DEPL',   NUME_ORDRE = 1,
              NOEUD = 'N3',  NOM_CMP = 'DRY',  VALE = 0.,
              PRECISION = 1.E-13,       CRITERE = 'ABSOLU', REFERENCE = 'ANALYTIQUE'),
            _F(  RESULTAT = U2,   NOM_CHAM = 'DEPL',   NUME_ORDRE = 1,
              NOEUD = 'N3',  NOM_CMP = 'DRZ',  VALE = 0.,
              PRECISION = 1.E-13,       CRITERE = 'ABSOLU', REFERENCE = 'ANALYTIQUE'),
            _F(  RESULTAT = U2,   NOM_CHAM = 'DEPL',   NUME_ORDRE = 1,
              NOEUD = 'M3',  NOM_CMP = 'DX',   VALE = 5.38793E-09,
              PRECISION = 1.E-6,        CRITERE = 'RELATIF', REFERENCE = 'ANALYTIQUE'),
            _F(  RESULTAT = U2,   NOM_CHAM = 'DEPL',   NUME_ORDRE = 1,
              NOEUD = 'M3',  NOM_CMP = 'DY',   VALE = 0.,
              PRECISION = 1.E-13,       CRITERE = 'ABSOLU', REFERENCE = 'ANALYTIQUE'),
            _F(  RESULTAT = U2,   NOM_CHAM = 'DEPL',   NUME_ORDRE = 1,
              NOEUD = 'M3',  NOM_CMP = 'DZ',   VALE = 0.,
              PRECISION = 1.E-13,       CRITERE = 'ABSOLU', REFERENCE = 'ANALYTIQUE'),
            _F(  RESULTAT = U2,   NOM_CHAM = 'DEPL',   NUME_ORDRE = 1,
              NOEUD = 'M3',  NOM_CMP = 'DRX',  VALE = 0.,
              PRECISION = 1.E-13,       CRITERE = 'ABSOLU', REFERENCE = 'ANALYTIQUE'),
            _F(  RESULTAT = U2,   NOM_CHAM = 'DEPL',   NUME_ORDRE = 1,
              NOEUD = 'M3',  NOM_CMP = 'DRY',  VALE = 0.,
              PRECISION = 1.E-13,       CRITERE = 'ABSOLU', REFERENCE = 'ANALYTIQUE'),
            _F(  RESULTAT = U2,   NOM_CHAM = 'DEPL',   NUME_ORDRE = 1,
              NOEUD = 'M3',  NOM_CMP = 'DRZ',  VALE = 0.,
              PRECISION = 1.E-13,       CRITERE = 'ABSOLU', REFERENCE = 'ANALYTIQUE'),
            _F(  RESULTAT = U2,   NOM_CHAM = 'DEPL',   NUME_ORDRE = 1,
              NOEUD = 'N1',  NOM_CMP = 'GRX',  VALE = 0.,
              PRECISION = 1.E-13,       CRITERE = 'ABSOLU', REFERENCE = 'ANALYTIQUE'),
            _F(  RESULTAT = U2,   NOM_CHAM = 'DEPL',   NUME_ORDRE = 1,
              NOEUD = 'M1',  NOM_CMP = 'GRX',  VALE = 0.,
              PRECISION = 1.E-13,       CRITERE = 'ABSOLU', REFERENCE = 'ANALYTIQUE'),
            _F(  RESULTAT = U2,   NOM_CHAM = 'DEPL',   NUME_ORDRE = 1,
              NOEUD = 'N3',  NOM_CMP = 'GRX',  VALE = 0.,
              PRECISION = 1.E-13,       CRITERE = 'ABSOLU', REFERENCE = 'ANALYTIQUE'),
            _F(  RESULTAT = U2,   NOM_CHAM = 'DEPL',   NUME_ORDRE = 1,
              NOEUD = 'M3',  NOM_CMP = 'GRX',  VALE = 0.,
              PRECISION = 1.E-13,       CRITERE = 'ABSOLU', REFERENCE = 'ANALYTIQUE'),

            _F(  RESULTAT = U2,   NOM_CHAM = 'DEPL',   NUME_ORDRE = 2,
              NOEUD = 'N2',  NOM_CMP = 'DX',   VALE = 2.173913E-10,
              PRECISION = 1.E-6,        CRITERE = 'RELATIF', REFERENCE = 'ANALYTIQUE'),
            _F(  RESULTAT = U2,   NOM_CHAM = 'DEPL',   NUME_ORDRE = 2,
              NOEUD = 'N2',  NOM_CMP = 'GRX',  VALE = 0.,
              PRECISION = 1.E-13,       CRITERE = 'ABSOLU', REFERENCE = 'ANALYTIQUE'),
            _F(  RESULTAT = U2,   NOM_CHAM = 'DEPL',   NUME_ORDRE = 2,
              NOEUD = 'N3',  NOM_CMP = 'DX',   VALE = 4.347826E-10,
              PRECISION = 1.E-6,        CRITERE = 'RELATIF', REFERENCE = 'ANALYTIQUE'),
            _F(  RESULTAT = U2,   NOM_CHAM = 'DEPL',   NUME_ORDRE = 2,
              NOEUD = 'N3',  NOM_CMP = 'GRX',  VALE = 0.,
              PRECISION = 1.E-13,       CRITERE = 'ABSOLU', REFERENCE = 'ANALYTIQUE'),
            _F(  RESULTAT = U2,   NOM_CHAM = 'DEPL',   NUME_ORDRE = 2,
              NOEUD = 'M3',  NOM_CMP = 'DX',   VALE = 4.685157E-09,
              PRECISION = 1.E-6,        CRITERE = 'RELATIF', REFERENCE = 'ANALYTIQUE'),
            _F(  RESULTAT = U2,   NOM_CHAM = 'DEPL',   NUME_ORDRE = 2,
              NOEUD = 'M3',  NOM_CMP = 'GRX',  VALE = 0.,
              PRECISION = 1.E-13,       CRITERE = 'ABSOLU', REFERENCE = 'ANALYTIQUE'),

            _F(  RESULTAT = U2,   NOM_CHAM = 'DEPL',   NUME_ORDRE = 3,
              NOEUD = 'N2',  NOM_CMP = 'DX',   VALE = 2.00000E-10,
              PRECISION = 1.E-6,        CRITERE = 'RELATIF', REFERENCE = 'ANALYTIQUE'),
            _F(  RESULTAT = U2,   NOM_CHAM = 'DEPL',   NUME_ORDRE = 3,
              NOEUD = 'N2',  NOM_CMP = 'GRX',  VALE = 0.,
              PRECISION = 1.E-13,       CRITERE = 'ABSOLU', REFERENCE = 'ANALYTIQUE'),
            _F(  RESULTAT = U2,   NOM_CHAM = 'DEPL',   NUME_ORDRE = 3,
              NOEUD = 'N3',  NOM_CMP = 'DX',   VALE = 4.00000E-10,
              PRECISION = 1.E-6,        CRITERE = 'RELATIF', REFERENCE = 'ANALYTIQUE'),
            _F(  RESULTAT = U2,   NOM_CHAM = 'DEPL',   NUME_ORDRE = 3,
              NOEUD = 'N3',  NOM_CMP = 'GRX',  VALE = 0.,
              PRECISION = 1.E-13,       CRITERE = 'ABSOLU', REFERENCE = 'ANALYTIQUE'),
            _F(  RESULTAT = U2,   NOM_CHAM = 'DEPL',   NUME_ORDRE = 3,
              NOEUD = 'M3',  NOM_CMP = 'DX',   VALE = 4.310345E-09,
              PRECISION = 1.E-6,        CRITERE = 'RELATIF', REFERENCE = 'ANALYTIQUE'),
            _F(  RESULTAT = U2,   NOM_CHAM = 'DEPL',   NUME_ORDRE = 3,
              NOEUD = 'M3',  NOM_CMP = 'GRX',  VALE = 0.,
              PRECISION = 1.E-13,       CRITERE = 'ABSOLU', REFERENCE = 'ANALYTIQUE'))
            )

FIN( )
#
