# person_in_charge: jean-luc.flejou at edf.fr
# TITRE STRUCTURE SYMETRIQUE DE POUTRES AVEC UN COUDE
#            CONFIGURATION MANAGEMENT OF EDF VERSION
# ======================================================================
# COPYRIGHT (C) 1991 - 2013  EDF R&D                  WWW.CODE-ASTER.ORG
# THIS PROGRAM IS FREE SOFTWARE; YOU CAN REDISTRIBUTE IT AND/OR MODIFY
# IT UNDER THE TERMS OF THE GNU GENERAL PUBLIC LICENSE AS PUBLISHED BY
# THE FREE SOFTWARE FOUNDATION; EITHER VERSION 2 OF THE LICENSE, OR
# (AT YOUR OPTION) ANY LATER VERSION.
#
# THIS PROGRAM IS DISTRIBUTED IN THE HOPE THAT IT WILL BE USEFUL, BUT
# WITHOUT ANY WARRANTY; WITHOUT EVEN THE IMPLIED WARRANTY OF
# MERCHANTABILITY OR FITNESS FOR A PARTICULAR PURPOSE. SEE THE GNU
# GENERAL PUBLIC LICENSE FOR MORE DETAILS.
#
# YOU SHOULD HAVE RECEIVED A COPY OF THE GNU GENERAL PUBLIC LICENSE
# ALONG WITH THIS PROGRAM; IF NOT, WRITE TO EDF R&D CODE_ASTER,
#    1 AVENUE DU GENERAL DE GAULLE, 92141 CLAMART CEDEX, FRANCE.
# ======================================================================
#CAS_TEST__: SSLL100A
# SSLL100 A                COMMANDES                            10/06/91
# STRUCTURE SYMETRIQUE AVEC UN COUDE
# ORIENTATION EN REPERE OBLIQUE
# ETUDES: 1)CHARGE_NODALE  2)DEPL_IMPO  3)TEMPERATURE  4)POIDS PROPRE
#         5)MATERIAU FONCTION DE LA TEMPERATURE
#                                              REF: POUX.STA.MPACOB
# MODELISATION POU_D_T  DIS_T  POU_C_T
#=======================================================================

DEBUT(CODE=_F(NOM='SSLL100A',
              NIV_PUB_WEB='INTERNET',),
      DEBUG=_F(SDVERI='OUI',),);

MA=LIRE_MAILLAGE();

MA=DEFI_GROUP(reuse =MA,
              MAILLAGE=MA,
              CREA_GROUP_MA=_F(NOM='TOUT',
                               TOUT='OUI',),);

MATER=DEFI_MATERIAU(ELAS=_F(E=210000000000,
                            NU=0.3,
                            RHO=7800.,
                            ALPHA=1.E-6,),);

CHMAT=AFFE_MATERIAU(MAILLAGE=MA,
                    AFFE=_F(GROUP_MA='POUTRE',
                            MATER=MATER,),);

MOD=AFFE_MODELE(MAILLAGE=MA,
                AFFE=(_F(GROUP_MA='POU_D_T',
                         PHENOMENE='MECANIQUE',
                         MODELISATION='POU_D_T',),
                      _F(GROUP_MA='POU_C_T',
                         PHENOMENE='MECANIQUE',
                         MODELISATION='POU_C_T',),
                      _F(GROUP_MA='LIAI_NOE',
                         PHENOMENE='MECANIQUE',
                         MODELISATION='DIS_T',),),);

CARLEM=AFFE_CARA_ELEM(MODELE=MOD,
                      POUTRE=_F(GROUP_MA=('POU_D_T','POU_C_T'),
                                SECTION='GENERALE',
                                CARA=('A','IY','IZ','AY','AZ','JX',),
                                VALE=(0.11780973E-2,0.125172834E-6,0.125172834E-6,1.3096094,1.3096094,0.250345668E-6,),),
                      DISCRET=(_F(REPERE='LOCAL',
                                 CARA='K_T_D_L',
                                 MAILLE=('AB','FG',),
                                 VALE=(1.E5,0.,1.E5,),),
                               _F(REPERE='LOCAL',
                                 CARA='M_T_L',
                                 MAILLE=('AB','FG',),
                                 VALE=(0.,0.,0.,0.,0.,0.,0.,0.,0.,
                                 0.,0.,0.,0.,0.,0.,0.,0.,0.,0.,0.,0.,),),),
                      ORIENTATION=_F(MAILLE=('AB','FG',),
                                     CARA='VECT_Y',
                                     VALE=(-1.,0.,0.,),),
                      DEFI_ARC=(_F(MAILLE='CD',
                                   ORIE_ARC=90.,
                                   RAYON=2.82800,),
                                _F(MAILLE='DE',
                                   ORIE_ARC=90.,
                                   RAYON=2.82800,),),);

# CONDITIONS LIMITES COMMUNES AUX 3 CAS DE CHARGEMENT 1,3,4

COND_LIM=AFFE_CHAR_MECA(MODELE=MOD,
                        DDL_IMPO=(_F(NOEUD=('B','C','D','E','F',),
                                     DX=0.,
                                     DRY=0.,
                                     DRZ=0.,),
                                  _F(NOEUD=('A','G',),
                                     DX=0.,
                                     DY=0.,
                                     DZ=0.,),),);

#-----------------------------------------------------------------------

MELR=CALC_MATR_ELEM(OPTION='RIGI_MECA',
                    MODELE=MOD,
                    CHAM_MATER=CHMAT,
                    CARA_ELEM=CARLEM,
                    CHARGE=COND_LIM,);

NUM=NUME_DDL(MATR_RIGI=MELR,);

MATASSR=ASSE_MATRICE(MATR_ELEM=MELR,
                     NUME_DDL=NUM,);

MATASSR=FACTORISER(reuse =MATASSR,
                   MATR_ASSE=MATASSR,);

#-----------------------------------------------------------------------
# CAS 1:         FORCES EN C ET E
#-----------------------------------------------------------------------

CH1=AFFE_CHAR_MECA(MODELE=MOD,
                   FORCE_NODALE=_F(NOEUD=('C','E',),
                                   FZ=-1000.,),);

VEL1=CALC_VECT_ELEM(OPTION='CHAR_MECA',
                    CHARGE=(COND_LIM,CH1,),);

FORCE_PO=ASSE_VECTEUR(VECT_ELEM=VEL1,
                      NUME_DDL=NUM,);

FORCE_PO=RESOUDRE(reuse =FORCE_PO,
                  MATR=MATASSR,
                  CHAM_NO=FORCE_PO,);


#----------------------------------------------------------------------
# CAS 2:         DEPLACEMENTS IMPOSES EN A ET G
#----------------------------------------------------------------------

CH2=AFFE_CHAR_MECA(MODELE=MOD,
                   DDL_IMPO=(_F(NOEUD=('B','C','D','E','F',),
                                DX=0.,
                                DRY=0.,
                                DRZ=0.,),
                             _F(NOEUD='A',
                                DX=0.,
                                DY=1.,
                                DZ=1.,),
                             _F(NOEUD='G',
                                DX=0.,
                                DY=-1.,
                                DZ=1.,),),);

VEL2=CALC_VECT_ELEM(OPTION='CHAR_MECA',
                    CHARGE=CH2,);

MELR2=CALC_MATR_ELEM(OPTION='RIGI_MECA',
                     MODELE=MOD,
                     CHAM_MATER=CHMAT,
                     CARA_ELEM=CARLEM,
                     CHARGE=CH2,);

NUM2=NUME_DDL(MATR_RIGI=MELR2,);

MATASS2=ASSE_MATRICE(MATR_ELEM=MELR2,
                     NUME_DDL=NUM2,);

MATASS2=FACTORISER(reuse =MATASS2,
                   MATR_ASSE=MATASS2,);

DDL_IMPO=ASSE_VECTEUR(VECT_ELEM=VEL2,
                      NUME_DDL=NUM2,);

DDL_IMPO=RESOUDRE(reuse =DDL_IMPO,
                  MATR=MATASS2,
                  CHAM_NO=DDL_IMPO,);

#----------------------------------------------------------------------
# CAS 3:         DILATATION THERMIQUE A 100 DEGRES
#----------------------------------------------------------------------

CHTEMP=CREA_CHAMP(TYPE_CHAM='NOEU_TEMP_R',
                  OPERATION='AFFE',
                  MAILLAGE=MA,
                  AFFE=_F(TOUT='OUI',
                          NOM_CMP='TEMP',
                          VALE=100.,),);

CHMAT3=AFFE_MATERIAU(MAILLAGE=MA,
                     AFFE=_F(GROUP_MA='POUTRE',
                             MATER=MATER,),
                     AFFE_VARC=_F(TOUT='OUI',
                                  NOM_VARC='TEMP',
                                  CHAM_GD=CHTEMP,
                                  VALE_REF=0.,),);

VEL3=CALC_VECT_ELEM(OPTION='CHAR_MECA',
                    CHARGE=COND_LIM,
                    CHAM_MATER=CHMAT3,
                    CARA_ELEM=CARLEM,);

DILA_THE=ASSE_VECTEUR(VECT_ELEM=VEL3,
                      NUME_DDL=NUM,);

DILA_THE=RESOUDRE(reuse =DILA_THE,
                  MATR=MATASSR,
                  CHAM_NO=DILA_THE,);

#-----------------------------------------------------------------------
# CAS 4:         EFFET DE LA PESANTEUR
#-----------------------------------------------------------------------

CH4=AFFE_CHAR_MECA(MODELE=MOD,
                   PESANTEUR=_F(GRAVITE=9.81,
                                DIRECTION=(0.,0.,-1.,),),);

VEL4=CALC_VECT_ELEM(OPTION='CHAR_MECA',
                    CHARGE=(COND_LIM,CH4,),
                    CHAM_MATER=CHMAT,
                    CARA_ELEM=CARLEM,);

POIDS_PR=ASSE_VECTEUR(VECT_ELEM=VEL4,
                      NUME_DDL=NUM,);

POIDS_PR=RESOUDRE(reuse =POIDS_PR,
                  MATR=MATASSR,
                  CHAM_NO=POIDS_PR,);

#--------------------------------------------------------------------

TEST_RESU(CHAM_NO=(_F(NOEUD='B',
                      NOM_CMP='DY',
                      CHAM_GD=FORCE_PO,
                      VALE_CALC=-8.120088962419E-03,
                      VALE_REFE=-8.12E-3,
                      REFERENCE = 'SOURCE_EXTERNE',
                      PRECISION=1.E-3,),
                   _F(NOEUD='B',
                      NOM_CMP='DZ',
                      CHAM_GD=FORCE_PO,
                      VALE_CALC=-1.E-2,
                      VALE_REFE=-1.E-2,
                      REFERENCE = 'SOURCE_EXTERNE',
                      PRECISION=1.E-3,),
                   _F(NOEUD='C',
                      NOM_CMP='DY',
                      CHAM_GD=FORCE_PO,
                      VALE_CALC=7.3894948222604E-03,
                      VALE_REFE=7.3889999999999997E-3,
                      REFERENCE = 'SOURCE_EXTERNE',
                      PRECISION=1.E-3,),
                   _F(NOEUD='C',
                      NOM_CMP='DZ',
                      CHAM_GD=FORCE_PO,
                      VALE_CALC=-0.025530299735133,
                      VALE_REFE=-0.025530000000000001,
                      REFERENCE = 'SOURCE_EXTERNE',
                      PRECISION=1.E-3,),
                   _F(NOEUD='E',
                      NOM_CMP='DY',
                      CHAM_GD=FORCE_PO,
                      VALE_CALC=-7.3894948222626E-03,
                      VALE_REFE=-7.3889999999999997E-3,
                      REFERENCE = 'SOURCE_EXTERNE',
                      PRECISION=1.E-3,),
                   _F(NOEUD='E',
                      NOM_CMP='DZ',
                      CHAM_GD=FORCE_PO,
                      VALE_CALC=-0.025530299735134,
                      VALE_REFE=-0.025530000000000001,
                      REFERENCE = 'SOURCE_EXTERNE',
                      PRECISION=1.E-3,),
                   _F(NOEUD='F',
                      NOM_CMP='DY',
                      CHAM_GD=FORCE_PO,
                      VALE_CALC=8.1200889624181E-03,
                      VALE_REFE=8.1200000000000005E-3,
                      REFERENCE = 'SOURCE_EXTERNE',
                      PRECISION=1.E-3,),
                   _F(NOEUD='F',
                      NOM_CMP='DZ',
                      CHAM_GD=FORCE_PO,
                      VALE_CALC=-9.9999999999987E-03,
                      VALE_REFE=-1.E-2,
                      REFERENCE = 'SOURCE_EXTERNE',
                      PRECISION=1.E-3,),
                   ),
          )

TEST_RESU(CHAM_NO=(_F(NOEUD='B',
                      NOM_CMP='DY',
                      CHAM_GD=DDL_IMPO,
                      VALE_CALC=0.98585072901217,
                      VALE_REFE=0.98580000000000001,
                      REFERENCE = 'SOURCE_EXTERNE',
                      PRECISION=1.E-3,),
                   _F(NOEUD='B',
                      NOM_CMP='DZ',
                      CHAM_GD=DDL_IMPO,
                      VALE_CALC=0.99999999999997,
                      VALE_REFE=1.0,
                      REFERENCE = 'SOURCE_EXTERNE',
                      PRECISION=1.E-3,),
                   _F(NOEUD='C',
                      NOM_CMP='DY',
                      CHAM_GD=DDL_IMPO,
                      VALE_CALC=0.17382565649236,
                      VALE_REFE=0.17380000000000001,
                      REFERENCE = 'SOURCE_EXTERNE',
                      PRECISION=1.E-3,),
                   _F(NOEUD='C',
                      NOM_CMP='DZ',
                      CHAM_GD=DDL_IMPO,
                      VALE_CALC=1.8120088962418,
                      VALE_REFE=1.8120000000000001,
                      REFERENCE = 'SOURCE_EXTERNE',
                      PRECISION=1.E-3,),
                   _F(NOEUD='E',
                      NOM_CMP='DY',
                      CHAM_GD=DDL_IMPO,
                      VALE_CALC=-0.17382565649217,
                      VALE_REFE=-0.17380000000000001,
                      REFERENCE = 'SOURCE_EXTERNE',
                      PRECISION=1.E-3,),
                   _F(NOEUD='E',
                      NOM_CMP='DZ',
                      CHAM_GD=DDL_IMPO,
                      VALE_CALC=1.8120088962417,
                      VALE_REFE=1.8120000000000001,
                      REFERENCE = 'SOURCE_EXTERNE',
                      PRECISION=1.E-3,),
                   _F(NOEUD='F',
                      NOM_CMP='DY',
                      CHAM_GD=DDL_IMPO,
                      VALE_CALC=-0.98585072901206,
                      VALE_REFE=-0.98580000000000001,
                      REFERENCE = 'SOURCE_EXTERNE',
                      PRECISION=1.E-3,),
                   _F(NOEUD='F',
                      NOM_CMP='DZ',
                      CHAM_GD=DDL_IMPO,
                      VALE_CALC=0.99999999999987,
                      VALE_REFE=1.0,
                      REFERENCE = 'SOURCE_EXTERNE',
                      PRECISION=1.E-3,),
                   ),
          )

TEST_RESU(CHAM_NO=(_F(NOEUD='B',
                      NOM_CMP='DY',
                      CHAM_GD=DILA_THE,
                      VALE_CALC=-5.6597083950985E-06,
                      VALE_REFE=-5.66E-06,
                      REFERENCE = 'SOURCE_EXTERNE',
                      PRECISION=1.E-3,),
                   _F(NOEUD='B',
                      CRITERE='ABSOLU',
                      NOM_CMP='DZ',
                      CHAM_GD=DILA_THE,
                      VALE_CALC=4.3937293039975E-17,
                      VALE_REFE=0.0,
                      REFERENCE = 'SOURCE_EXTERNE',),
                   _F(NOEUD='C',
                      NOM_CMP='DY',
                      CHAM_GD=DILA_THE,
                      VALE_CALC=-1.3046973740309E-04,
                      VALE_REFE=-1.305E-4,
                      REFERENCE = 'SOURCE_EXTERNE',
                      PRECISION=1.E-3,),
                   _F(NOEUD='C',
                      NOM_CMP='DZ',
                      CHAM_GD=DILA_THE,
                      VALE_CALC=5.2480355849683E-04,
                      VALE_REFE=5.2479999999999996E-4,
                      REFERENCE = 'SOURCE_EXTERNE',
                      PRECISION=1.E-3,),
                   _F(NOEUD='E',
                      NOM_CMP='DY',
                      CHAM_GD=DILA_THE,
                      VALE_CALC=1.304697374032E-04,
                      VALE_REFE=1.305E-4,
                      REFERENCE = 'SOURCE_EXTERNE',
                      PRECISION=1.E-3,),
                   _F(NOEUD='E',
                      NOM_CMP='DZ',
                      CHAM_GD=DILA_THE,
                      VALE_CALC=5.2480355849687E-04,
                      VALE_REFE=5.2479999999999996E-4,
                      REFERENCE = 'SOURCE_EXTERNE',
                      PRECISION=1.E-3,),
                   _F(NOEUD='F',
                      NOM_CMP='DY',
                      CHAM_GD=DILA_THE,
                      VALE_CALC=5.6597083951364E-06,
                      VALE_REFE=5.66E-06,
                      REFERENCE = 'SOURCE_EXTERNE',
                      PRECISION=1.E-3,),
                   _F(NOEUD='F',
                      CRITERE='ABSOLU',
                      NOM_CMP='DZ',
                      CHAM_GD=DILA_THE,
                      VALE_CALC=1.0570971181734E-17,
                      VALE_REFE=0.0,
                      REFERENCE = 'SOURCE_EXTERNE',),
                   ),
          )

TEST_RESU(CHAM_NO=(_F(NOEUD='B',
                      CRITERE='RELATIF',
                      NOM_CMP='DY',
                      REFERENCE = 'SOURCE_EXTERNE',
                      PRECISION=5.0000000000000001E-3,
                      CHAM_GD=POIDS_PR,
                      VALE_CALC=-3.1106732481253E-03,
                      VALE_REFE=-3.1110000000000001E-3,),
                   _F(NOEUD='B',
                      CRITERE='RELATIF',
                      NOM_CMP='DZ',
                      REFERENCE = 'SOURCE_EXTERNE',
                      PRECISION=5.0000000000000001E-3,
                      CHAM_GD=POIDS_PR,
                      VALE_CALC=-4.5522432711086E-03,
                      VALE_REFE=-4.5519999999999996E-3,),
                   _F(NOEUD='C',
                      CRITERE='RELATIF',
                      NOM_CMP='DY',
                      REFERENCE = 'SOURCE_EXTERNE',
                      PRECISION=0.050000000000000003,
                      CHAM_GD=POIDS_PR,
                      VALE_CALC=1.1802403970608E-03,
                      VALE_REFE=1.1800000000000001E-3,),
                   _F(NOEUD='C',
                      CRITERE='RELATIF',
                      NOM_CMP='DZ',
                      REFERENCE = 'SOURCE_EXTERNE',
                      PRECISION=5.0000000000000001E-3,
                      CHAM_GD=POIDS_PR,
                      VALE_CALC=-8.850460127025E-03,
                      VALE_REFE=-8.8500000000000002E-3,),
                   _F(NOEUD='E',
                      CRITERE='RELATIF',
                      NOM_CMP='DY',
                      REFERENCE = 'SOURCE_EXTERNE',
                      PRECISION=0.050000000000000003,
                      CHAM_GD=POIDS_PR,
                      VALE_CALC=-1.1802403970615E-03,
                      VALE_REFE=-1.1800000000000001E-3,),
                   _F(NOEUD='E',
                      CRITERE='RELATIF',
                      NOM_CMP='DZ',
                      REFERENCE = 'SOURCE_EXTERNE',
                      PRECISION=5.0000000000000001E-3,
                      CHAM_GD=POIDS_PR,
                      VALE_CALC=-8.8504601270249E-03,
                      VALE_REFE=-8.8500000000000002E-3,),
                   _F(NOEUD='F',
                      CRITERE='RELATIF',
                      NOM_CMP='DY',
                      REFERENCE = 'SOURCE_EXTERNE',
                      PRECISION=5.0000000000000001E-3,
                      CHAM_GD=POIDS_PR,
                      VALE_CALC=3.110673248125E-03,
                      VALE_REFE=3.1110000000000001E-3,),
                   _F(NOEUD='F',
                      CRITERE='RELATIF',
                      NOM_CMP='DZ',
                      REFERENCE = 'SOURCE_EXTERNE',
                      PRECISION=5.0000000000000001E-3,
                      CHAM_GD=POIDS_PR,
                      VALE_CALC=-4.5522432711082E-03,
                      VALE_REFE=-4.5519999999999996E-3,),
                   ),
          )

#-----------------------------------------------------------------------
# CAS 5:         MATERIAU  FONCTION  DE  LA  TEMPERATURE
#-----------------------------------------------------------------------

T2 = 500.0;
T3 = 1000.0;

T = FORMULE(VALE='2. * INST * ( 3. + ( 4. * Y * Z ) + ( 5. * Y * Y )  + ( 5. * Z * Z ) )',
            NOM_PARA=('INST','Y','Z',),);

A_F=DEFI_CONSTANTE(NOM_RESU='TEMP',
                   VALE=0.,);

E_F = FORMULE(VALE='( 1.910E+4 * TEMP * TEMP ) + ( 9.045E+7 * TEMP ) + 1.80005E+11 ',
              NOM_PARA='TEMP',);

NU_F = FORMULE(VALE='( -2.0E-8 * TEMP * TEMP ) + ( 7.044E-5 * TEMP ) + 0.2996',
               NOM_PARA='TEMP',);

MATER_F=DEFI_MATERIAU(ELAS_FO=_F(E=E_F,
                                 NU=NU_F,
                                 TEMP_DEF_ALPHA=0.0,
                                 ALPHA=A_F,),);

CHT1=CREA_CHAMP(TYPE_CHAM='NOEU_TEMP_F',
                OPERATION='AFFE',
                MAILLAGE=MA,
                AFFE=_F(TOUT='OUI',
                        NOM_CMP='TEMP',
                        VALE_F=T,),);

CHT2=CREA_CHAMP(TYPE_CHAM='NOEU_TEMP_R',
                OPERATION='AFFE',
                MAILLAGE=MA,
                AFFE=_F(TOUT='OUI',
                        NOM_CMP='TEMP',
                        VALE=T2,),);

CHT3=CREA_CHAMP(TYPE_CHAM='NOEU_TEMP_R',
                OPERATION='AFFE',
                MAILLAGE=MA,
                AFFE=_F(TOUT='OUI',
                        NOM_CMP='TEMP',
                        VALE=T3,),);

LINST=DEFI_LIST_REEL(VALE=(1.,2.,3.,),);

L_1=DEFI_LIST_REEL(VALE=(1.,1.5,),);

L_2=DEFI_LIST_REEL(VALE=(1.8,2.,),);

TEMP=CREA_RESU(OPERATION='AFFE',
               TYPE_RESU='EVOL_THER',
               NOM_CHAM='TEMP',
               AFFE=(_F(CHAM_GD=CHT1,
                        LIST_INST=L_1,),
                     _F(CHAM_GD=CHT2,
                        LIST_INST=L_2,),
                     _F(CHAM_GD=CHT3,
                        INST=3.,),),);

CHMAT_F=AFFE_MATERIAU(MAILLAGE=MA,
                      AFFE=_F(TOUT='OUI',
                              MATER=MATER_F,),
                      AFFE_VARC=_F(TOUT='OUI',
                                   NOM_VARC='TEMP',
                                   EVOL=TEMP,
                                   NOM_CHAM='TEMP',
                                   VALE_REF=0.,),);

TEST_RESU(RESU=(_F(NUME_ORDRE=1,
                   REFERENCE='SOURCE_EXTERNE',
                   RESULTAT=TEMP,
                   NOM_CHAM='TEMP',
                   NOEUD='B',
                   NOM_CMP='TEMP',
                   VALE_CALC=6.0,
                   VALE_REFE=6.0,),
                _F(NUME_ORDRE=1,
                   REFERENCE='SOURCE_EXTERNE',
                   RESULTAT=TEMP,
                   NOM_CHAM='TEMP',
                   NOEUD='C',
                   NOM_CMP='TEMP',
                   VALE_CALC=118.0,
                   VALE_REFE=118.0,),
                _F(NUME_ORDRE=1,
                   REFERENCE='SOURCE_EXTERNE',
                   RESULTAT=TEMP,
                   NOM_CHAM='TEMP',
                   NOEUD='E',
                   NOM_CMP='TEMP',
                   VALE_CALC=502.0,
                   VALE_REFE=502.0,),
                _F(NUME_ORDRE=1,
                   REFERENCE='SOURCE_EXTERNE',
                   RESULTAT=TEMP,
                   NOM_CHAM='TEMP',
                   NOEUD='F',
                   NOM_CMP='TEMP',
                   VALE_CALC=646.0,
                   VALE_REFE=646.0,),
                _F(NUME_ORDRE=2,
                   REFERENCE='SOURCE_EXTERNE',
                   RESULTAT=TEMP,
                   NOM_CHAM='TEMP',
                   NOEUD='B',
                   NOM_CMP='TEMP',
                   VALE_CALC=9.0,
                   VALE_REFE=9.0,),
                _F(NUME_ORDRE=2,
                   REFERENCE='SOURCE_EXTERNE',
                   RESULTAT=TEMP,
                   NOM_CHAM='TEMP',
                   NOEUD='E',
                   NOM_CMP='TEMP',
                   VALE_CALC=753.0,
                   VALE_REFE=753.0,),
                ),
          )

CHG1=AFFE_CHAR_MECA(MODELE=MOD,
                    DDL_IMPO=(_F(NOEUD=('B','C','D','E','F',),
                                 DX=0.,
                                 DRY=0.,
                                 DRZ=0.,),
                              _F(NOEUD=('A','G',),
                                 DX=0.,
                                 DY=0.,
                                 DZ=0.,),),
                    FORCE_NODALE=_F(NOEUD=('C','E',),
                                    FZ=-1000.,),);

U2=MECA_STATIQUE(MODELE=MOD,
                 CHAM_MATER=CHMAT_F,
                 CARA_ELEM=CARLEM,
                 EXCIT=_F(CHARGE=CHG1,),
                 LIST_INST=LINST,);

TEST_RESU(RESU=(_F(NUME_ORDRE=1,
                   RESULTAT=U2,
                   NOM_CHAM='DEPL',
                   NOEUD='B',
                   NOM_CMP='DY',
                   VALE_CALC=-8.1236860608786E-03,
                   VALE_REFE=-8.1226600000000003E-3,
                   REFERENCE = 'SOURCE_EXTERNE',
                   PRECISION=1.E-3,
                   ),
                _F(NUME_ORDRE=1,
                   RESULTAT=U2,
                   NOM_CHAM='DEPL',
                   NOEUD='B',
                   NOM_CMP='DZ',
                   VALE_CALC=-0.010000000000001,
                   VALE_REFE=-1.E-2,
                   REFERENCE = 'SOURCE_EXTERNE',
                   PRECISION=1.E-3,
                   ),
                _F(NUME_ORDRE=1,
                   RESULTAT=U2,
                   NOM_CHAM='DEPL',
                   NOEUD='C',
                   NOM_CMP='DY',
                   VALE_CALC=9.157101644949E-03,
                   VALE_REFE=9.1570999999999996E-3,
                   REFERENCE = 'SOURCE_EXTERNE',
                   PRECISION=1.E-3,
                   ),
                _F(NUME_ORDRE=1,
                   RESULTAT=U2,
                   NOM_CHAM='DEPL',
                   NOEUD='C',
                   NOM_CMP='DZ',
                   VALE_CALC=-0.027304220844000,
                   VALE_REFE=-0.027304200000000001,
                   REFERENCE = 'SOURCE_EXTERNE',
                   PRECISION=1.E-3,
                   ),
                _F(NUME_ORDRE=1,
                   RESULTAT=U2,
                   NOM_CHAM='DEPL',
                   NOEUD='E',
                   NOM_CMP='DY',
                   VALE_CALC=-5.6431386191952E-03,
                   VALE_REFE=-5.6431299999999997E-3,
                   REFERENCE = 'SOURCE_EXTERNE',
                   PRECISION=1.E-3,
                   ),
                _F(NUME_ORDRE=1,
                   RESULTAT=U2,
                   NOM_CHAM='DEPL',
                   NOEUD='E',
                   NOM_CMP='DZ',
                   VALE_CALC=-0.023785090488734,
                   VALE_REFE=-0.023785000000000001,
                   REFERENCE = 'SOURCE_EXTERNE',
                   PRECISION=1.E-3,
                   ),
                _F(NUME_ORDRE=1,
                   RESULTAT=U2,
                   NOM_CHAM='DEPL',
                   NOEUD='F',
                   NOM_CMP='DY',
                   VALE_CALC=8.1236860608788E-03,
                   VALE_REFE=8.1226600000000003E-3,
                   REFERENCE = 'SOURCE_EXTERNE',
                   PRECISION=1.E-3,
                   ),
                _F(NUME_ORDRE=1,
                   RESULTAT=U2,
                   NOM_CHAM='DEPL',
                   NOEUD='F',
                   NOM_CMP='DZ',
                   VALE_CALC=-9.9999999999985E-03,
                   VALE_REFE=-1.E-2,
                   REFERENCE = 'SOURCE_EXTERNE',
                   PRECISION=1.E-3,
                   ),
                _F(NUME_ORDRE=2,
                   RESULTAT=U2,
                   NOM_CHAM='DEPL',
                   NOEUD='B',
                   NOM_CMP='DY',
                   VALE_CALC=-8.1091584695824E-03,
                   VALE_REFE=-8.1091600000000007E-3,
                   REFERENCE = 'SOURCE_EXTERNE',
                   PRECISION=1.E-3,
                   ),
                _F(NUME_ORDRE=2,
                   RESULTAT=U2,
                   NOM_CHAM='DEPL',
                   NOEUD='B',
                   NOM_CMP='DZ',
                   VALE_CALC=-0.010000000000001,
                   VALE_REFE=-1.E-2,
                   REFERENCE = 'SOURCE_EXTERNE',
                   PRECISION=1.E-3,
                   ),
                _F(NUME_ORDRE=2,
                   RESULTAT=U2,
                   NOM_CHAM='DEPL',
                   NOEUD='C',
                   NOM_CMP='DY',
                   VALE_CALC=6.624274594349E-03,
                   VALE_REFE=6.6244499999999996E-3,
                   REFERENCE = 'SOURCE_EXTERNE',
                   PRECISION=1.E-3,
                   ),
                _F(NUME_ORDRE=2,
                   RESULTAT=U2,
                   NOM_CHAM='DEPL',
                   NOEUD='C',
                   NOM_CMP='DZ',
                   VALE_CALC=-0.024752335806722,
                   VALE_REFE=-0.0247525,
                   REFERENCE = 'SOURCE_EXTERNE',
                   PRECISION=1.E-3,
                   ),
                _F(NUME_ORDRE=2,
                   RESULTAT=U2,
                   NOM_CHAM='DEPL',
                   NOEUD='E',
                   NOM_CMP='DY',
                   VALE_CALC=-6.6242745943608E-03,
                   VALE_REFE=-6.6244499999999996E-3,
                   REFERENCE = 'SOURCE_EXTERNE',
                   PRECISION=1.E-3,
                   ),
                _F(NUME_ORDRE=2,
                   RESULTAT=U2,
                   NOM_CHAM='DEPL',
                   NOEUD='E',
                   NOM_CMP='DZ',
                   VALE_CALC=-0.024752335806732,
                   VALE_REFE=-0.0247525,
                   REFERENCE = 'SOURCE_EXTERNE',
                   PRECISION=1.E-3,
                   ),
                _F(NUME_ORDRE=2,
                   RESULTAT=U2,
                   NOM_CHAM='DEPL',
                   NOEUD='F',
                   NOM_CMP='DY',
                   VALE_CALC=8.1091584695821E-03,
                   VALE_REFE=8.1091600000000007E-3,
                   REFERENCE = 'SOURCE_EXTERNE',
                   PRECISION=1.E-3,
                   ),
                _F(NUME_ORDRE=2,
                   RESULTAT=U2,
                   NOM_CHAM='DEPL',
                   NOEUD='F',
                   NOM_CMP='DZ',
                   VALE_CALC=-9.9999999999998E-03,
                   VALE_REFE=-1.E-2,
                   REFERENCE = 'SOURCE_EXTERNE',
                   PRECISION=1.E-3,
                   ),
                _F(NUME_ORDRE=3,
                   RESULTAT=U2,
                   NOM_CHAM='DEPL',
                   NOEUD='B',
                   NOM_CMP='DY',
                   VALE_CALC=-8.0767951947902E-03,
                   VALE_REFE=-8.07655E-3,
                   REFERENCE = 'SOURCE_EXTERNE',
                   PRECISION=1.E-3,
                   ),
                _F(NUME_ORDRE=3,
                   RESULTAT=U2,
                   NOM_CHAM='DEPL',
                   NOEUD='B',
                   NOM_CMP='DZ',
                   VALE_CALC=-0.010000000000000,
                   VALE_REFE=-1.E-2,
                   REFERENCE = 'SOURCE_EXTERNE',
                   PRECISION=1.E-3,
                   ),
                _F(NUME_ORDRE=3,
                   RESULTAT=U2,
                   NOM_CHAM='DEPL',
                   NOEUD='C',
                   NOM_CMP='DY',
                   VALE_CALC=4.9736235169259E-03,
                   VALE_REFE=4.9638499999999997E-3,
                   REFERENCE = 'SOURCE_EXTERNE',
                   PRECISION=2.0999999999999999E-3,
                   ),
                _F(NUME_ORDRE=3,
                   RESULTAT=U2,
                   NOM_CHAM='DEPL',
                   NOEUD='C',
                   NOM_CMP='DZ',
                   VALE_CALC=-0.023065407074686,
                   VALE_REFE=-0.0230554,
                   REFERENCE = 'SOURCE_EXTERNE',
                   PRECISION=1.E-3,
                   ),
                _F(NUME_ORDRE=3,
                   RESULTAT=U2,
                   NOM_CHAM='DEPL',
                   NOEUD='E',
                   NOM_CMP='DY',
                   VALE_CALC=-4.973623516929E-03,
                   VALE_REFE=-4.9638499999999997E-3,
                   REFERENCE = 'SOURCE_EXTERNE',
                   PRECISION=2.0999999999999999E-3,
                   ),
                _F(NUME_ORDRE=3,
                   RESULTAT=U2,
                   NOM_CHAM='DEPL',
                   NOEUD='E',
                   NOM_CMP='DZ',
                   VALE_CALC=-0.023065407074687,
                   VALE_REFE=-0.0230554,
                   REFERENCE = 'SOURCE_EXTERNE',
                   PRECISION=1.E-3,
                   ),
                _F(NUME_ORDRE=3,
                   RESULTAT=U2,
                   NOM_CHAM='DEPL',
                   NOEUD='F',
                   NOM_CMP='DY',
                   VALE_CALC=8.0767951947889E-03,
                   VALE_REFE=8.07655E-3,
                   REFERENCE = 'SOURCE_EXTERNE',
                   PRECISION=1.E-3,
                   ),
                _F(NUME_ORDRE=3,
                   RESULTAT=U2,
                   NOM_CHAM='DEPL',
                   NOEUD='F',
                   NOM_CMP='DZ',
                   VALE_CALC=-9.9999999999991E-03,
                   VALE_REFE=-1.E-2,
                   REFERENCE = 'SOURCE_EXTERNE',
                   PRECISION=1.E-3,
                   ),
                ),
          )

FIN();
