# person_in_charge: jean-michel.proix at edf.fr
# TITRE TUBE DROIT SOUMIS A PLUSIEURS CHARGEMENTS ELEMENT TUYAU_3M 3 NOEUDS STAT_NON_LINE
# ======================================================================
# COPYRIGHT (C) 1991 - 2012  EDF R&D                  WWW.CODE-ASTER.ORG
# THIS PROGRAM IS FREE SOFTWARE; YOU CAN REDISTRIBUTE IT AND/OR MODIFY
# IT UNDER THE TERMS OF THE GNU GENERAL PUBLIC LICENSE AS PUBLISHED BY
# THE FREE SOFTWARE FOUNDATION; EITHER VERSION 2 OF THE LICENSE, OR
# (AT YOUR OPTION) ANY LATER VERSION.
#
# THIS PROGRAM IS DISTRIBUTED IN THE HOPE THAT IT WILL BE USEFUL, BUT
# WITHOUT ANY WARRANTY; WITHOUT EVEN THE IMPLIED WARRANTY OF
# MERCHANTABILITY OR FITNESS FOR A PARTICULAR PURPOSE. SEE THE GNU
# GENERAL PUBLIC LICENSE FOR MORE DETAILS.
#
# YOU SHOULD HAVE RECEIVED A COPY OF THE GNU GENERAL PUBLIC LICENSE
# ALONG WITH THIS PROGRAM; IF NOT, WRITE TO EDF R&D CODE_ASTER,
#    1 AVENUE DU GENERAL DE GAULLE, 92141 CLAMART CEDEX, FRANCE.
# ======================================================================

DEBUT(CODE=_F(NOM='SSLL106B',NIV_PUB_WEB='INTERNET',VISU_EFICAS='NON'),DEBUG=_F(SDVERI='OUI'))

#PRE_GIBI () ;

MA=LIRE_MAILLAGE(FORMAT='MED', )

MA=DEFI_GROUP( reuse=MA,   MAILLAGE=MA,
  CREA_GROUP_MA=_F(  NOM = 'TOUT', TOUT = 'OUI'))

MO=AFFE_MODELE(        MAILLAGE=MA,
     AFFE=_F( TOUT = 'OUI', PHENOMENE = 'MECANIQUE', MODELISATION = 'TUYAU_3M')
                        )

#------CARACTERISTIQUES ELEMENTAIRES----------------------


CAREL=AFFE_CARA_ELEM(   MODELE=MO,
                 VERIF='MAILLE',
                 POUTRE=_F(
       GROUP_MA = 'TOUT',
 SECTION = 'CERCLE',
                 CARA = ('R', 'EP',),
                 MODI_METRIQUE = 'OUI',
                 VALE = (0.04, 0.008,)),
 ORIENTATION=_F( GROUP_NO = 'A', CARA = 'GENE_TUYAU', VALE = (0., 0., -1.,))
                             )

#-------CARACTERISTIQUES DU MATERIAUX----------------------



MAT=DEFI_MATERIAU(   ELAS=_F( E = 2.E11, NU = 0.3, RHO = 7800.),
            ECRO_LINE=_F(  D_SIGM_EPSI = 2.E+9,    SY = 2.7E+15))

CHMAT=AFFE_MATERIAU(   MAILLAGE=MA,
                           AFFE=_F( TOUT = 'OUI', MATER = MAT))

CHAR0=AFFE_CHAR_MECA(   MODELE=MO,

          DDL_IMPO=_F( GROUP_NO = 'A', DX = 0., DY = 0., DZ = 0.,
                      DRX = 0., DRY = 0., DRZ = 0.)
                      )

# FX LOCAL


CHAR1=AFFE_CHAR_MECA(   MODELE=MO,
          FORCE_NODALE=_F( GROUP_NO = 'B', FX = 4.E2, FY = 3.E2)
            )

# FY LOCAL

CHAR2=AFFE_CHAR_MECA(   MODELE=MO,
          FORCE_NODALE=_F( GROUP_NO = 'B', FX = -3.E2, FY = 4.E2)
            )

# FZ LOCAL

CHAR3=AFFE_CHAR_MECA(   MODELE=MO,
          FORCE_NODALE=_F( GROUP_NO = 'B', FZ = 5.E2)
            )

# MX LOCAL


CHAR4=AFFE_CHAR_MECA(   MODELE=MO,
           FORCE_NODALE=_F( GROUP_NO = 'B', MX = 4.E2, MY = 3.E2)
            )

# MY LOCAL


CHAR5=AFFE_CHAR_MECA(   MODELE=MO,
           FORCE_NODALE=_F( GROUP_NO = 'B', MX = -3.E2, MY = 4.E2)
            )

# MZ LOCAL


CHAR6=AFFE_CHAR_MECA(   MODELE=MO,
          FORCE_NODALE=_F( GROUP_NO = 'B', MZ = 5.E2)
            )

CHAR7=AFFE_CHAR_MECA(   MODELE=MO,
                FORCE_TUYAU=_F(  TOUT = 'OUI',
                           PRES = 1.E7)
            )

RAMPE=DEFI_FONCTION(  NOM_PARA='INST',
            PROL_GAUCHE='LINEAIRE', PROL_DROITE='LINEAIRE',
            VALE=(0.0,0.0,1.0,1.0,) )

L_INST=DEFI_LIST_REEL(  DEBUT=0.0,
                INTERVALLE=_F( JUSQU_A = 1.,   NOMBRE = 2) )

U1=STAT_NON_LINE(
                            MODELE=MO,
                        CHAM_MATER=CHMAT,
                         CARA_ELEM=CAREL,EXCIT=(
                             _F(
                CHARGE = CHAR0), _F(
                CHARGE = CHAR1,
                FONC_MULT = RAMPE)),
                         COMP_INCR=_F( RELATION = 'ELAS', ),
                         INCREMENT=_F(
                LIST_INST = L_INST,
                NUME_INST_FIN = 2),
                            NEWTON=_F(
                MATRICE = 'TANGENTE',
                REAC_ITER = 1),
                       CONVERGENCE=_F(
                RESI_GLOB_RELA = 1.E-6,
                ITER_GLOB_MAXI = 10),
                     RECH_LINEAIRE=_F(
                ITER_LINE_MAXI = 3,
                RESI_LINE_RELA = 1.E-5)
              )

U1=CALC_CHAMP(reuse=U1,CONTRAINTE=('EFGE_ELNO'),VARI_INTERNE=('VARI_ELNO'),DEFORMATION=('DEGE_ELNO'),RESULTAT=U1)


U2=STAT_NON_LINE(
                            MODELE=MO,
                        CHAM_MATER=CHMAT,
                         CARA_ELEM=CAREL,EXCIT=(
                             _F(
                CHARGE = CHAR0), _F(
                CHARGE = CHAR2,
                FONC_MULT = RAMPE)),
                         COMP_INCR=_F( RELATION = 'ELAS', ),
                         INCREMENT=_F(
                LIST_INST = L_INST,
                NUME_INST_FIN = 2),
                            NEWTON=_F(
                MATRICE = 'TANGENTE',
                REAC_ITER = 1),
                       CONVERGENCE=_F(
                RESI_GLOB_RELA = 1.E-6,
                ITER_GLOB_MAXI = 10),
                     RECH_LINEAIRE=_F(
                ITER_LINE_MAXI = 3,
                RESI_LINE_RELA = 1.E-5)
              )

U2=CALC_CHAMP(reuse=U2,CONTRAINTE=('EFGE_ELNO'),VARI_INTERNE=('VARI_ELNO'),DEFORMATION=('DEGE_ELNO'),RESULTAT=U2)


U3=STAT_NON_LINE(
                            MODELE=MO,
                        CHAM_MATER=CHMAT,
                         CARA_ELEM=CAREL,EXCIT=(
                             _F(
                CHARGE = CHAR0), _F(
                CHARGE = CHAR3,
                FONC_MULT = RAMPE)),
                         COMP_INCR=_F( RELATION = 'ELAS', ),
                         INCREMENT=_F(
                LIST_INST = L_INST,
                NUME_INST_FIN = 2),
                            NEWTON=_F(
                MATRICE = 'TANGENTE',
                REAC_ITER = 1),
                       CONVERGENCE=_F(
                RESI_GLOB_RELA = 1.E-6,
                ITER_GLOB_MAXI = 10),
                     RECH_LINEAIRE=_F(
                ITER_LINE_MAXI = 3,
                RESI_LINE_RELA = 1.E-5)
              )

U3=CALC_CHAMP(reuse=U3,CONTRAINTE=('EFGE_ELNO'),VARI_INTERNE=('VARI_ELNO'),DEFORMATION=('DEGE_ELNO'),RESULTAT=U3)


U4=STAT_NON_LINE(
                            MODELE=MO,
                        CHAM_MATER=CHMAT,
                         CARA_ELEM=CAREL,EXCIT=(
                             _F(
                CHARGE = CHAR0), _F(
                CHARGE = CHAR4,
                FONC_MULT = RAMPE)),
                         COMP_INCR=_F( RELATION = 'ELAS', ),
                         INCREMENT=_F(
                LIST_INST = L_INST,
                NUME_INST_FIN = 2),
                            NEWTON=_F(
                MATRICE = 'TANGENTE',
                REAC_ITER = 1),
                       CONVERGENCE=_F(
                RESI_GLOB_RELA = 1.E-6,
                ITER_GLOB_MAXI = 10),
                     RECH_LINEAIRE=_F(
                ITER_LINE_MAXI = 3,
                RESI_LINE_RELA = 1.E-5)
              )

U4=CALC_CHAMP(reuse=U4,CONTRAINTE=('EFGE_ELNO'),VARI_INTERNE=('VARI_ELNO'),DEFORMATION=('DEGE_ELNO'),RESULTAT=U4)


U5=STAT_NON_LINE(
                            MODELE=MO,
                        CHAM_MATER=CHMAT,
                         CARA_ELEM=CAREL,EXCIT=(
                             _F(
                CHARGE = CHAR0), _F(
                CHARGE = CHAR5,
                FONC_MULT = RAMPE)),
                         COMP_INCR=_F(  RELATION = 'ELAS', ),
                         INCREMENT=_F(
                LIST_INST = L_INST,
                NUME_INST_FIN = 2),
                            NEWTON=_F(
                MATRICE = 'TANGENTE',
                REAC_ITER = 1),
                       CONVERGENCE=_F(
                RESI_GLOB_RELA = 1.E-6,
                ITER_GLOB_MAXI = 10),
                     RECH_LINEAIRE=_F(
                ITER_LINE_MAXI = 3,
                RESI_LINE_RELA = 1.E-5)
              )

U5=CALC_CHAMP(reuse=U5,CONTRAINTE=('EFGE_ELNO'),VARI_INTERNE=('VARI_ELNO'),DEFORMATION=('DEGE_ELNO'),RESULTAT=U5)


U6=STAT_NON_LINE(
                            MODELE=MO,
                        CHAM_MATER=CHMAT,
                         CARA_ELEM=CAREL,EXCIT=(
                             _F(
                CHARGE = CHAR0), _F(
                CHARGE = CHAR6,
                FONC_MULT = RAMPE)),
                         COMP_INCR=_F( RELATION = 'ELAS', ),
                         INCREMENT=_F(
                LIST_INST = L_INST,
                NUME_INST_FIN = 2),
                            NEWTON=_F(
                MATRICE = 'TANGENTE',
                REAC_ITER = 1),
                       CONVERGENCE=_F(
                RESI_GLOB_RELA = 1.E-6,
                ITER_GLOB_MAXI = 10),
                     RECH_LINEAIRE=_F(
                ITER_LINE_MAXI = 3,
                RESI_LINE_RELA = 1.E-5)
              )

U6=CALC_CHAMP(reuse=U6,CONTRAINTE=('EFGE_ELNO'),VARI_INTERNE=('VARI_ELNO'),DEFORMATION=('DEGE_ELNO'),RESULTAT=U6)


U7=STAT_NON_LINE(
                            MODELE=MO,
                        CHAM_MATER=CHMAT,
                         CARA_ELEM=CAREL,EXCIT=(
                             _F(
                CHARGE = CHAR0), _F(
                CHARGE = CHAR7,
                FONC_MULT = RAMPE)),
                         COMP_INCR=_F(  RELATION = 'ELAS', ),
                         INCREMENT=_F(
                LIST_INST = L_INST,
                NUME_INST_FIN = 2),
                            NEWTON=_F(
                MATRICE = 'TANGENTE',
                REAC_ITER = 1),
                       CONVERGENCE=_F(
                RESI_GLOB_RELA = 1.E-6,
                ITER_GLOB_MAXI = 10),
                     RECH_LINEAIRE=_F(
                ITER_LINE_MAXI = 3,
                RESI_LINE_RELA = 1.E-5)
              )

U7=CALC_CHAMP(reuse=U7,CONTRAINTE=('EFGE_ELNO'),VARI_INTERNE=('VARI_ELNO'),RESULTAT=U7)


TEST_RESU(RESU=(_F(NUME_ORDRE=2,
                   GROUP_NO='B',
                   RESULTAT=U1,
                   NOM_CHAM='DEPL',
                   NOM_CMP='DX',
                   VALE_CALC= 5.52397822E-06,
                   VALE_REFE=5.5262100000000004E-06,
                   REFERENCE='NON_DEFINI',
                   PRECISION=1.E-2,),
                _F(NUME_ORDRE=2,
                   GROUP_NO='B',
                   RESULTAT=U1,
                   NOM_CHAM='DEPL',
                   NOM_CMP='DY',
                   VALE_CALC= 4.14298367E-06,
                   VALE_REFE=4.1446600000000001E-06,
                   REFERENCE='NON_DEFINI',
                   PRECISION=1.E-2,),
                _F(NUME_ORDRE=2,
                   POINT=1,
                   RESULTAT=U1,
                   NOM_CHAM='EFGE_ELNO',
                   NOM_CMP='N',
                   VALE_CALC=500.679940482,
                   VALE_REFE=500.0,
                   REFERENCE='NON_DEFINI',
                   PRECISION=1.E-2,
                   MAILLE='M18',),
                _F(NUME_ORDRE=2,
                   POINT=1,
                   SOUS_POINT=1,
                   RESULTAT=U1,
                   NOM_CHAM='SIEF_ELGA',
                   NOM_CMP='SIXX',
                   VALE_CALC= 2.73108393E+05,
                   VALE_REFE=2.76311E5,
                   REFERENCE='NON_DEFINI',
                   PRECISION=0.02,
                   MAILLE='M18',),
                ),
          )

TEST_RESU(RESU=(_F(NUME_ORDRE=2,
                   GROUP_NO='B',
                   RESULTAT=U2,
                   NOM_CHAM='DEPL',
                   NOM_CMP='DX',
                   VALE_CALC=-0.052621258,
                   VALE_REFE=-0.052650700000000002,
                   REFERENCE='NON_DEFINI',
                   PRECISION=1.E-2,),
                _F(NUME_ORDRE=2,
                   GROUP_NO='B',
                   RESULTAT=U2,
                   NOM_CHAM='DEPL',
                   NOM_CMP='DY',
                   VALE_CALC=0.070161677,
                   VALE_REFE=0.070200899999999997,
                   REFERENCE='NON_DEFINI',
                   PRECISION=1.E-2,),
                _F(NUME_ORDRE=2,
                   GROUP_NO='B',
                   RESULTAT=U2,
                   NOM_CHAM='DEPL',
                   NOM_CMP='DRZ',
                   VALE_CALC=0.026314880,
                   VALE_REFE=0.026325299999999999,
                   REFERENCE='NON_DEFINI',
                   PRECISION=1.E-2,),
                ),
          )

TEST_RESU(RESU=(_F(NUME_ORDRE=2,
                   GROUP_NO='B',
                   RESULTAT=U3,
                   NOM_CHAM='DEPL',
                   NOM_CMP='DZ',
                   VALE_CALC=0.087702097,
                   VALE_REFE=0.087751099999999999,
                   REFERENCE='NON_DEFINI',
                   PRECISION=1.E-2,),
                _F(NUME_ORDRE=2,
                   GROUP_NO='B',
                   RESULTAT=U3,
                   NOM_CHAM='DEPL',
                   NOM_CMP='DRX',
                   VALE_CALC=0.015788928,
                   VALE_REFE=0.015795199999999999,
                   REFERENCE='NON_DEFINI',
                   PRECISION=1.E-2,),
                _F(NUME_ORDRE=2,
                   GROUP_NO='B',
                   RESULTAT=U3,
                   NOM_CHAM='DEPL',
                   NOM_CMP='DRY',
                   VALE_CALC=-0.021051904,
                   VALE_REFE=-0.021060200000000001,
                   REFERENCE='NON_DEFINI',
                   PRECISION=1.E-2,),
                ),
          )

TEST_RESU(RESU=(_F(NUME_ORDRE=2,
                   GROUP_NO='B',
                   RESULTAT=U4,
                   NOM_CHAM='DEPL',
                   NOM_CMP='DRX',
                   VALE_CALC=0.010951337,
                   VALE_REFE=0.01095134,
                   REFERENCE='NON_DEFINI',
                   PRECISION=1.E-2,),
                _F(NUME_ORDRE=2,
                   GROUP_NO='B',
                   RESULTAT=U4,
                   NOM_CHAM='DEPL',
                   NOM_CMP='DRY',
                   VALE_CALC= 8.21350300E-03,
                   VALE_REFE=8.2135000000000003E-3,
                   REFERENCE='NON_DEFINI',
                   PRECISION=1.E-2,),
                _F(NUME_ORDRE=2,
                   POINT=1,
                   RESULTAT=U4,
                   NOM_CHAM='EFGE_ELNO',
                   NOM_CMP='MT',
                   VALE_CALC=500.000000000,
                   VALE_REFE=500.0,
                   REFERENCE='NON_DEFINI',
                   PRECISION=1.E-2,
                   MAILLE='M18',),
                _F(NUME_ORDRE=2,
                   POINT=1,
                   SOUS_POINT=1,
                   RESULTAT=U4,
                   NOM_CHAM='SIEF_ELGA',
                   NOM_CMP='SIXY',
                   VALE_CALC=-6.73928451E+06,
                   VALE_REFE=-6.750000E6,
                   REFERENCE='NON_DEFINI',
                   PRECISION=1.E-2,
                   MAILLE='M18',),
                _F(NUME_ORDRE=2,
                   POINT=3,
                   SOUS_POINT=231,
                   RESULTAT=U4,
                   NOM_CHAM='SIEF_ELGA',
                   NOM_CMP='SIXY',
                   VALE_CALC=-8.42410564E+06,
                   VALE_REFE=-8.420000E6,
                   REFERENCE='NON_DEFINI',
                   PRECISION=1.E-2,
                   MAILLE='M18',),
                ),
          )

TEST_RESU(RESU=(_F(NUME_ORDRE=2,
                   GROUP_NO='B',
                   RESULTAT=U5,
                   NOM_CHAM='DEPL',
                   NOM_CMP='DZ',
                   VALE_CALC=-0.026314880,
                   VALE_REFE=-0.026325299999999999,
                   REFERENCE='NON_DEFINI',
                   PRECISION=1.E-2,),
                _F(NUME_ORDRE=2,
                   GROUP_NO='B',
                   RESULTAT=U5,
                   NOM_CHAM='DEPL',
                   NOM_CMP='DRX',
                   VALE_CALC=-6.31557109E-03,
                   VALE_REFE=-6.3180800000000002E-3,
                   REFERENCE='NON_DEFINI',
                   PRECISION=1.E-2,),
                _F(NUME_ORDRE=2,
                   GROUP_NO='B',
                   RESULTAT=U5,
                   NOM_CHAM='DEPL',
                   NOM_CMP='DRY',
                   VALE_CALC= 8.42076145E-03,
                   VALE_REFE=8.4241100000000003E-3,
                   REFERENCE='NON_DEFINI',
                   PRECISION=1.E-2,),
                _F(NUME_ORDRE=2,
                   POINT=1,
                   RESULTAT=U5,
                   NOM_CHAM='EFGE_ELNO',
                   NOM_CMP='MFY',
                   VALE_CALC=500.617340565,
                   VALE_REFE=500.0,
                   REFERENCE='NON_DEFINI',
                   PRECISION=1.E-2,
                   MAILLE='M18',),
                _F(NUME_ORDRE=2,
                   POINT=3,
                   SOUS_POINT=17,
                   RESULTAT=U5,
                   NOM_CHAM='SIEF_ELGA',
                   NOM_CMP='SIXX',
                   VALE_CALC= 1.33087418E+07,
                   VALE_REFE=1.3482400E7,
                   REFERENCE='NON_DEFINI',
                   PRECISION=0.02,
                   MAILLE='M18',),
                ),
          )

TEST_RESU(RESU=(_F(NUME_ORDRE=2,
                   GROUP_NO='B',
                   RESULTAT=U6,
                   NOM_CHAM='DEPL',
                   NOM_CMP='DX',
                   VALE_CALC=-0.015788928,
                   VALE_REFE=-0.015795199999999999,
                   REFERENCE='NON_DEFINI',
                   PRECISION=1.E-2,),
                _F(NUME_ORDRE=2,
                   GROUP_NO='B',
                   RESULTAT=U6,
                   NOM_CHAM='DEPL',
                   NOM_CMP='DY',
                   VALE_CALC=0.021051904,
                   VALE_REFE=0.021060200000000001,
                   REFERENCE='NON_DEFINI',
                   PRECISION=1.E-2,),
                _F(NUME_ORDRE=2,
                   GROUP_NO='B',
                   RESULTAT=U6,
                   NOM_CHAM='DEPL',
                   NOM_CMP='DRZ',
                   VALE_CALC=0.010525952,
                   VALE_REFE=0.010530100000000001,
                   REFERENCE='NON_DEFINI',
                   PRECISION=1.E-2,),
                _F(NUME_ORDRE=2,
                   POINT=1,
                   RESULTAT=U6,
                   NOM_CHAM='EFGE_ELNO',
                   NOM_CMP='MFZ',
                   VALE_CALC=500.617340564,
                   VALE_REFE=500.0,
                   REFERENCE='NON_DEFINI',
                   PRECISION=1.E-2,
                   MAILLE='M18',),
                _F(NUME_ORDRE=2,
                   POINT=3,
                   SOUS_POINT=9,
                   RESULTAT=U6,
                   NOM_CHAM='SIEF_ELGA',
                   NOM_CMP='SIXX',
                   VALE_CALC= 1.33087418E+07,
                   VALE_REFE=1.3482400E7,
                   REFERENCE='NON_DEFINI',
                   PRECISION=0.02,
                   MAILLE='M18',),
                ),
          )

TEST_RESU(RESU=(_F(NUME_ORDRE=2,
                   GROUP_NO='B',
                   RESULTAT=U7,
                   NOM_CHAM='DEPL',
                   NOM_CMP='WO',
                   VALE_CALC= 7.15847259E-06,
                   VALE_REFE=7.3757999999999998E-06,
                   REFERENCE='NON_DEFINI',
                   PRECISION=0.040000000000000001,),
                _F(NUME_ORDRE=2,
                   POINT=1,
                   SOUS_POINT=1,
                   RESULTAT=U7,
                   NOM_CHAM='SIEF_ELGA',
                   NOM_CMP='SIYY',
                   VALE_CALC= 4.52634194E+07,
                   VALE_REFE=4.5555600E7,
                   REFERENCE='NON_DEFINI',
                   PRECISION=1.E-2,
                   MAILLE='M18',),
                _F(NUME_ORDRE=2,
                   POINT=3,
                   SOUS_POINT=231,
                   RESULTAT=U7,
                   NOM_CHAM='SIEF_ELGA',
                   NOM_CMP='SIYY',
                   VALE_CALC= 3.54237675E+07,
                   VALE_REFE=3.5555600E7,
                   REFERENCE='NON_DEFINI',
                   PRECISION=1.E-2,
                   MAILLE='M18',),
                ),
          )

# Solutions analytiques pour les deformations generalisees de poutre DEGE_ELNO
L=5.0
E=2.E11
Nu=0.3
G=E/2/(1.0+Nu)
REXT=0.04
EP=0.008
import math
PI=math.pi
IF=PI*(REXT**4-(REXT-EP)**4)/4
JX=2.0*IF
SU=PI*(REXT**2-(REXT-EP)**2)
print 'SU, IF =',SU,IF

# Solution analytique chargement 1 Fx local = 500
EPXX=500./E/SU
# Solution analytique chargement 2 Fy local = 500
GAXY=500./G/SU
KZF=500*L/E/IF
# Solution analytique chargement 3 Fz local = 500
GAXZ=500./G/SU
KYF=-500*L/E/IF
# Solution analytique chargement 4 Mx local = 500
GAT=500/G/JX
# Solution analytique chargement 2 My local = 500
KYM=500/E/IF
# Solution analytique chargement 3 Mz local = 500
KZM=500/E/IF

TEST_RESU(RESU=(_F(NUME_ORDRE=2,
                   REFERENCE='ANALYTIQUE',
                   RESULTAT=U1,
                   NOM_CHAM='DEGE_ELNO',
                   NOEUD='N1',
                   NOM_CMP='EPXX',
                   VALE_CALC= 1.38099456E-06,
                   VALE_REFE=1.3815533254504801E-06,
                   PRECISION=1.E-2,
                   MAILLE='M1',),
                _F(NUME_ORDRE=2,
                   REFERENCE='ANALYTIQUE',
                   RESULTAT=U2,
                   NOM_CHAM='DEGE_ELNO',
                   NOEUD='N1',
                   NOM_CMP='GAXY',
                   VALE_CALC= 4.74152697E-06,
                   VALE_REFE=3.5920386461712483E-06,
                   PRECISION=0.33000000000000002,
                   MAILLE='M1',),
                _F(NUME_ORDRE=2,
                   REFERENCE='ANALYTIQUE',
                   RESULTAT=U3,
                   NOM_CHAM='DEGE_ELNO',
                   NOEUD='N1',
                   NOM_CMP='GAXZ',
                   VALE_CALC= 4.74152697E-06,
                   VALE_REFE=3.5920386461712483E-06,
                   PRECISION=0.33000000000000002,
                   MAILLE='M1',),
                _F(NUME_ORDRE=2,
                   REFERENCE='ANALYTIQUE',
                   RESULTAT=U2,
                   NOM_CHAM='DEGE_ELNO',
                   NOEUD='N1',
                   NOM_CMP='KZ',
                   VALE_CALC=0.010399278,
                   VALE_REFE=0.010530132053738418,
                   PRECISION=0.012999999999999999,
                   MAILLE='M1',),
                _F(NUME_ORDRE=2,
                   REFERENCE='ANALYTIQUE',
                   RESULTAT=U3,
                   NOM_CHAM='DEGE_ELNO',
                   NOEUD='N1',
                   NOM_CMP='KY',
                   VALE_CALC=-0.010399278,
                   VALE_REFE=-0.010530132053738418,
                   PRECISION=0.012999999999999999,
                   MAILLE='M1',),
                _F(NUME_ORDRE=2,
                   REFERENCE='ANALYTIQUE',
                   RESULTAT=U4,
                   NOM_CHAM='DEGE_ELNO',
                   NOEUD='N1',
                   NOM_CMP='GAT',
                   VALE_CALC= 2.73783433E-03,
                   VALE_REFE=2.7378343339719891E-3,
                   PRECISION=1.E-2,
                   MAILLE='M1',),
                _F(NUME_ORDRE=2,
                   REFERENCE='ANALYTIQUE',
                   RESULTAT=U5,
                   NOM_CHAM='DEGE_ELNO',
                   NOEUD='N1',
                   NOM_CMP='KY',
                   VALE_CALC= 2.10519036E-03,
                   VALE_REFE=2.1060264107476837E-3,
                   PRECISION=1.E-2,
                   MAILLE='M1',),
                _F(NUME_ORDRE=2,
                   REFERENCE='ANALYTIQUE',
                   RESULTAT=U6,
                   NOM_CHAM='DEGE_ELNO',
                   NOEUD='N1',
                   NOM_CMP='KZ',
                   VALE_CALC= 2.10519036E-03,
                   VALE_REFE=2.1060264107476837E-3,
                   PRECISION=1.E-2,
                   MAILLE='M1',),
                ),
          )

FIN()
#
#
#
