# MODIF  DATE 10/10/2012   AUTEUR COURTOIS M.COURTOIS 
# TITRE PROBLEME DE HOVGAARD : CALCUL DES EFFORTS POU_C_T + POU_D_T
# ssll101f.para = tps_job 60 mem_job 512Mo ncpus 1 liste_test S
#            CONFIGURATION MANAGEMENT OF EDF VERSION
# ======================================================================
# COPYRIGHT (C) 1991 - 2012  EDF R&D                  WWW.CODE-ASTER.ORG
# THIS PROGRAM IS FREE SOFTWARE; YOU CAN REDISTRIBUTE IT AND/OR MODIFY
# IT UNDER THE TERMS OF THE GNU GENERAL PUBLIC LICENSE AS PUBLISHED BY
# THE FREE SOFTWARE FOUNDATION; EITHER VERSION 2 OF THE LICENSE, OR
# (AT YOUR OPTION) ANY LATER VERSION.
#
# THIS PROGRAM IS DISTRIBUTED IN THE HOPE THAT IT WILL BE USEFUL, BUT
# WITHOUT ANY WARRANTY; WITHOUT EVEN THE IMPLIED WARRANTY OF
# MERCHANTABILITY OR FITNESS FOR A PARTICULAR PURPOSE. SEE THE GNU
# GENERAL PUBLIC LICENSE FOR MORE DETAILS.
#
# YOU SHOULD HAVE RECEIVED A COPY OF THE GNU GENERAL PUBLIC LICENSE
# ALONG WITH THIS PROGRAM; IF NOT, WRITE TO EDF R&D CODE_ASTER,
#    1 AVENUE DU GENERAL DE GAULLE, 92141 CLAMART CEDEX, FRANCE.
# ======================================================================
#       VALIDATION : COMP_ELAS=_F(RELATION='ELAS',),

DEBUT(CODE=_F(NOM='SSLL101F',NIV_PUB_WEB='INTERNET'),DEBUG=_F(SDVERI='OUI'),)

#
MAILLAGE=LIRE_MAILLAGE(FORMAT='MED',VERI_MAIL=_F(APLAT=0.0,VERIF='OUI'))

MODELE=AFFE_MODELE(  MAILLAGE=MAILLAGE,AFFE=(
                      _F(  GROUP_MA = 'POU_D_T',PHENOMENE = 'MECANIQUE',
                             MODELISATION = 'POU_D_T'),
                      _F(  GROUP_MA = 'POU_C_T',PHENOMENE = 'MECANIQUE',
                             MODELISATION = 'POU_C_T'),
                      _F(  GROUP_MA = ('APA','APB'),PHENOMENE = 'MECANIQUE',
                             MODELISATION = 'DIS_TR',),),
                  )

#
# ----------------------------------------------------------------------
#  DEFINITION DES MATERIAUX
MAT_1=DEFI_MATERIAU(  ELAS=_F(
                         E = 1.658000000E+11,NU = 3.000000000E-01,
                         RHO = 1.340410000E+04,ALPHA = 1.288000000E-05) )

#

CHAMPMAT=AFFE_MATERIAU(   MAILLAGE=MAILLAGE,
                     AFFE=_F(  GROUP_MA = 'MAT_1',    MATER = MAT_1) )

#
# ----------------------------------------------------------------------
#       CONDITIONS LIMITES

CON_LIM=AFFE_CHAR_MECA( MODELE=MODELE,
                        DDL_IMPO=_F(  GROUP_NO = 'ENCASTRE',
                              DX = 0., DY = 0., DZ = 0.,
                              DRX = 0., DRY = 0., DRZ = 0.)
                  )

#

# ---------- AFFECTATION DES CARACTERISTIQUES ELEMENTAIRES ----------
grd = 1.0E+12
CARA_ELE=AFFE_CARA_ELEM( MODELE=MODELE,
#
       POUTRE=(
          _F(  GROUP_MA = 'SEC_1',
             SECTION = 'GENERALE',
              CARA = ('A', 'IZ', 'IY', 'AY', 'AZ', 'JX',
                      'EZ', 'EY', 'RY', 'RZ', 'RT', ),
              VALE = ( 3.439000000E-03, 1.377000000E-05, 1.377000000E-05,
                      2.000000000E+00, 2.000000000E+00, 2.754000000E-05,
                      0.000000000E+00, 0.000000000E+00, 1.000000000E+00,
                      1.000000000E+00, 1.000000000E+00, )),
          _F(  GROUP_MA = 'SEC_2',   SECTION = 'GENERALE',
             CARA = ('A', 'IZ', 'IY', 'AY', 'AZ', 'JX',
                      'EZ', 'EY', 'RY', 'RZ', 'RT', ),
               VALE = ( 3.439000000E-03, 5.887000000E-06, 5.887000000E-06,
                      2.000000000E+00, 2.000000000E+00, 2.754000000E-05,
                      0.000000000E+00, 0.000000000E+00, 1.000000000E+00,
                      1.000000000E+00, 1.000000000E+00, )),
      ),
      DISCRET=(_F(GROUP_MA=('APA','APB'),CARA='K_TR_D_L',VALE=(grd,grd,grd,grd,grd,grd),),
               _F(GROUP_MA=('APA','APB'),CARA='M_TR_L',VALE=(0.,0.,0.,0.,0.,0.,0.,0.,0.,0.,0.,0.,0.,0.,0.,0.,0.,0.,0.,0.,
                                                                       0.,0.,0.,0.,0.,0.,0.,0.,0.,0.,0.,0.,0.,0.,0.,0.,0.,0.,0.,0.,
                                                                0.,0.,0.,0.,0.,0.,0.,0.,0.,0.,0.,0.,0.,0.,0.,0.,0.,0.,0.,0.,
                                                                0.,0.,0.,0.,0.,0.,0.,0.,0.,0.,0.,0.,0.,0.,0.,0.,0.,0.,),),),
      ORIENTATION=(
         _F(GROUP_MA='APA', CARA='ANGL_NAUT',VALE=( 0.0, -90.0, 0.0),),
         _F(GROUP_MA='APB', CARA='ANGL_NAUT',VALE=( 0.0,   0.0, 0.0),),
      ),
      DEFI_ARC=(
         _F( MAILLE = ('E9', 'E10',),
             POIN_TANG = (0.,     0.,     0.), ),
         _F( MAILLE = ('E3','E4',),
             CENTRE = (0., -1.828, -0.922),), )
)

# ----------------------------------------------------------------------
# CALCUL STATIQUE

#CHARGEMENT 1
CH1=AFFE_CHAR_MECA( MODELE=MODELE, PESANTEUR=_F(GRAVITE=-9.81,
                                                DIRECTION=(0., 0., 1.,), ),)


#CHARGEMENT 2
TEMPER0=CREA_CHAMP( OPERATION='AFFE', TYPE_CHAM='NOEU_TEMP_R',
MAILLAGE=MAILLAGE,AFFE=(
       _F( NOEUD = 'N100',    NOM_CMP = 'TEMP',VALE = 0.),
       _F( NOEUD = 'N200',    NOM_CMP = 'TEMP',VALE = 0.),
       _F( NOEUD = 'N200',    NOM_CMP = 'TEMP',VALE = 0.),
       _F( NOEUD = 'N300',    NOM_CMP = 'TEMP',VALE = 0.),
       _F( NOEUD = 'N500',    NOM_CMP = 'TEMP',VALE = 0.),
       _F( NOEUD = 'N600',    NOM_CMP = 'TEMP',VALE = 0.),
       _F( NOEUD = 'N600',    NOM_CMP = 'TEMP',VALE = 0.),
       _F( NOEUD = 'N700',    NOM_CMP = 'TEMP',VALE = 0.),
       _F( NOEUD = 'N700',    NOM_CMP = 'TEMP',VALE = 0.),
       _F( NOEUD = 'N800',    NOM_CMP = 'TEMP',VALE = 0.),
       _F( NOEUD = 'N800',    NOM_CMP = 'TEMP',VALE = 0.),
       _F( NOEUD = 'N900',    NOM_CMP = 'TEMP',VALE = 0.),
       _F( NOEUD = 'N1100',   NOM_CMP = 'TEMP',VALE = 0.),
       _F( NOEUD = 'N1200',   NOM_CMP = 'TEMP',VALE = 0.),
       _F( NOEUD = 'N1200',   NOM_CMP = 'TEMP',VALE = 0.),
       _F( NOEUD = 'N1300',   NOM_CMP = 'TEMP',VALE = 0.),
       _F( NOEUD = 'N1300',   NOM_CMP = 'TEMP',VALE = 0.),
       _F( NOEUD = 'N1400',   NOM_CMP = 'TEMP',VALE = 0.),
       _F( NOEUD = 'N1400',   NOM_CMP = 'TEMP',VALE = 0.),
       _F( NOEUD = 'N1500',   NOM_CMP = 'TEMP',VALE = 0.),
# ... 7 like lines cut
       _F( NOEUD = 'N1100',   NOM_CMP = 'TEMP',VALE = 0.)
         ))

TEMPER=CREA_CHAMP( OPERATION='AFFE', TYPE_CHAM='NOEU_TEMP_R',
MAILLAGE=MAILLAGE,AFFE=(
       _F( NOEUD = 'N100',    NOM_CMP = 'TEMP',VALE = 4.722200000E+02),
       _F( NOEUD = 'N200',    NOM_CMP = 'TEMP',VALE = 4.722200000E+02),
       _F( NOEUD = 'N200',    NOM_CMP = 'TEMP',VALE = 4.722200000E+02),
       _F( NOEUD = 'N300',    NOM_CMP = 'TEMP',VALE = 4.722200000E+02),
       _F( NOEUD = 'N500',    NOM_CMP = 'TEMP',VALE = 4.722200000E+02),
       _F( NOEUD = 'N600',    NOM_CMP = 'TEMP',VALE = 4.722200000E+02),
       _F( NOEUD = 'N600',    NOM_CMP = 'TEMP',VALE = 4.722200000E+02),
       _F( NOEUD = 'N700',    NOM_CMP = 'TEMP',VALE = 4.722200000E+02),
       _F( NOEUD = 'N700',    NOM_CMP = 'TEMP',VALE = 4.722200000E+02),
       _F( NOEUD = 'N800',    NOM_CMP = 'TEMP',VALE = 4.722200000E+02),
       _F( NOEUD = 'N800',    NOM_CMP = 'TEMP',VALE = 4.722200000E+02),
       _F( NOEUD = 'N900',    NOM_CMP = 'TEMP',VALE = 4.722200000E+02),
       _F( NOEUD = 'N1100',   NOM_CMP = 'TEMP',VALE = 4.722200000E+02),
       _F( NOEUD = 'N1200',   NOM_CMP = 'TEMP',VALE = 4.722200000E+02),
       _F( NOEUD = 'N1200',   NOM_CMP = 'TEMP',VALE = 4.722200000E+02),
       _F( NOEUD = 'N1300',   NOM_CMP = 'TEMP',VALE = 4.722200000E+02),
       _F( NOEUD = 'N1300',   NOM_CMP = 'TEMP',VALE = 4.722200000E+02),
       _F( NOEUD = 'N1400',   NOM_CMP = 'TEMP',VALE = 4.722200000E+02),
       _F( NOEUD = 'N1400',   NOM_CMP = 'TEMP',VALE = 4.722200000E+02),
       _F( NOEUD = 'N1500',   NOM_CMP = 'TEMP',VALE = 4.722200000E+02),
# ... 7 like lines cut
       _F( NOEUD = 'N1100',   NOM_CMP = 'TEMP',VALE = 4.722200000E+02))
         )

#CHARGEMENT 3

CH3=AFFE_CHAR_MECA( MODELE=MODELE,FORCE_NODALE=(
             _F( NOEUD = 'N200',    FZ = -6.248970000E+02),
             _F( NOEUD = 'N300',    FZ = -7.887240000E+02),
             _F( NOEUD = 'N400',    FZ = -3.276540000E+02),
             _F( NOEUD = 'N500',    FZ = -2.148390000E+02),
             _F( NOEUD = 'N600',    FZ = -1.025140000E+02),
             _F( NOEUD = 'N700',    FZ = -1.025140000E+02),
             _F( NOEUD = 'N800',    FZ = -1.025140000E+02),
             _F( NOEUD = 'N900',    FZ = -2.148390000E+02),
             _F( NOEUD = 'N1000',   FZ = -3.276540000E+02),
             _F( NOEUD = 'N1100',   FZ = -2.226870000E+02),
             _F( NOEUD = 'N1200',   FZ = -1.177200000E+02),
             _F( NOEUD = 'N1300',   FZ = -1.177200000E+02),
             _F( NOEUD = 'N1400',   FZ = -1.765800000E+02))
               )

TEMPE=CREA_RESU(
                OPERATION='AFFE', TYPE_RESU='EVOL_THER',
                NOM_CHAM='TEMP',
                AFFE=(_F(INST = 0.0, CHAM_GD = TEMPER0),
                      _F(INST = 1.0, CHAM_GD = TEMPER),
                ))

CHAMTH=AFFE_MATERIAU(   MAILLAGE=MAILLAGE,
                     AFFE=_F(  GROUP_MA = 'MAT_1',    MATER = MAT_1),
                    );

CHAMTH1=AFFE_MATERIAU(   MAILLAGE=MAILLAGE,
                     AFFE=_F(  GROUP_MA = 'MAT_1',    MATER = MAT_1),
                     AFFE_VARC=_F( TOUT='OUI',
                              EVOL=TEMPE,VALE_REF=0.,
                              NOM_VARC='TEMP',
                              NOM_CHAM='TEMP',),
                    );

L_INST=DEFI_LIST_REEL(DEBUT=0.0,
                      INTERVALLE=_F(JUSQU_A=1.,
                                     NOMBRE=1,),);

# POIDS PROPRE

RESU1 =STAT_NON_LINE(MODELE=MODELE,
                    CHAM_MATER=CHAMTH,
                    CARA_ELEM=CARA_ELE,
                    EXCIT=(_F(CHARGE=CON_LIM,),
                           _F(CHARGE=CH1,),),
                     COMP_ELAS=_F(RELATION='ELAS'),
                     INCREMENT=_F(LIST_INST=L_INST),);


RESU1=CALC_CHAMP(reuse=RESU1,RESULTAT=RESU1,CONTRAINTE=('SIEF_ELNO'))


IMPR_RESU(RESU=_F(RESULTAT=RESU1, NUME_ORDRE=1))


# DILATATION
RESU2 =STAT_NON_LINE(MODELE=MODELE,
                    CHAM_MATER=CHAMTH1,
                    CARA_ELEM=CARA_ELE,
                    EXCIT=_F(CHARGE=CON_LIM,),
                    COMP_ELAS=_F(RELATION='ELAS',DEFORMATION='PETIT'),
                    INCREMENT=_F(LIST_INST=L_INST),);


RESU2=CALC_CHAMP(reuse=RESU2,RESULTAT=RESU2,CONTRAINTE=('SIEF_ELNO'))



# FORCES NODALES

RESU3 =STAT_NON_LINE(MODELE=MODELE,
                    CHAM_MATER=CHAMTH,
                    CARA_ELEM=CARA_ELE,
                    EXCIT=(_F(CHARGE=CON_LIM,),
                           _F(CHARGE=CH3,),),
                    COMP_ELAS=_F(RELATION='ELAS',TOUT='OUI'),
                    INCREMENT=_F(LIST_INST=L_INST),);


RESU3=CALC_CHAMP(reuse=RESU3,RESULTAT=RESU3,CONTRAINTE=('SIEF_ELNO'))



TEST_RESU(RESU=(_F(NUME_ORDRE=1,
                   REFERENCE='SOURCE_EXTERNE',
                   RESULTAT=RESU1,
                   NOM_CHAM='DEPL',
                   NOEUD='N300',
                   NOM_CMP='DX',
                   VALE_CALC=-1.65828301E-04,
                   VALE_REFE=-1.6579999999999999E-4,),
                _F(NUME_ORDRE=1,
                   REFERENCE='SOURCE_EXTERNE',
                   RESULTAT=RESU1,
                   NOM_CHAM='DEPL',
                   NOEUD='N300',
                   NOM_CMP='DY',
                   VALE_CALC=-2.05323863E-05,
                   VALE_REFE=-2.0400000000000001E-05,
                   PRECISION=8.0000000000000002E-3,),
                _F(NUME_ORDRE=1,
                   REFERENCE='SOURCE_EXTERNE',
                   RESULTAT=RESU1,
                   NOM_CHAM='DEPL',
                   NOEUD='N300',
                   NOM_CMP='DZ',
                   VALE_CALC=-8.01179770E-06,
                   VALE_REFE=-8.0099999999999995E-06,),
                _F(NUME_ORDRE=1,
                   REFERENCE='SOURCE_EXTERNE',
                   RESULTAT=RESU1,
                   NOM_CHAM='DEPL',
                   NOEUD='N500',
                   NOM_CMP='DX',
                   VALE_CALC=-2.39739017E-04,
                   VALE_REFE=-2.397E-4,),
                _F(NUME_ORDRE=1,
                   REFERENCE='SOURCE_EXTERNE',
                   RESULTAT=RESU1,
                   NOM_CHAM='DEPL',
                   NOEUD='N500',
                   NOM_CMP='DY',
                   VALE_CALC= 1.77738443E-04,
                   VALE_REFE=1.7770000000000001E-4,),
                _F(NUME_ORDRE=1,
                   REFERENCE='SOURCE_EXTERNE',
                   RESULTAT=RESU1,
                   NOM_CHAM='DEPL',
                   NOEUD='N500',
                   NOM_CMP='DZ',
                   VALE_CALC=-2.68294350E-04,
                   VALE_REFE=-2.6810000000000001E-4,),
                _F(NUME_ORDRE=1,
                   REFERENCE='SOURCE_EXTERNE',
                   RESULTAT=RESU1,
                   NOM_CHAM='DEPL',
                   NOEUD='N700',
                   NOM_CMP='DX',
                   VALE_CALC=-1.85569019E-04,
                   VALE_REFE=-1.8550000000000001E-4,),
                _F(NUME_ORDRE=1,
                   REFERENCE='SOURCE_EXTERNE',
                   RESULTAT=RESU1,
                   NOM_CHAM='DEPL',
                   NOEUD='N700',
                   NOM_CMP='DY',
                   VALE_CALC= 1.77610447E-04,
                   VALE_REFE=1.775E-4,),
                _F(NUME_ORDRE=1,
                   REFERENCE='SOURCE_EXTERNE',
                   RESULTAT=RESU1,
                   NOM_CHAM='DEPL',
                   NOEUD='N700',
                   NOM_CMP='DZ',
                   VALE_CALC=-3.94093386E-04,
                   VALE_REFE=-3.9399999999999998E-4,),
                _F(NUME_ORDRE=1,
                   REFERENCE='SOURCE_EXTERNE',
                   RESULTAT=RESU1,
                   NOM_CHAM='DEPL',
                   NOEUD='N900',
                   NOM_CMP='DX',
                   VALE_CALC=-1.27847666E-04,
                   VALE_REFE=-1.2779999999999999E-4,),
                _F(NUME_ORDRE=1,
                   REFERENCE='SOURCE_EXTERNE',
                   RESULTAT=RESU1,
                   NOM_CHAM='DEPL',
                   NOEUD='N900',
                   NOM_CMP='DY',
                   VALE_CALC= 1.77482452E-04,
                   VALE_REFE=1.774E-4,),
                _F(NUME_ORDRE=1,
                   REFERENCE='SOURCE_EXTERNE',
                   RESULTAT=RESU1,
                   NOM_CHAM='DEPL',
                   NOEUD='N900',
                   NOM_CMP='DZ',
                   VALE_CALC=-4.97746467E-04,
                   VALE_REFE=-4.9770000000000001E-4,),
                _F(NUME_ORDRE=1,
                   REFERENCE='SOURCE_EXTERNE',
                   RESULTAT=RESU1,
                   NOM_CHAM='DEPL',
                   NOEUD='N1100',
                   NOM_CMP='DX',
                   VALE_CALC=-1.83966849E-08,
                   VALE_REFE=0.0,
                   CRITERE='ABSOLU',),
                _F(NUME_ORDRE=1,
                   REFERENCE='SOURCE_EXTERNE',
                   RESULTAT=RESU1,
                   NOM_CHAM='DEPL',
                   NOEUD='N1100',
                   NOM_CMP='DY',
                   VALE_CALC= 5.68362483E-05,
                   VALE_REFE=5.6820000000000001E-05,),
                _F(NUME_ORDRE=1,
                   REFERENCE='SOURCE_EXTERNE',
                   RESULTAT=RESU1,
                   NOM_CHAM='DEPL',
                   NOEUD='N1100',
                   NOM_CMP='DZ',
                   VALE_CALC=-2.20676534E-04,
                   VALE_REFE=-2.207E-4,),
                _F(NUME_ORDRE=1,
                   REFERENCE='SOURCE_EXTERNE',
                   RESULTAT=RESU1,
                   NOM_CHAM='SIEF_ELNO',
                   NOEUD='N100',
                   NOM_CMP='N',
                   VALE_CALC=-2.27575518E+03,
                   VALE_REFE=-2276.0,
                   PRECISION=5.0000000000000001E-3,
                   MAILLE='EAA',),
                _F(NUME_ORDRE=1,
                   REFERENCE='SOURCE_EXTERNE',
                   RESULTAT=RESU1,
                   NOM_CHAM='SIEF_ELNO',
                   NOEUD='N100',
                   NOM_CMP='VY',
                   VALE_CALC=-161.106674712,
                   VALE_REFE=-161.09999999999999,
                   MAILLE='EAA',),
                _F(NUME_ORDRE=1,
                   REFERENCE='SOURCE_EXTERNE',
                   RESULTAT=RESU1,
                   NOM_CHAM='SIEF_ELNO',
                   NOEUD='N100',
                   NOM_CMP='VZ',
                   VALE_CALC=-10.099977804,
                   VALE_REFE=-10.095000000000001,
                   PRECISION=5.0000000000000001E-3,
                   MAILLE='EAA',),
                _F(NUME_ORDRE=1,
                   REFERENCE='SOURCE_EXTERNE',
                   RESULTAT=RESU1,
                   NOM_CHAM='SIEF_ELNO',
                   NOEUD='N100',
                   NOM_CMP='MT',
                   VALE_CALC=-53.398297413,
                   VALE_REFE=-53.399999999999999,
                   MAILLE='EAA',),
                _F(NUME_ORDRE=1,
                   REFERENCE='SOURCE_EXTERNE',
                   RESULTAT=RESU1,
                   NOM_CHAM='SIEF_ELNO',
                   NOEUD='N100',
                   NOM_CMP='MFY',
                   VALE_CALC=-89.659738741,
                   VALE_REFE=-89.659999999999997,
                   MAILLE='EAA',),
                _F(NUME_ORDRE=1,
                   REFERENCE='SOURCE_EXTERNE',
                   RESULTAT=RESU1,
                   NOM_CHAM='SIEF_ELNO',
                   NOEUD='N100',
                   NOM_CMP='MFZ',
                   VALE_CALC=-158.460138340,
                   VALE_REFE=-158.5,
                   MAILLE='EAA',),
                _F(NUME_ORDRE=1,
                   REFERENCE='SOURCE_EXTERNE',
                   RESULTAT=RESU1,
                   NOM_CHAM='SIEF_ELNO',
                   NOEUD='N1500',
                   NOM_CMP='N',
                   VALE_CALC=10.099977803,
                   VALE_REFE=10.095000000000001,
                   PRECISION=5.0000000000000001E-3,
                   MAILLE='EBB',),
                _F(NUME_ORDRE=1,
                   REFERENCE='SOURCE_EXTERNE',
                   RESULTAT=RESU1,
                   NOM_CHAM='SIEF_ELNO',
                   NOEUD='N1500',
                   NOM_CMP='VY',
                   VALE_CALC=-161.106674712,
                   VALE_REFE=-161.09999999999999,
                   MAILLE='EBB',),
                _F(NUME_ORDRE=1,
                   REFERENCE='SOURCE_EXTERNE',
                   RESULTAT=RESU1,
                   NOM_CHAM='SIEF_ELNO',
                   NOEUD='N1500',
                   NOM_CMP='VZ',
                   VALE_CALC= 1.16494644E+03,
                   VALE_REFE=1165.0,
                   PRECISION=5.0000000000000001E-3,
                   MAILLE='EBB',),
                _F(NUME_ORDRE=1,
                   REFERENCE='SOURCE_EXTERNE',
                   RESULTAT=RESU1,
                   NOM_CHAM='SIEF_ELNO',
                   NOEUD='N1500',
                   NOM_CMP='MT',
                   VALE_CALC=15.647254526,
                   VALE_REFE=15.6,
                   PRECISION=5.0000000000000001E-3,
                   MAILLE='EBB',),
                _F(NUME_ORDRE=1,
                   REFERENCE='SOURCE_EXTERNE',
                   RESULTAT=RESU1,
                   NOM_CHAM='SIEF_ELNO',
                   NOEUD='N1500',
                   NOM_CMP='MFY',
                   VALE_CALC= 1.26035054E+03,
                   VALE_REFE=1260.5,
                   PRECISION=5.0000000000000001E-3,
                   MAILLE='EBB',),
                _F(NUME_ORDRE=1,
                   REFERENCE='SOURCE_EXTERNE',
                   RESULTAT=RESU1,
                   NOM_CHAM='SIEF_ELNO',
                   NOEUD='N1500',
                   NOM_CMP='MFZ',
                   VALE_CALC=290.145723983,
                   VALE_REFE=290.10000000000002,
                   MAILLE='EBB',),
                ),
          )

# TESTS DE LA CHARGE THERMIQUE (DILATATION)


TEST_RESU(RESU=(_F(NUME_ORDRE=1,
                   REFERENCE='SOURCE_EXTERNE',
                   RESULTAT=RESU2,
                   NOM_CHAM='DEPL',
                   NOEUD='N300',
                   NOM_CMP='DX',
                   VALE_CALC=-6.14048896E-03,
                   VALE_REFE=-6.1418000000000002E-3,),
                _F(NUME_ORDRE=1,
                   REFERENCE='SOURCE_EXTERNE',
                   RESULTAT=RESU2,
                   NOM_CHAM='DEPL',
                   NOEUD='N300',
                   NOM_CMP='DY',
                   VALE_CALC=-0.013090662,
                   VALE_REFE=-0.013089999999999999,),
                _F(NUME_ORDRE=1,
                   REFERENCE='SOURCE_EXTERNE',
                   RESULTAT=RESU2,
                   NOM_CHAM='DEPL',
                   NOEUD='N300',
                   NOM_CMP='DZ',
                   VALE_CALC=0.016799433,
                   VALE_REFE=0.016799000000000001,),
                _F(NUME_ORDRE=1,
                   REFERENCE='SOURCE_EXTERNE',
                   RESULTAT=RESU2,
                   NOM_CHAM='DEPL',
                   NOEUD='N500',
                   NOM_CMP='DX',
                   VALE_CALC=-0.010301576,
                   VALE_REFE=-0.010302,),
                _F(NUME_ORDRE=1,
                   REFERENCE='SOURCE_EXTERNE',
                   RESULTAT=RESU2,
                   NOM_CHAM='DEPL',
                   NOEUD='N500',
                   NOM_CMP='DY',
                   VALE_CALC=-8.13169106E-03,
                   VALE_REFE=-8.1320000000000003E-3,),
                _F(NUME_ORDRE=1,
                   REFERENCE='SOURCE_EXTERNE',
                   RESULTAT=RESU2,
                   NOM_CHAM='DEPL',
                   NOEUD='N500',
                   NOM_CMP='DZ',
                   VALE_CALC=0.019722635,
                   VALE_REFE=0.019723000000000001,),
                _F(NUME_ORDRE=1,
                   REFERENCE='SOURCE_EXTERNE',
                   RESULTAT=RESU2,
                   NOM_CHAM='DEPL',
                   NOEUD='N700',
                   NOM_CMP='DX',
                   VALE_CALC=-0.011369663,
                   VALE_REFE=-0.01137,),
                _F(NUME_ORDRE=1,
                   REFERENCE='SOURCE_EXTERNE',
                   RESULTAT=RESU2,
                   NOM_CHAM='DEPL',
                   NOEUD='N700',
                   NOM_CMP='DY',
                   VALE_CALC=-5.38250605E-03,
                   VALE_REFE=-5.3829999999999998E-3,),
                _F(NUME_ORDRE=1,
                   REFERENCE='SOURCE_EXTERNE',
                   RESULTAT=RESU2,
                   NOM_CHAM='DEPL',
                   NOEUD='N700',
                   NOM_CMP='DZ',
                   VALE_CALC=0.016134238,
                   VALE_REFE=0.016135,),
                _F(NUME_ORDRE=1,
                   REFERENCE='SOURCE_EXTERNE',
                   RESULTAT=RESU2,
                   NOM_CHAM='DEPL',
                   NOEUD='N900',
                   NOM_CMP='DX',
                   VALE_CALC=-0.012237990,
                   VALE_REFE=-0.012238000000000001,),
                _F(NUME_ORDRE=1,
                   REFERENCE='SOURCE_EXTERNE',
                   RESULTAT=RESU2,
                   NOM_CHAM='DEPL',
                   NOEUD='N900',
                   NOM_CMP='DY',
                   VALE_CALC=-2.63332105E-03,
                   VALE_REFE=-2.6329999999999999E-3,),
                _F(NUME_ORDRE=1,
                   REFERENCE='SOURCE_EXTERNE',
                   RESULTAT=RESU2,
                   NOM_CHAM='DEPL',
                   NOEUD='N900',
                   NOM_CMP='DZ',
                   VALE_CALC=0.012261361,
                   VALE_REFE=0.012262,),
                _F(NUME_ORDRE=1,
                   REFERENCE='SOURCE_EXTERNE',
                   RESULTAT=RESU2,
                   NOM_CHAM='DEPL',
                   NOEUD='N1100',
                   NOM_CMP='DX',
                   VALE_CALC=-6.30823335E-03,
                   VALE_REFE=-6.3080000000000002E-3,),
                _F(NUME_ORDRE=1,
                   REFERENCE='SOURCE_EXTERNE',
                   RESULTAT=RESU2,
                   NOM_CHAM='DEPL',
                   NOEUD='N1100',
                   NOM_CMP='DY',
                   VALE_CALC= 1.54168719E-03,
                   VALE_REFE=1.542E-3,),
                _F(NUME_ORDRE=1,
                   REFERENCE='SOURCE_EXTERNE',
                   RESULTAT=RESU2,
                   NOM_CHAM='DEPL',
                   NOEUD='N1100',
                   NOM_CMP='DZ',
                   VALE_CALC= 1.93136703E-03,
                   VALE_REFE=1.931E-3,),
                _F(NUME_ORDRE=1,
                   REFERENCE='SOURCE_EXTERNE',
                   RESULTAT=RESU2,
                   NOM_CHAM='SIEF_ELNO',
                   NOEUD='N100',
                   NOM_CMP='N',
                   VALE_CALC=-7.43051041E+03,
                   VALE_REFE=-7431.0,
                   MAILLE='E1',),
                _F(NUME_ORDRE=1,
                   REFERENCE='SOURCE_EXTERNE',
                   RESULTAT=RESU2,
                   NOM_CHAM='SIEF_ELNO',
                   NOEUD='N100',
                   NOM_CMP='VY',
                   VALE_CALC=-7.61342550E+03,
                   VALE_REFE=-7613.0,
                   MAILLE='E1',),
                _F(NUME_ORDRE=1,
                   REFERENCE='SOURCE_EXTERNE',
                   RESULTAT=RESU2,
                   NOM_CHAM='SIEF_ELNO',
                   NOEUD='N100',
                   NOM_CMP='VZ',
                   VALE_CALC= 2.79095362E+03,
                   VALE_REFE=2791.0,
                   MAILLE='E1',),
                _F(NUME_ORDRE=1,
                   REFERENCE='SOURCE_EXTERNE',
                   RESULTAT=RESU2,
                   NOM_CHAM='SIEF_ELNO',
                   NOEUD='N100',
                   NOM_CMP='MT',
                   VALE_CALC= 1.61511014E+03,
                   VALE_REFE=1615.0,
                   MAILLE='E1',),
                _F(NUME_ORDRE=1,
                   REFERENCE='SOURCE_EXTERNE',
                   RESULTAT=RESU2,
                   NOM_CHAM='SIEF_ELNO',
                   NOEUD='N100',
                   NOM_CMP='MFY',
                   VALE_CALC=-6.19259922E+03,
                   VALE_REFE=-6193.0,
                   MAILLE='E1',),
                _F(NUME_ORDRE=1,
                   REFERENCE='SOURCE_EXTERNE',
                   RESULTAT=RESU2,
                   NOM_CHAM='SIEF_ELNO',
                   NOEUD='N100',
                   NOM_CMP='MFZ',
                   VALE_CALC=-1.47115833E+04,
                   VALE_REFE=-1.4712E4,
                   MAILLE='E1',),
                _F(NUME_ORDRE=1,
                   REFERENCE='SOURCE_EXTERNE',
                   RESULTAT=RESU2,
                   NOM_CHAM='SIEF_ELNO',
                   NOEUD='N1500',
                   NOM_CMP='N',
                   VALE_CALC=-2.79095362E+03,
                   VALE_REFE=-2791.0,
                   MAILLE='E14',),
                _F(NUME_ORDRE=1,
                   REFERENCE='SOURCE_EXTERNE',
                   RESULTAT=RESU2,
                   NOM_CHAM='SIEF_ELNO',
                   NOEUD='N1500',
                   NOM_CMP='VY',
                   VALE_CALC=-7.61342550E+03,
                   VALE_REFE=-7613.0,
                   MAILLE='E14',),
                _F(NUME_ORDRE=1,
                   REFERENCE='SOURCE_EXTERNE',
                   RESULTAT=RESU2,
                   NOM_CHAM='SIEF_ELNO',
                   NOEUD='N1500',
                   NOM_CMP='VZ',
                   VALE_CALC=-7.43051041E+03,
                   VALE_REFE=-7433.0,
                   MAILLE='E14',),
                _F(NUME_ORDRE=1,
                   REFERENCE='SOURCE_EXTERNE',
                   RESULTAT=RESU2,
                   NOM_CHAM='SIEF_ELNO',
                   NOEUD='N1500',
                   NOM_CMP='MT',
                   VALE_CALC= 7.05194681E+03,
                   VALE_REFE=7052.0,
                   MAILLE='E14',),
                _F(NUME_ORDRE=1,
                   REFERENCE='SOURCE_EXTERNE',
                   RESULTAT=RESU2,
                   NOM_CHAM='SIEF_ELNO',
                   NOEUD='N1500',
                   NOM_CMP='MFY',
                   VALE_CALC=-1.04577807E+04,
                   VALE_REFE=-1.0460E4,
                   MAILLE='E14',),
                _F(NUME_ORDRE=1,
                   REFERENCE='SOURCE_EXTERNE',
                   RESULTAT=RESU2,
                   NOM_CHAM='SIEF_ELNO',
                   NOEUD='N1500',
                   NOM_CMP='MFZ',
                   VALE_CALC= 8.86230166E+03,
                   VALE_REFE=8862.0,
                   MAILLE='E14',),
                ),
          )

## TESTS DE LA CHARGE FORCE NODALE

TEST_RESU(RESU=(_F(NUME_ORDRE=1,
                   REFERENCE='SOURCE_EXTERNE',
                   RESULTAT=RESU3,
                   NOM_CHAM='DEPL',
                   NOEUD='N300',
                   NOM_CMP='DX',
                   VALE_CALC=-1.65161182E-04,
                   VALE_REFE=-1.651E-4,),
                _F(NUME_ORDRE=1,
                   REFERENCE='SOURCE_EXTERNE',
                   RESULTAT=RESU3,
                   NOM_CHAM='DEPL',
                   NOEUD='N300',
                   NOM_CMP='DY',
                   VALE_CALC=-2.08038755E-05,
                   VALE_REFE=-2.0800000000000001E-05,),
                _F(NUME_ORDRE=1,
                   REFERENCE='SOURCE_EXTERNE',
                   RESULTAT=RESU3,
                   NOM_CHAM='DEPL',
                   NOEUD='N300',
                   NOM_CMP='DZ',
                   VALE_CALC=-9.51847417E-06,
                   VALE_REFE=-9.516E-06,),
                _F(NUME_ORDRE=1,
                   REFERENCE='SOURCE_EXTERNE',
                   RESULTAT=RESU3,
                   NOM_CHAM='DEPL',
                   NOEUD='N500',
                   NOM_CMP='DX',
                   VALE_CALC=-2.38634362E-04,
                   VALE_REFE=-2.386E-4,),
                _F(NUME_ORDRE=1,
                   REFERENCE='SOURCE_EXTERNE',
                   RESULTAT=RESU3,
                   NOM_CHAM='DEPL',
                   NOEUD='N500',
                   NOM_CMP='DY',
                   VALE_CALC= 1.77275416E-04,
                   VALE_REFE=1.773E-4,),
                _F(NUME_ORDRE=1,
                   REFERENCE='SOURCE_EXTERNE',
                   RESULTAT=RESU3,
                   NOM_CHAM='DEPL',
                   NOEUD='N500',
                   NOM_CMP='DZ',
                   VALE_CALC=-2.69692705E-04,
                   VALE_REFE=-2.697E-4,),
                _F(NUME_ORDRE=1,
                   REFERENCE='SOURCE_EXTERNE',
                   RESULTAT=RESU3,
                   NOM_CHAM='DEPL',
                   NOEUD='N700',
                   NOM_CMP='DX',
                   VALE_CALC=-1.84772678E-04,
                   VALE_REFE=-1.8479999999999999E-4,),
                _F(NUME_ORDRE=1,
                   REFERENCE='SOURCE_EXTERNE',
                   RESULTAT=RESU3,
                   NOM_CHAM='DEPL',
                   NOEUD='N700',
                   NOM_CMP='DY',
                   VALE_CALC= 1.77147418E-04,
                   VALE_REFE=1.771E-4,),
                _F(NUME_ORDRE=1,
                   REFERENCE='SOURCE_EXTERNE',
                   RESULTAT=RESU3,
                   NOM_CHAM='DEPL',
                   NOEUD='N700',
                   NOM_CMP='DZ',
                   VALE_CALC=-3.94841262E-04,
                   VALE_REFE=-3.948E-4,),
                _F(NUME_ORDRE=1,
                   REFERENCE='SOURCE_EXTERNE',
                   RESULTAT=RESU3,
                   NOM_CHAM='DEPL',
                   NOEUD='N900',
                   NOM_CMP='DX',
                   VALE_CALC=-1.27357897E-04,
                   VALE_REFE=-1.2740000000000001E-4,),
                _F(NUME_ORDRE=1,
                   REFERENCE='SOURCE_EXTERNE',
                   RESULTAT=RESU3,
                   NOM_CHAM='DEPL',
                   NOEUD='N900',
                   NOM_CMP='DY',
                   VALE_CALC= 1.77019421E-04,
                   VALE_REFE=1.7699999999999999E-4,),
                _F(NUME_ORDRE=1,
                   REFERENCE='SOURCE_EXTERNE',
                   RESULTAT=RESU3,
                   NOM_CHAM='DEPL',
                   NOEUD='N900',
                   NOM_CMP='DZ',
                   VALE_CALC=-4.96388458E-04,
                   VALE_REFE=-4.9640000000000003E-4,),
                _F(NUME_ORDRE=1,
                   REFERENCE='SOURCE_EXTERNE',
                   RESULTAT=RESU3,
                   NOM_CHAM='DEPL',
                   NOEUD='N1100',
                   NOM_CMP='DX',
                   VALE_CALC=-1.78683554E-08,
                   VALE_REFE=0.0,
                   CRITERE='ABSOLU',),
                _F(NUME_ORDRE=1,
                   REFERENCE='SOURCE_EXTERNE',
                   RESULTAT=RESU3,
                   NOM_CHAM='DEPL',
                   NOEUD='N1100',
                   NOM_CMP='DY',
                   VALE_CALC= 5.67385821E-05,
                   VALE_REFE=5.6740000000000002E-05,),
                _F(NUME_ORDRE=1,
                   REFERENCE='SOURCE_EXTERNE',
                   RESULTAT=RESU3,
                   NOM_CHAM='DEPL',
                   NOEUD='N1100',
                   NOM_CMP='DZ',
                   VALE_CALC=-2.18598447E-04,
                   VALE_REFE=-2.186E-4,),
                _F(NUME_ORDRE=1,
                   REFERENCE='SOURCE_EXTERNE',
                   RESULTAT=RESU3,
                   NOM_CHAM='SIEF_ELNO',
                   NOEUD='N100',
                   NOM_CMP='N',
                   VALE_CALC=-2.27271105E+03,
                   VALE_REFE=-2273.0,
                   MAILLE='E1',),
                _F(NUME_ORDRE=1,
                   REFERENCE='SOURCE_EXTERNE',
                   RESULTAT=RESU3,
                   NOM_CHAM='SIEF_ELNO',
                   NOEUD='N100',
                   NOM_CMP='VY',
                   VALE_CALC=-161.109276877,
                   VALE_REFE=-161.09999999999999,
                   MAILLE='E1',),
                _F(NUME_ORDRE=1,
                   REFERENCE='SOURCE_EXTERNE',
                   RESULTAT=RESU3,
                   NOM_CHAM='SIEF_ELNO',
                   NOEUD='N100',
                   NOM_CMP='VZ',
                   VALE_CALC=-9.809919277,
                   VALE_REFE=-9.8100000000000005,
                   MAILLE='E1',),
                _F(NUME_ORDRE=1,
                   REFERENCE='SOURCE_EXTERNE',
                   RESULTAT=RESU3,
                   NOM_CHAM='SIEF_ELNO',
                   NOEUD='N100',
                   NOM_CMP='MT',
                   VALE_CALC=-53.018841586,
                   VALE_REFE=-53.020000000000003,
                   MAILLE='E1',),
                _F(NUME_ORDRE=1,
                   REFERENCE='SOURCE_EXTERNE',
                   RESULTAT=RESU3,
                   NOM_CHAM='SIEF_ELNO',
                   NOEUD='N100',
                   NOM_CMP='MFY',
                   VALE_CALC=-89.525427110,
                   VALE_REFE=-89.530000000000001,
                   MAILLE='E1',),
                _F(NUME_ORDRE=1,
                   REFERENCE='SOURCE_EXTERNE',
                   RESULTAT=RESU3,
                   NOM_CHAM='SIEF_ELNO',
                   NOEUD='N100',
                   NOM_CMP='MFZ',
                   VALE_CALC=-158.624296268,
                   VALE_REFE=-158.63,
                   MAILLE='E1',),
                _F(NUME_ORDRE=1,
                   REFERENCE='SOURCE_EXTERNE',
                   RESULTAT=RESU3,
                   NOM_CHAM='SIEF_ELNO',
                   NOEUD='N1500',
                   NOM_CMP='N',
                   VALE_CALC=9.809919277,
                   VALE_REFE=9.8100000000000005,
                   MAILLE='E14',),
                _F(NUME_ORDRE=1,
                   REFERENCE='SOURCE_EXTERNE',
                   RESULTAT=RESU3,
                   NOM_CHAM='SIEF_ELNO',
                   NOEUD='N1500',
                   NOM_CMP='VY',
                   VALE_CALC=-161.109276878,
                   VALE_REFE=-161.09999999999999,
                   MAILLE='E14',),
                _F(NUME_ORDRE=1,
                   REFERENCE='SOURCE_EXTERNE',
                   RESULTAT=RESU3,
                   NOM_CHAM='SIEF_ELNO',
                   NOEUD='N1500',
                   NOM_CMP='VZ',
                   VALE_CALC= 1.16814495E+03,
                   VALE_REFE=1168.0,
                   MAILLE='E14',),
                _F(NUME_ORDRE=1,
                   REFERENCE='SOURCE_EXTERNE',
                   RESULTAT=RESU3,
                   NOM_CHAM='SIEF_ELNO',
                   NOEUD='N1500',
                   NOM_CMP='MT',
                   VALE_CALC=11.902710301,
                   VALE_REFE=11.9,
                   PRECISION=5.0000000000000001E-3,
                   MAILLE='E14',),
                _F(NUME_ORDRE=1,
                   REFERENCE='SOURCE_EXTERNE',
                   RESULTAT=RESU3,
                   NOM_CHAM='SIEF_ELNO',
                   NOEUD='N1500',
                   NOM_CMP='MFY',
                   VALE_CALC= 1.26106108E+03,
                   VALE_REFE=1261.0,
                   MAILLE='E14',),
                _F(NUME_ORDRE=1,
                   REFERENCE='SOURCE_EXTERNE',
                   RESULTAT=RESU3,
                   NOM_CHAM='SIEF_ELNO',
                   NOEUD='N1500',
                   NOM_CMP='MFZ',
                   VALE_CALC=289.732619105,
                   VALE_REFE=289.69999999999999,
                   MAILLE='E14',),
                ),
          )

# ----------------------------------------------------------------------
FIN()
#
