# MODIF  DATE 10/09/2012   AUTEUR FLEJOU J-L.FLEJOU 
# TITRE VALIDATION DE MACR_CARA_POUTRE
# ssll107f.para = tps_job 60 mem_job 512Mo ncpus 1 liste_test S
#            CONFIGURATION MANAGEMENT OF EDF VERSION
# ======================================================================
# COPYRIGHT (C) 1991 - 2012  EDF R&D                  WWW.CODE-ASTER.ORG
# THIS PROGRAM IS FREE SOFTWARE; YOU CAN REDISTRIBUTE IT AND/OR MODIFY
# IT UNDER THE TERMS OF THE GNU GENERAL PUBLIC LICENSE AS PUBLISHED BY
# THE FREE SOFTWARE FOUNDATION; EITHER VERSION 2 OF THE LICENSE, OR
# (AT YOUR OPTION) ANY LATER VERSION.
#
# THIS PROGRAM IS DISTRIBUTED IN THE HOPE THAT IT WILL BE USEFUL, BUT
# WITHOUT ANY WARRANTY; WITHOUT EVEN THE IMPLIED WARRANTY OF
# MERCHANTABILITY OR FITNESS FOR A PARTICULAR PURPOSE. SEE THE GNU
# GENERAL PUBLIC LICENSE FOR MORE DETAILS.
#
# YOU SHOULD HAVE RECEIVED A COPY OF THE GNU GENERAL PUBLIC LICENSE
# ALONG WITH THIS PROGRAM; IF NOT, WRITE TO EDF R&D CODE_ASTER,
#    1 AVENUE DU GENERAL DE GAULLE, 92141 CLAMART CEDEX, FRANCE.
# ======================================================================
#


DEBUT(CODE=_F(NOM='SSLL107F',NIV_PUB_WEB='INTERNET',VISU_EFICAS='NON'),DEBUG=_F(SDVERI='NON'))

TCARS =MACR_CARA_POUTRE(GROUP_MA_BORD='LCERC', NOEUD='N1',)
IMPR_TABLE( TABLE=TCARS )

# ON CREE TCARS2 POUR TESTER LA LECTURE DE LA TABLE PAR AFFE_CARA_ELEM
# QUAND ON A TABLE_CARA='OUI'
TCARS2=MACR_CARA_POUTRE(GROUP_MA_BORD='LCERC', NOEUD='N1',TABLE_CARA='OUI',NOM='BIDUL')
IMPR_TABLE( TABLE=TCARS2 )
#
# --- VALEURS DE REFERENCE: OPERATEUR AFFE_CARA_ELEM
#
TEST_TABLE(TABLE=TCARS,
           FILTRE=_F(NOM_PARA='LIEU', VALE_K='.9000012',),
           NOM_PARA='A',REFERENCE='ANALYTIQUE',
           VALE=1.963495E-3,
           PRECISION=5.0E-3,);

TEST_TABLE(TABLE=TCARS,
           FILTRE=_F(NOM_PARA='LIEU', VALE_K='.9000012',),
           NOM_PARA='CDG_Y',REFERENCE='ANALYTIQUE',
           VALE=0.0,
           CRITERE='ABSOLU',);

TEST_TABLE(TABLE=TCARS,
           FILTRE=_F(NOM_PARA='LIEU', VALE_K='.9000012',),
           NOM_PARA='CDG_Z',REFERENCE='ANALYTIQUE',
           VALE=0.0,
           CRITERE='ABSOLU',);

TEST_TABLE(TABLE=TCARS,
           FILTRE=_F(NOM_PARA='LIEU', VALE_K='.9000012',),
           NOM_PARA='IY_G',REFERENCE='ANALYTIQUE',
           VALE=3.067961E-07,
           PRECISION=9.E-3,);

TEST_TABLE(TABLE=TCARS,
           FILTRE=_F(NOM_PARA='LIEU', VALE_K='.9000012',),
           NOM_PARA='IZ_G',REFERENCE='ANALYTIQUE',
           VALE=3.067961E-07,
           PRECISION=9.E-3,);

TEST_TABLE(TABLE=TCARS,
           FILTRE=_F(NOM_PARA='LIEU', VALE_K='.9000012',),
           NOM_PARA='IYZ_G',REFERENCE='ANALYTIQUE',
           VALE=0.0,
           CRITERE='ABSOLU',);

TEST_TABLE(TABLE=TCARS,
           FILTRE=_F(NOM_PARA='LIEU', VALE_K='.9000012',),
           NOM_PARA='IY',REFERENCE='ANALYTIQUE',
           VALE=3.067961E-07,
           PRECISION=9.E-3,);

TEST_TABLE(TABLE=TCARS,
           FILTRE=_F(NOM_PARA='LIEU', VALE_K='.9000012',),
           NOM_PARA='IZ',REFERENCE='ANALYTIQUE',
           VALE=3.067961E-07,
           PRECISION=9.E-3,);

TEST_TABLE(TABLE=TCARS,
           FILTRE=_F(NOM_PARA='LIEU', VALE_K='.9000012',),
           NOM_PARA='Y_MIN',REFERENCE='ANALYTIQUE',
           VALE=-0.025,);

TEST_TABLE(TABLE=TCARS,
           FILTRE=_F(NOM_PARA='LIEU', VALE_K='.9000012',),
           NOM_PARA='Y_MAX',REFERENCE='ANALYTIQUE',
           VALE=0.025,);

TEST_TABLE(TABLE=TCARS,
           FILTRE=_F(NOM_PARA='LIEU', VALE_K='.9000012',),
           NOM_PARA='Z_MIN',REFERENCE='ANALYTIQUE',
           VALE=-0.025,);

TEST_TABLE(TABLE=TCARS,
           FILTRE=_F(NOM_PARA='LIEU', VALE_K='.9000012',),
           NOM_PARA='Z_MAX',REFERENCE='ANALYTIQUE',
           VALE=0.025,);

TEST_TABLE(TABLE=TCARS,
           FILTRE=_F(NOM_PARA='LIEU', VALE_K='.9000012',),
           NOM_PARA='JX',REFERENCE='ANALYTIQUE',
           VALE=6.1359E-07,
           PRECISION=9.E-3,);

TEST_TABLE(TABLE=TCARS,
           FILTRE=_F(NOM_PARA='LIEU', VALE_K='.9000012',),
           NOM_PARA='AY',REFERENCE='ANALYTIQUE',
           VALE=1.1666667,);

TEST_TABLE(TABLE=TCARS,
           FILTRE=_F(NOM_PARA='LIEU', VALE_K='.9000012',),
           NOM_PARA='AZ',REFERENCE='ANALYTIQUE',
           VALE=1.1666667,);

TEST_TABLE(TABLE=TCARS,
           FILTRE=_F(NOM_PARA='LIEU', VALE_K='.9000012',),
           NOM_PARA='EY',
           VALE=0.0,REFERENCE='ANALYTIQUE',
           CRITERE='ABSOLU',);

TEST_TABLE(TABLE=TCARS,
           FILTRE=_F(NOM_PARA='LIEU', VALE_K='.9000012',),
           NOM_PARA='EZ',
           VALE=0.0,REFERENCE='ANALYTIQUE',
           CRITERE='ABSOLU',);

TEST_TABLE(TABLE=TCARS,
           FILTRE=_F(NOM_PARA='LIEU', VALE_K='.9000012',),
           NOM_PARA='JG',
           VALE=0.0,REFERENCE='ANALYTIQUE',
           CRITERE='ABSOLU',);


# TEST DE L'ENCHAINEMENT AVEC UN CALCUL POUTRE
#

#
#     Affectation du reel contenu dans la table TCARS
#     (ligne 'DX', colonne 1) dans la variable python pop
#

#rext=TCARS['Y_MAX',2]

rext=2.5E-2

MA=LIRE_MAILLAGE(UNITE=21);

MO=AFFE_MODELE(MAILLAGE=MA,
               AFFE=_F(TOUT='OUI',
                       PHENOMENE='MECANIQUE',
                       MODELISATION='POU_D_E',),);

E=2.E11;

MATR=DEFI_MATERIAU(ELAS=_F(E=E,
                           NU=0.3,),);

CHMAT=AFFE_MATERIAU(MAILLAGE=MA,
                    AFFE=_F(TOUT='OUI',
                            MATER=MATR,),);

CAREL=AFFE_CARA_ELEM(MODELE=MO,
                     INFO=2,
                     POUTRE=_F(GROUP_MA='G4',
                               #SECTION='CERCLE',
                               #CARA=('R'),
                            ##   VALE=(0.025)
                               #VALE=rext,
                                SECTION='GENERALE',
                                TABLE_CARA=TCARS,
                                NOM_SEC='.9000012')
                               ,)
CAREL2=AFFE_CARA_ELEM(MODELE=MO,
                     INFO=2,
                     POUTRE=_F(GROUP_MA='G4',
                               #SECTION='CERCLE',
                               #CARA=('R'),
                            ##   VALE=(0.025)
                               #VALE=rext,
                                SECTION='GENERALE',
                                TABLE_CARA=TCARS2,
                                NOM_SEC='BIDUL')
                               ,)

FTOT=1000. ;

CHARG5=AFFE_CHAR_MECA(MODELE=MO,
                      DDL_IMPO=_F(GROUP_NO='A',
                                  DX=0.0,
                                  DY=0.0,
                                  DZ=0.0,
                                  DRX=0.0,
                                  DRY=0.0,
                                  DRZ=0.0,),
                      FORCE_NODALE=_F(GROUP_NO='B',
                                      FX=FTOT,),);

MEST5=MECA_STATIQUE(MODELE=MO,
                    CHAM_MATER=CHMAT,
                    CARA_ELEM=CAREL,
                    EXCIT=_F(CHARGE=CHARG5,),
                    );

MEST5=CALC_CHAMP(reuse =MEST5,
              RESULTAT=MEST5,
              FORCE='FORC_NODA',);

MEST6=MECA_STATIQUE(MODELE=MO,
                    CHAM_MATER=CHMAT,
                    CARA_ELEM=CAREL2,
                    EXCIT=_F(CHARGE=CHARG5,),
                    );

MEST6=CALC_CHAMP(reuse =MEST6,
              RESULTAT=MEST6,
              FORCE='FORC_NODA',);


# VALEUR DE REFERENCE

R = 0.025;

UX = FTOT/E/pi/R/R

TEST_RESU(RESU=(
                _F(RESULTAT=MEST5,
                   NUME_ORDRE=1,
                   NOM_CHAM='DEPL',
                   NOM_CMP='DX',
                   GROUP_NO='B',REFERENCE='ANALYTIQUE',
                   VALE=UX,),
                _F(RESULTAT=MEST5,
                   NUME_ORDRE=1,
                   NOM_CHAM='FORC_NODA',
                   NOM_CMP='DX',REFERENCE='ANALYTIQUE',
                   GROUP_NO='B',
                   VALE=FTOT,),
                _F(RESULTAT=MEST6,
                   NUME_ORDRE=1,
                   NOM_CHAM='DEPL',
                   NOM_CMP='DX',
                   GROUP_NO='B',REFERENCE='ANALYTIQUE',
                   VALE=UX,),
                _F(RESULTAT=MEST6,
                   NUME_ORDRE=1,
                   NOM_CHAM='FORC_NODA',
                   NOM_CMP='DX',REFERENCE='ANALYTIQUE',
                   GROUP_NO='B',
                   VALE=FTOT,),
                   ),
                   )

FIN()

