# TITRE FLAMBEMENT D'UNE STRUCTURE EN L
#======================================================================
# COPYRIGHT (C) 1991 - 2013  EDF R&D                  WWW.CODE-ASTER.ORG
# THIS PROGRAM IS FREE SOFTWARE; YOU CAN REDISTRIBUTE IT AND/OR MODIFY  
# IT UNDER THE TERMS OF THE GNU GENERAL PUBLIC LICENSE AS PUBLISHED BY  
# THE FREE SOFTWARE FOUNDATION; EITHER VERSION 2 OF THE LICENSE, OR     
# (AT YOUR OPTION) ANY LATER VERSION.                                                    
#                                                                       
# THIS PROGRAM IS DISTRIBUTED IN THE HOPE THAT IT WILL BE USEFUL, BUT   
# WITHOUT ANY WARRANTY; WITHOUT EVEN THE IMPLIED WARRANTY OF            
# MERCHANTABILITY OR FITNESS FOR A PARTICULAR PURPOSE. SEE THE GNU      
# GENERAL PUBLIC LICENSE FOR MORE DETAILS.                              
#                                                                       
# YOU SHOULD HAVE RECEIVED A COPY OF THE GNU GENERAL PUBLIC LICENSE     
# ALONG WITH THIS PROGRAM; IF NOT, WRITE TO EDF R&D CODE_ASTER,         
#    1 AVENUE DU GENERAL DE GAULLE, 92141 CLAMART CEDEX, FRANCE.        
# ======================================================================
# MODELISATION I : DKT (TRIA3)
# AUTEUR : Francis LEBOUVIER (DeltaCAD)
# DATE   : 11/04/2013

DEBUT(CODE=_F(NOM='SSLL105I',NIV_PUB_WEB='INTERNET'),DEBUG=_F(SDVERI='OUI'))

MAILLA=LIRE_MAILLAGE(FORMAT='MED'   )


MATERI=DEFI_MATERIAU( ELAS=_F( E  = 71240.,
                               NU = 0.3, ))


CH_MAT=AFFE_MATERIAU( MAILLAGE=MAILLA,
                     AFFE=_F(TOUT = 'OUI', MATER = MATERI,  ) )

MODELE=AFFE_MODELE(  MAILLAGE=MAILLA, VERIF='MAILLE',
                     AFFE=_F( TOUT = 'OUI', MODELISATION = 'DKT',
                                PHENOMENE = 'MECANIQUE', ) )


CLIM=AFFE_CHAR_MECA(MODELE=MODELE,DDL_IMPO=
                  _F(GROUP_MA = 'Encas',
                     DX  = 0., DY = 0. , DZ  = 0.,
                     DRX = 0., DRY = 0., DRZ = 0.,)
                  )


CARAC=AFFE_CARA_ELEM(   MODELE=MODELE,
                               COQUE=_F(
       GROUP_MA = 'equerre',
  EPAIS = 0.6,
                                                             )
                           )

#
# - Cas de charge 1 : FX=-1
#

CHARGE_1=AFFE_CHAR_MECA(MODELE=MODELE,
                      FORCE_NODALE=
                               _F(GROUP_NO = 'Charge',
                                  FX  =  -1.))


RESU_1=MECA_STATIQUE(MODELE=MODELE,
                   CHAM_MATER=CH_MAT,
                   CARA_ELEM=CARAC,
                   EXCIT=(
                          _F(CHARGE=CLIM,),
                          _F(CHARGE=CHARGE_1,)),
                   );

SIGMA_1=CREA_CHAMP( OPERATION='EXTR', TYPE_CHAM='ELGA_SIEF_R',
                    RESULTAT=RESU_1, NUME_ORDRE=1,
                    NOM_CHAM='SIEF_ELGA' ),

#
# - Cas de charge 2 : FX= 1
#

CHARGE_2=AFFE_CHAR_MECA(MODELE=MODELE,
                      FORCE_NODALE=
                               _F(GROUP_NO = 'Charge',
                                  FX  =  1.))


RESU_2=MECA_STATIQUE(MODELE=MODELE,
                   CHAM_MATER=CH_MAT,
                   CARA_ELEM=CARAC,
                   EXCIT=(
                          _F(CHARGE=CLIM,),
                          _F(CHARGE=CHARGE_2,)),
                   );

SIGMA_2=CREA_CHAMP( OPERATION='EXTR', TYPE_CHAM='ELGA_SIEF_R',
                    RESULTAT=RESU_2, NUME_ORDRE=1,
                    NOM_CHAM='SIEF_ELGA' ),

ASSEMBLAGE ( MODELE=MODELE,
             CHAM_MATER=CH_MAT,
             CARA_ELEM=CARAC,
             CHARGE = (CLIM,),
             NUME_DDL  = CO('NUMSTA'),
             SOLVEUR=_F(METHODE='MULT_FRONT',RENUM='METIS'),
             MATR_ASSE=(
              _F( MATRICE= CO('RIGSTA'), OPTION= 'RIGI_MECA'),
              _F( MATRICE= CO('RIGGEO1'), OPTION= 'RIGI_GEOM',SIEF_ELGA=SIGMA_1),
              _F( MATRICE= CO('RIGGEO2'), OPTION= 'RIGI_GEOM',SIEF_ELGA=SIGMA_2),),);


MOD_1=MODE_ITER_SIMULT(MATR_RIGI=RIGSTA,
                     MATR_RIGI_GEOM=RIGGEO1,
                     TYPE_RESU='MODE_FLAMB',
                      CALC_CHAR_CRIT=_F(   OPTION = 'BANDE',  CHAR_CRIT =(-2.,0.) ),
                            )
MOD_2=MODE_ITER_SIMULT(MATR_RIGI=RIGSTA,
                     MATR_RIGI_GEOM=RIGGEO2,
                     TYPE_RESU='MODE_FLAMB',
                      CALC_CHAR_CRIT=_F(   OPTION = 'BANDE',  CHAR_CRIT =(-2.,0.) ),                            )


#
# - Cas de charge 1 : FX= -1
#

TEST_RESU(RESU=_F(PARA='CHAR_CRIT',
                  NUME_MODE=1,
                  RESULTAT=MOD_1,
                  VALE_CALC=-0.67509191254132,
                  VALE_REFE=-0.68,
                  REFERENCE='NON_DEFINI',
                  PRECISION=0.8E-2,),
          )

#
# - Cas de charge 2 : FX= 1
#

TEST_RESU(RESU=_F(PARA='CHAR_CRIT',
                  NUME_MODE=1,
                  RESULTAT=MOD_2,
                  VALE_CALC=-1.2503052560788,
                  VALE_REFE=-1.088,
                  REFERENCE='NON_DEFINI',
                  PRECISION=15.E-2,),
          )
#
# --- FLAMBEMENT NON-LINEIARE
#

fonc=DEFI_FONCTION(NOM_PARA='INST',
                   VALE=(0.0,0.0,2.0,2.0,),);

list=DEFI_LIST_REEL(DEBUT=0.0,
                    INTERVALLE=_F(JUSQU_A=1.0,NOMBRE=10))

list1=DEFI_LIST_INST(DEFI_LIST=_F(LIST_INST = list,),
                    ECHEC=_F(EVENEMENT='INSTABILITE',ACTION='CONTINUE',),);

res=STAT_NON_LINE(MODELE=MODELE,
                  CHAM_MATER=CH_MAT,
                  CARA_ELEM=CARAC,
                  EXCIT=(_F(CHARGE=CLIM,),
                         _F(CHARGE=CHARGE_1,
                            FONC_MULT=fonc,),),
                  COMPORTEMENT=_F(RELATION='ELAS',),
                  INCREMENT=_F(LIST_INST=list1,),
                  NEWTON=_F(MATRICE='TANGENTE',),
                  CRIT_STAB=_F(CHAR_CRIT=(-2,0.)),
                  );

TEST_RESU(RESU=_F(PARA='CHAR_CRIT',
                  INST=1.0,
                  RESULTAT=res,
                  VALE_CALC=-0.67509191174481,
                  VALE_REFE=-0.68,
                  REFERENCE='AUTRE_ASTER',
                  PRECISION=0.8E-2,),
          )


res2=STAT_NON_LINE(MODELE=MODELE,
                   CHAM_MATER=CH_MAT,
                   CARA_ELEM=CARAC,
                   EXCIT=(_F(CHARGE=CLIM,),
                          _F(CHARGE=CHARGE_2,
                            FONC_MULT=fonc,),),
                   COMPORTEMENT=_F(RELATION='ELAS'),
                   INCREMENT=_F(LIST_INST=list1,),
                   NEWTON=_F(MATRICE='TANGENTE',),
                   CRIT_STAB=_F(CHAR_CRIT=(-2,0.)),
                   );

TEST_RESU(RESU=_F(PARA='CHAR_CRIT',
                  INST=1.0,
                  RESULTAT=res2,
                  VALE_CALC=-1.2503052558626,
                  VALE_REFE=-1.088,
                  REFERENCE='AUTRE_ASTER',
                  PRECISION=15.5E-2,),
          )

FIN()
#






