# TITRE POUTRE ENCASTREE SOUMISE A DES DEPLACEMENTS DEFINIS DANS UN REPERE LOCAL
# ======================================================================
# COPYRIGHT (C) 1991 - 2015  EDF R&D                  WWW.CODE-ASTER.ORG
# THIS PROGRAM IS FREE SOFTWARE; YOU CAN REDISTRIBUTE IT AND/OR MODIFY
# IT UNDER THE TERMS OF THE GNU GENERAL PUBLIC LICENSE AS PUBLISHED BY
# THE FREE SOFTWARE FOUNDATION; EITHER VERSION 2 OF THE LICENSE, OR
# (AT YOUR OPTION) ANY LATER VERSION.
#
# THIS PROGRAM IS DISTRIBUTED IN THE HOPE THAT IT WILL BE USEFUL, BUT
# WITHOUT ANY WARRANTY; WITHOUT EVEN THE IMPLIED WARRANTY OF
# MERCHANTABILITY OR FITNESS FOR A PARTICULAR PURPOSE. SEE THE GNU
# GENERAL PUBLIC LICENSE FOR MORE DETAILS.
#
# YOU SHOULD HAVE RECEIVED A COPY OF THE GNU GENERAL PUBLIC LICENSE
# ALONG WITH THIS PROGRAM; IF NOT, WRITE TO EDF R&D CODE_ASTER,
#    1 AVENUE DU GENERAL DE GAULLE, 92141 CLAMART CEDEX, FRANCE.
# ======================================================================
# VALIDATION DE AFFE_CHAR_MECA: DDL_POUTRE, MAILLE ET GROUP_MA

DEBUT(CODE=_F(NIV_PUB_WEB='INTERNET'), DEBUG=_F(SDVERI='OUI'))

MA=LIRE_MAILLAGE(INFO=2)

MO=AFFE_MODELE(MAILLAGE=MA,
   AFFE=_F( TOUT = 'OUI',PHENOMENE = 'MECANIQUE',MODELISATION = 'POU_D_E')
)

MATR=DEFI_MATERIAU(ELAS=_F( E = 2.0E11,  NU = 0.3),)

CHMAT=AFFE_MATERIAU(
   MAILLAGE=MA,
   AFFE=_F(TOUT = 'OUI',MATER = MATR),
)

# SECTION RECTANGLE
CAREL=AFFE_CARA_ELEM(MODELE=MO,INFO=2,
   POUTRE=(
      _F(GROUP_MA=('GROUP_MA_POUT01','GROUP_MA_POUT02','GROUP_MA_POUT03','GROUP_MA_POUT04',),
         SECTION = 'RECTANGLE',
         CARA = ('HY', 'HZ',),
         VALE = ( 0.2,  0.1,),
      ),
   ),
)

DDLIMPO=AFFE_CHAR_MECA(MODELE=MO,INFO=2,
   DDL_IMPO  = _F(NOEUD = ('N1','N2','N3','N4',),
                  DX  = 0.0,  DY = 0.0,  DZ = 0.0,
                  DRX = 0.0, DRY = 0.0, DRZ = 0.0,),
   DDL_POUTRE= (
      _F(NOEUD = 'NA',  DY=2.0E-03, DZ = 1.0E-3,
         VECT_Y = ( 0.0, 1.0, 0.0, ) ,
         MAILLE_REPE = 'SIANA'),
      _F(NOEUD = 'NB',  DY=2.0E-03, DZ = 1.0E-3,
         VECT_Y = ( 0.0, 0.0, 1.0, ) ,
         GROUP_MA_REPE='GROUP_MA_GIBNB'),
      _F(NOEUD = 'NC',  DY=2.0E-03, DZ = 1.0E-3,
         VECT_Y = ( -1.0,  1.0,  0.0, ) ,
         MAILLE_REPE = 'SNCNCC'),
      _F(NOEUD = 'ND',  DY=2.0E-03, DZ = 0.0,
         VECT_Y = ( -1.0,  1.0,  0.0, ) ,
         GROUP_MA_REPE='GROUP_MA_GNDNDD'),),
   FORCE_NODALE=(
      _F(NOEUD = 'ID',  FZ= 1000.0 ),
   ),
)

MEST1=MECA_STATIQUE(
   MODELE=MO,
   CHAM_MATER=CHMAT,
   CARA_ELEM=CAREL,
   EXCIT=_F(CHARGE = DDLIMPO),
)
MEST1=CALC_CHAMP( reuse= MEST1, RESULTAT= MEST1, CONTRAINTE=('EFGE_ELGA',), )


MEST1=CALC_CHAMP(reuse=MEST1,
   RESULTAT=MEST1,
   FORCE='FORC_NODA',
)

TEST_RESU(RESU=(_F(NUME_ORDRE=1,
                   REFERENCE='ANALYTIQUE',
                   RESULTAT=MEST1,
                   NOM_CHAM='FORC_NODA',
                   NOEUD='N1',
                   NOM_CMP='DY',
                   VALE_CALC=-1.00000000E+04,
                   VALE_REFE=-1.E4,
                   CRITERE='RELATIF',
                   PRECISION=1.0000000000000001E-05,),
                _F(NUME_ORDRE=1,
                   REFERENCE='ANALYTIQUE',
                   RESULTAT=MEST1,
                   NOM_CHAM='FORC_NODA',
                   NOEUD='N1',
                   NOM_CMP='DZ',
                   VALE_CALC=-1.25000000E+03,
                   VALE_REFE=-1250.0,
                   CRITERE='RELATIF',
                   PRECISION=1.0000000000000001E-05,),
                _F(NUME_ORDRE=1,
                   REFERENCE='ANALYTIQUE',
                   RESULTAT=MEST1,
                   NOM_CHAM='FORC_NODA',
                   NOEUD='N2',
                   NOM_CMP='DY',
                   VALE_CALC= 5.00000000E+03,
                   VALE_REFE=5000.0,
                   CRITERE='RELATIF',
                   PRECISION=1.0000000000000001E-05,),
                _F(NUME_ORDRE=1,
                   REFERENCE='ANALYTIQUE',
                   RESULTAT=MEST1,
                   NOM_CHAM='FORC_NODA',
                   NOEUD='N2',
                   NOM_CMP='DZ',
                   VALE_CALC=-2.50000000E+03,
                   VALE_REFE=-2500.0,
                   CRITERE='RELATIF',
                   PRECISION=1.0000000000000001E-05,),
                _F(NUME_ORDRE=1,
                   REFERENCE='ANALYTIQUE',
                   RESULTAT=MEST1,
                   NOM_CHAM='FORC_NODA',
                   NOEUD='N3',
                   NOM_CMP='DX',
                   VALE_CALC= 7.07106875E+03,
                   VALE_REFE=7071.0677999999998,
                   CRITERE='RELATIF',
                   PRECISION=1.0000000000000001E-05,),
                _F(NUME_ORDRE=1,
                   REFERENCE='ANALYTIQUE',
                   RESULTAT=MEST1,
                   NOM_CHAM='FORC_NODA',
                   NOEUD='N3',
                   NOM_CMP='DY',
                   VALE_CALC=-7.07106875E+03,
                   VALE_REFE=-7071.0677999999998,
                   CRITERE='RELATIF',
                   PRECISION=1.0000000000000001E-05,),
                _F(NUME_ORDRE=1,
                   REFERENCE='ANALYTIQUE',
                   RESULTAT=MEST1,
                   NOM_CHAM='FORC_NODA',
                   NOEUD='N3',
                   NOM_CMP='DZ',
                   VALE_CALC= 1.25000017E+03,
                   VALE_REFE=1250.0,
                   CRITERE='RELATIF',
                   PRECISION=1.0000000000000001E-05,),
                _F(NUME_ORDRE=1,
                   REFERENCE='ANALYTIQUE',
                   RESULTAT=MEST1,
                   NOM_CHAM='FORC_NODA',
                   NOEUD='N4',
                   NOM_CMP='DX',
                   VALE_CALC= 7.07106875E+03,
                   VALE_REFE=7071.0677999999998,
                   CRITERE='RELATIF',
                   PRECISION=1.0000000000000001E-05,),
                _F(NUME_ORDRE=1,
                   REFERENCE='ANALYTIQUE',
                   RESULTAT=MEST1,
                   NOM_CHAM='FORC_NODA',
                   NOEUD='N4',
                   NOM_CMP='DY',
                   VALE_CALC=-7.07106875E+03,
                   VALE_REFE=-7071.0677999999998,
                   CRITERE='RELATIF',
                   PRECISION=1.0000000000000001E-05,),
                _F(NUME_ORDRE=1,
                   REFERENCE='ANALYTIQUE',
                   RESULTAT=MEST1,
                   NOM_CHAM='FORC_NODA',
                   NOEUD='N4',
                   NOM_CMP='DZ',
                   VALE_CALC=-687.500039775,
                   VALE_REFE=-687.5,
                   CRITERE='RELATIF',
                   PRECISION=1.0000000000000001E-05,),
                _F(NUME_ORDRE=1,
                   REFERENCE='ANALYTIQUE',
                   RESULTAT=MEST1,
                   NOM_CHAM='DEPL',
                   NOEUD='ID',
                   NOM_CMP='DZ',
                   VALE_CALC= 2.18749958E-05,
                   VALE_REFE=2.1875E-05,
                   CRITERE='RELATIF',
                   PRECISION=1.0000000000000001E-05,),
                ),
          )

FIN()
#
