# MODIF  DATE 05/10/2004   AUTEUR CIBHHLV L.VIVAN 
# TITRE TUYAUTERIE (PROBLEME DE HOVGAARD) POU_D_T
#            CONFIGURATION MANAGEMENT OF EDF VERSION
# ======================================================================
# COPYRIGHT (C) 1991 - 2001  EDF R&D                  WWW.CODE-ASTER.ORG
# THIS PROGRAM IS FREE SOFTWARE; YOU CAN REDISTRIBUTE IT AND/OR MODIFY
# IT UNDER THE TERMS OF THE GNU GENERAL PUBLIC LICENSE AS PUBLISHED BY
# THE FREE SOFTWARE FOUNDATION; EITHER VERSION 2 OF THE LICENSE, OR   
# (AT YOUR OPTION) ANY LATER VERSION.                                 
#
# THIS PROGRAM IS DISTRIBUTED IN THE HOPE THAT IT WILL BE USEFUL, BUT 
# WITHOUT ANY WARRANTY; WITHOUT EVEN THE IMPLIED WARRANTY OF          
# MERCHANTABILITY OR FITNESS FOR A PARTICULAR PURPOSE. SEE THE GNU    
# GENERAL PUBLIC LICENSE FOR MORE DETAILS.                            
#
# YOU SHOULD HAVE RECEIVED A COPY OF THE GNU GENERAL PUBLIC LICENSE   
# ALONG WITH THIS PROGRAM; IF NOT, WRITE TO EDF R&D CODE_ASTER,       
#    1 AVENUE DU GENERAL DE GAULLE, 92141 CLAMART CEDEX, FRANCE.      
# ======================================================================
# RESPONSABLE JMBHH01 J.M.PROIX
# ----------------------------------------------------------------------
# PROBLEME DE HOVGAARD
#
# MODELISATION DES ELEMENTS COURBES PAR DES ELEMENTS DROITS.
# ----------------------------------------------------------------------

DEBUT(CODE=_F( NOM = 'SSLL101A',NIV_PUB_WEB='INTERNET'))

MAILLAGE=LIRE_MAILLAGE( )

MODELE=AFFE_MODELE(  MAILLAGE=MAILLAGE,
                 AFFE=_F( TOUT = 'OUI',PHENOMENE = 'MECANIQUE',
                                  MODELISATION = 'POU_D_T') )

MAT=DEFI_MATERIAU(ELAS=_F( E = 1.658E+11,NU = 0.3,RHO = 13404.106,
                                 ALPHA = .1288E-4) )

CHAMPMAT=AFFE_MATERIAU(MAILLAGE=MAILLAGE,
                           AFFE=_F( TOUT = 'OUI', MATER = MAT) )

BLOCAGE=AFFE_CHAR_MECA(MODELE=MODELE,
                  DDL_IMPO=_F( GROUP_NO = 'ENCASTRE',
                            DX = 0.,DY = 0.,DZ = 0., DRX = 0.,DRY = 0.,DRZ = 0.)  )

CARA_ELE=AFFE_CARA_ELEM( MODELE=MODELE,
                POUTRE=(_F(  SECTION = 'GENERALE',
                             GROUP_MA = 'POU_D_T',
                             CARA = ('A', 'IZ', 'IY', 'AY', 'AZ', 'JX',
                                     'EZ', 'EY', 'RY', 'RZ', 'RT', ),
                             VALE = ( 3.439E-03, 1.377E-05, 1.377E-05,
                                      2.,        2.,        2.754E-05,
                                      0.,        0.,        9.250E-02,
                                      9.250E-02, 9.250E-02, )),
                         _F(  GROUP_MA = 'POU_C_T',  SECTION = 'GENERALE',
                              VARI_SECT = 'HOMOTHETIQUE',
                              CARA = ('A1', 'IZ1', 'IY1', 'AY1', 'AZ1','JX1',
                                      'EZ1', 'EY1', 'RY1', 'RZ1', 'RT1', 
                                      'A2', 'IZ2', 'IY2', 'AY2', 'AZ2','JX2',
                                      'EZ2', 'EY2', 'RY2', 'RZ2', 'RT2',     ),
                              VALE = ( 3.439E-03, 5.887E-06, 5.887E-06,
                                       2.,        2.,        2.754E-05,
                                       0.,        0.,        9.250E-02,
                                       9.250E-02, 9.250E-02,
                                       3.439E-03, 5.887E-06, 5.887E-06,
                                       2.,        2.,        2.754E-05,
                                       0.,        0.,        9.250E-02,
                                       9.250E-02, 9.250E-02, )))
                        )

#
# ----------------------------------------------------------------------
# POIDS PROPRE

GRAVITE=AFFE_CHAR_MECA(MODELE=MODELE,PESANTEUR=(-9.81, 0.,0.,1.,))

STAT1=MECA_STATIQUE(MODELE=MODELE,
                   CHAM_MATER=CHAMPMAT,
                   CARA_ELEM=CARA_ELE,
                   EXCIT=(_F(CHARGE=BLOCAGE,),
                          _F(CHARGE=GRAVITE,),),);
                          


TEST_RESU(RESU=(
        _F( RESULTAT = STAT1, NOM_CHAM='DEPL', NUME_ORDRE=1, NOEUD = 'N300', NOM_CMP = 'DX', VALE = -0.1658E-3),
        _F( RESULTAT = STAT1, NOM_CHAM='DEPL', NUME_ORDRE=1, NOEUD = 'N300', NOM_CMP = 'DY', VALE = -0.2040E-4),
        _F( RESULTAT = STAT1, NOM_CHAM='DEPL', NUME_ORDRE=1, NOEUD = 'N300', NOM_CMP = 'DZ', VALE = -0.8010E-5),
        _F( RESULTAT = STAT1, NOM_CHAM='DEPL', NUME_ORDRE=1, NOEUD = 'N500', NOM_CMP = 'DX', VALE = -0.2397E-3),
        _F( RESULTAT = STAT1, NOM_CHAM='DEPL', NUME_ORDRE=1, NOEUD = 'N500', NOM_CMP = 'DY', VALE = 0.1777E-3),
        _F( RESULTAT = STAT1, NOM_CHAM='DEPL', NUME_ORDRE=1, NOEUD = 'N500', NOM_CMP = 'DZ', VALE = -0.2681E-3),
        _F( RESULTAT = STAT1, NOM_CHAM='DEPL', NUME_ORDRE=1, NOEUD = 'N700', NOM_CMP = 'DX', VALE = -0.1855E-3),
        _F( RESULTAT = STAT1, NOM_CHAM='DEPL', NUME_ORDRE=1, NOEUD = 'N700', NOM_CMP = 'DY', VALE = 0.1775E-3),
        _F( RESULTAT = STAT1, NOM_CHAM='DEPL', NUME_ORDRE=1, NOEUD = 'N700', NOM_CMP = 'DZ', VALE = -0.3940E-3),
        _F( RESULTAT = STAT1, NOM_CHAM='DEPL', NUME_ORDRE=1, NOEUD = 'N900', NOM_CMP = 'DX', VALE = -0.1278E-3),
        _F( RESULTAT = STAT1, NOM_CHAM='DEPL', NUME_ORDRE=1, NOEUD = 'N900', NOM_CMP = 'DY', VALE = 0.1774E-3),
        _F( RESULTAT = STAT1, NOM_CHAM='DEPL', NUME_ORDRE=1, NOEUD = 'N900', NOM_CMP = 'DZ', VALE = -0.4977E-3),
        _F( RESULTAT = STAT1, NOM_CHAM='DEPL', NUME_ORDRE=1, NOEUD = 'N1100', NOM_CMP = 'DX', VALE = 0.0,
                                                  CRITERE = 'ABSOLU'),
        _F( RESULTAT = STAT1, NOM_CHAM='DEPL', NUME_ORDRE=1, NOEUD = 'N1100', NOM_CMP = 'DY', VALE = 0.5682E-4),
        _F( RESULTAT = STAT1, NOM_CHAM='DEPL', NUME_ORDRE=1, NOEUD = 'N1100', NOM_CMP = 'DZ', VALE = -0.2207E-3))
         )

STAT1=CALC_ELEM( reuse=STAT1, RESULTAT=STAT1, 
      NUME_ORDRE=1,
      
      OPTION='EFGE_ELNO_DEPL',);

TEST_RESU(RESU=(
   _F( RESULTAT = STAT1,MAILLE = 'E101',NOEUD = 'N100', NOM_CHAM='EFGE_ELNO_DEPL', 
   NOM_CMP = 'N', NUME_ORDRE=1, VALE = -2276.),
   
   _F( RESULTAT = STAT1,MAILLE = 'E101',NOEUD = 'N100', NOM_CHAM='EFGE_ELNO_DEPL',
   NOM_CMP = 'VY', NUME_ORDRE=1, VALE = -161.1),
   
   _F( RESULTAT = STAT1,MAILLE = 'E101',NOEUD = 'N100', NOM_CHAM='EFGE_ELNO_DEPL',
   NOM_CMP = 'VZ', NUME_ORDRE=1, VALE = -10.095, PRECISION = 5.E-3),
   
   _F( RESULTAT = STAT1,MAILLE = 'E101',NOEUD = 'N100', NOM_CHAM='EFGE_ELNO_DEPL',
   NOM_CMP = 'MT', NUME_ORDRE=1, VALE = -53.40),
   
   _F( RESULTAT = STAT1,MAILLE = 'E101',NOEUD = 'N100', NOM_CHAM='EFGE_ELNO_DEPL',
   NOM_CMP = 'MFY', NUME_ORDRE=1, VALE = -89.66),
   
   _F( RESULTAT = STAT1,MAILLE = 'E101',NOEUD = 'N100', NOM_CHAM='EFGE_ELNO_DEPL',
   NOM_CMP = 'MFZ', NUME_ORDRE=1, VALE = -158.5),
   
   _F( RESULTAT = STAT1,MAILLE = 'E1401',NOEUD = 'N1500', NOM_CHAM='EFGE_ELNO_DEPL',
   NOM_CMP = 'N', NUME_ORDRE=1, VALE = 10.095, PRECISION = 5.E-3),
   
  _F( RESULTAT = STAT1,MAILLE = 'E1401',NOEUD = 'N1500', NOM_CHAM='EFGE_ELNO_DEPL',
  NOM_CMP = 'VY', NUME_ORDRE=1, VALE = -161.1),
  
  _F( RESULTAT = STAT1,MAILLE = 'E1401',NOEUD = 'N1500', NOM_CHAM='EFGE_ELNO_DEPL',
  NOM_CMP = 'VZ', NUME_ORDRE=1, VALE = 1165.),
  
  _F( RESULTAT = STAT1,MAILLE = 'E1401',NOEUD = 'N1500', NOM_CHAM='EFGE_ELNO_DEPL',
  NOM_CMP = 'MT', NUME_ORDRE=1, VALE = 15.60,PRECISION = 5.E-3),
  
  _F( RESULTAT = STAT1,MAILLE = 'E1401',NOEUD = 'N1500', NOM_CHAM='EFGE_ELNO_DEPL',
  NOM_CMP = 'MFY', NUME_ORDRE=1, VALE = 1260.5,PRECISION = 5.E-3),
  
  _F( RESULTAT = STAT1,MAILLE = 'E1401',NOEUD = 'N1500', NOM_CHAM='EFGE_ELNO_DEPL',
  NOM_CMP = 'MFZ', NUME_ORDRE=1, VALE = 290.1))
           )

#----------------------------------------------------------------------
# CHARGES PONCTUELLES SELON Z

FORCE_Z=AFFE_CHAR_MECA(MODELE=MODELE,FORCE_NODALE=(
                  _F( NOEUD = 'N200',            FZ = -624.897),
                  _F( NOEUD = 'N300',            FZ = -788.724),
                  _F( NOEUD = ('N400','N1000',),     FZ = -327.654),
                  _F( NOEUD = ('N500','N900',),      FZ = -214.839),
                  _F( NOEUD = ('N600','N700','N800',), FZ = -102.514),
                  _F( NOEUD = 'N1100',           FZ = -222.687),
                  _F( NOEUD = ('N1200','N1300',),    FZ = -117.720),
                  _F( NOEUD = 'N1400',           FZ = -176.580))
                            )

STAT2=MECA_STATIQUE(MODELE=MODELE,
                   CHAM_MATER=CHAMPMAT,
                   CARA_ELEM=CARA_ELE,
                   EXCIT=(_F(CHARGE=BLOCAGE,),
                          _F(CHARGE=FORCE_Z,),
                          ),
                );

TEST_RESU(RESU=(
        _F( RESULTAT = STAT2, NUME_ORDRE=1 , NOM_CHAM='DEPL', 
        NOEUD = 'N300', NOM_CMP = 'DX', VALE = -0.1651E-3),
        
        _F( RESULTAT = STAT2, NUME_ORDRE=1 , NOM_CHAM='DEPL',
        NOEUD = 'N300', NOM_CMP = 'DY', VALE = -0.2080E-4),
        
        _F( RESULTAT = STAT2, NUME_ORDRE=1 , NOM_CHAM='DEPL',
        NOEUD = 'N300', NOM_CMP = 'DZ', VALE = -0.9516E-5),
        
        _F( RESULTAT = STAT2, NUME_ORDRE=1 , NOM_CHAM='DEPL',
        NOEUD = 'N500', NOM_CMP = 'DX', VALE = -0.2386E-3),
        
        _F( RESULTAT = STAT2, NUME_ORDRE=1 , NOM_CHAM='DEPL',
        NOEUD = 'N500', NOM_CMP = 'DY', VALE = 0.1773E-3),
        
        _F( RESULTAT = STAT2, NUME_ORDRE=1 , NOM_CHAM='DEPL',
        NOEUD = 'N500', NOM_CMP = 'DZ', VALE = -0.2697E-3),
        
        _F( RESULTAT = STAT2, NUME_ORDRE=1 , NOM_CHAM='DEPL',
        NOEUD = 'N700', NOM_CMP = 'DX', VALE = -0.1848E-3),
        
        _F( RESULTAT = STAT2, NUME_ORDRE=1 , NOM_CHAM='DEPL',
        NOEUD = 'N700', NOM_CMP = 'DY', VALE = 0.1771E-3),
        
        _F( RESULTAT = STAT2, NUME_ORDRE=1 , NOM_CHAM='DEPL',
        NOEUD = 'N700', NOM_CMP = 'DZ', VALE = -0.3948E-3),
        
        _F( RESULTAT = STAT2, NUME_ORDRE=1 , NOM_CHAM='DEPL',
        NOEUD = 'N900', NOM_CMP = 'DX', VALE = -0.1274E-3),
        
        _F( RESULTAT = STAT2, NUME_ORDRE=1 , NOM_CHAM='DEPL',
        NOEUD = 'N900', NOM_CMP = 'DY', VALE = 0.1770E-3),
        
        _F( RESULTAT = STAT2, NUME_ORDRE=1 , NOM_CHAM='DEPL',
        NOEUD = 'N900', NOM_CMP = 'DZ', VALE = -0.4964E-3),
        
        _F( RESULTAT = STAT2, NUME_ORDRE=1 , NOM_CHAM='DEPL',
        NOEUD = 'N1100', NOM_CMP = 'DX', VALE = 0.0,CRITERE = 'ABSOLU'),
        
        _F( RESULTAT = STAT2, NUME_ORDRE=1 , NOM_CHAM='DEPL',
        NOEUD = 'N1100', NOM_CMP = 'DY', VALE = 0.5674E-4),
        
        _F( RESULTAT = STAT2, NUME_ORDRE=1 , NOM_CHAM='DEPL',
        NOEUD = 'N1100', NOM_CMP = 'DZ', VALE = -0.2186E-3)
        )
)

STAT2=CALC_ELEM( reuse=STAT2, RESULTAT=STAT2, 
      NUME_ORDRE=1,
      
      OPTION='EFGE_ELNO_DEPL',);


TEST_RESU(RESU=(
  _F( RESULTAT = STAT2,NOM_CHAM='EFGE_ELNO_DEPL',NUME_ORDRE=1,
  MAILLE = 'E101',NOEUD = 'N100',NOM_CMP = 'N',VALE = -2273.),
  
  _F( RESULTAT = STAT2,NOM_CHAM='EFGE_ELNO_DEPL',NUME_ORDRE=1,
  MAILLE = 'E101',NOEUD = 'N100',NOM_CMP = 'VY',VALE = -161.1),
  
  _F( RESULTAT = STAT2,NOM_CHAM='EFGE_ELNO_DEPL',NUME_ORDRE=1,
  MAILLE = 'E101',NOEUD = 'N100',NOM_CMP = 'VZ',VALE = -9.810),
  
  _F( RESULTAT = STAT2,NOM_CHAM='EFGE_ELNO_DEPL',NUME_ORDRE=1,
  MAILLE = 'E101',NOEUD = 'N100',NOM_CMP = 'MT',VALE = -53.02),
  
  _F( RESULTAT = STAT2,NOM_CHAM='EFGE_ELNO_DEPL',NUME_ORDRE=1,
  MAILLE = 'E101',NOEUD = 'N100',NOM_CMP = 'MFY',VALE = -89.53),
  
  _F( RESULTAT = STAT2,NOM_CHAM='EFGE_ELNO_DEPL',NUME_ORDRE=1,
  MAILLE = 'E101',NOEUD = 'N100',NOM_CMP = 'MFZ',VALE = -158.63),
  
  _F( RESULTAT = STAT2,NOM_CHAM='EFGE_ELNO_DEPL',NUME_ORDRE=1,
  MAILLE = 'E1401',NOEUD = 'N1500',NOM_CMP = 'N',VALE = 9.810),
  
  _F( RESULTAT = STAT2,NOM_CHAM='EFGE_ELNO_DEPL',NUME_ORDRE=1,
  MAILLE = 'E1401',NOEUD = 'N1500',NOM_CMP = 'VY',VALE = -161.1),
  
  _F( RESULTAT = STAT2,NOM_CHAM='EFGE_ELNO_DEPL',NUME_ORDRE=1,
  MAILLE = 'E1401',NOEUD = 'N1500',NOM_CMP = 'VZ',VALE = 1168.),
  
  _F( RESULTAT = STAT2,NOM_CHAM='EFGE_ELNO_DEPL',NUME_ORDRE=1,
  MAILLE = 'E1401',NOEUD = 'N1500',NOM_CMP = 'MT',VALE = 11.90,PRECISION = 5.E-3),
  
  _F( RESULTAT = STAT2,NOM_CHAM='EFGE_ELNO_DEPL',NUME_ORDRE=1,
  MAILLE = 'E1401',NOEUD = 'N1500',NOM_CMP = 'MFY',VALE = 1261.),
  
  _F( RESULTAT = STAT2,NOM_CHAM='EFGE_ELNO_DEPL',NUME_ORDRE=1,
  MAILLE = 'E1401',NOEUD = 'N1500',NOM_CMP = 'MFZ',VALE = 289.7)
  )
)


#----------------------------------------------------------------------
# DILATATION THERMIQUE UNIFORME A 472.220


CHTEMP=CREA_CHAMP( OPERATION='AFFE', TYPE_CHAM='NOEU_TEMP_R',
MAILLAGE=MAILLAGE,
                       AFFE=_F( TOUT = 'OUI',NOM_CMP = 'TEMP',VALE = 472.22))

TEMP=AFFE_CHAR_MECA(  MODELE=MODELE,  TEMP_CALCULEE=CHTEMP    )

STAT3=MECA_STATIQUE(MODELE=MODELE,
                   CHAM_MATER=CHAMPMAT,
                   CARA_ELEM=CARA_ELE,
                   EXCIT=(_F(CHARGE=BLOCAGE,),
                          _F(CHARGE=TEMP,),
                          ),
                );


TEST_RESU(RESU=(
        _F( RESULTAT = STAT3, NUME_ORDRE=1 , NOM_CHAM='DEPL' ,
        NOEUD = 'N300', NOM_CMP = 'DX', VALE = -6.1418E-3),
        
        _F( RESULTAT = STAT3, NUME_ORDRE=1 , NOM_CHAM='DEPL' ,
        NOEUD = 'N300', NOM_CMP = 'DY', VALE = -13.090E-3),
        
        _F( RESULTAT = STAT3, NUME_ORDRE=1 , NOM_CHAM='DEPL' ,
        NOEUD = 'N300', NOM_CMP = 'DZ', VALE = 16.799E-3),
        
        _F( RESULTAT = STAT3, NUME_ORDRE=1 , NOM_CHAM='DEPL' ,
        NOEUD = 'N500', NOM_CMP = 'DX', VALE = -10.302E-3),
        
        _F( RESULTAT = STAT3, NUME_ORDRE=1 , NOM_CHAM='DEPL' ,
        NOEUD = 'N500', NOM_CMP = 'DY', VALE = -8.132E-3),
        
        _F( RESULTAT = STAT3, NUME_ORDRE=1 , NOM_CHAM='DEPL' ,
        NOEUD = 'N500', NOM_CMP = 'DZ', VALE = 19.723E-3),
        
        _F( RESULTAT = STAT3, NUME_ORDRE=1 , NOM_CHAM='DEPL' ,
        NOEUD = 'N700', NOM_CMP = 'DX', VALE = -11.370E-3),
        
        _F( RESULTAT = STAT3, NUME_ORDRE=1 , NOM_CHAM='DEPL' ,
        NOEUD = 'N700', NOM_CMP = 'DY', VALE = -5.383E-3),
        
        _F( RESULTAT = STAT3, NUME_ORDRE=1 , NOM_CHAM='DEPL' ,
        NOEUD = 'N700', NOM_CMP = 'DZ', VALE = 16.135E-3),
        
        _F( RESULTAT = STAT3, NUME_ORDRE=1 , NOM_CHAM='DEPL' ,
        NOEUD = 'N900', NOM_CMP = 'DX', VALE = -12.238E-3),
        
        _F( RESULTAT = STAT3, NUME_ORDRE=1 , NOM_CHAM='DEPL' ,
        NOEUD = 'N900', NOM_CMP = 'DY', VALE = -2.633E-3),
        
        _F( RESULTAT = STAT3, NUME_ORDRE=1 , NOM_CHAM='DEPL' ,
        NOEUD = 'N900', NOM_CMP = 'DZ', VALE = 12.262E-3),
        
        _F( RESULTAT = STAT3, NUME_ORDRE=1 , NOM_CHAM='DEPL' ,
        NOEUD = 'N1100', NOM_CMP = 'DX', VALE = -6.308E-3),
        
        _F( RESULTAT = STAT3, NUME_ORDRE=1 , NOM_CHAM='DEPL' ,
        NOEUD = 'N1100', NOM_CMP = 'DY', VALE = 1.542E-3),
        
        _F( RESULTAT = STAT3, NUME_ORDRE=1 , NOM_CHAM='DEPL' ,
        NOEUD = 'N1100', NOM_CMP = 'DZ', VALE = 1.931E-3)
        )
)
             
STAT3=CALC_ELEM( reuse=STAT3, RESULTAT=STAT3, 
      NUME_ORDRE=1,
      
      OPTION='EFGE_ELNO_DEPL',);
        
TEST_RESU(RESU=(
 _F( RESULTAT = STAT3,MAILLE = 'E101',NUME_ORDRE = 1,NOM_CHAM = 'EFGE_ELNO_DEPL',
 NOEUD = 'N100',NOM_CMP = 'N',VALE = -7431.),
 
 _F( RESULTAT = STAT3,MAILLE = 'E101',NUME_ORDRE = 1,NOM_CHAM = 'EFGE_ELNO_DEPL',
 NOEUD = 'N100',NOM_CMP = 'VY',VALE = -7613.),
 
 _F( RESULTAT = STAT3,MAILLE = 'E101',NUME_ORDRE = 1,NOM_CHAM = 'EFGE_ELNO_DEPL',
 NOEUD = 'N100',NOM_CMP = 'VZ',VALE = 2791.),
 
 _F( RESULTAT = STAT3,MAILLE = 'E101',NUME_ORDRE = 1,NOM_CHAM = 'EFGE_ELNO_DEPL',
 NOEUD = 'N100',NOM_CMP = 'MT',VALE = 1615.),
 
 _F( RESULTAT = STAT3,MAILLE = 'E101',NUME_ORDRE = 1,NOM_CHAM = 'EFGE_ELNO_DEPL',
 NOEUD = 'N100',NOM_CMP = 'MFY',VALE = -6193.),
 
 _F( RESULTAT = STAT3,MAILLE = 'E101',NUME_ORDRE = 1,NOM_CHAM = 'EFGE_ELNO_DEPL',
 NOEUD = 'N100',NOM_CMP = 'MFZ',VALE = -14712.),
 
 _F( RESULTAT = STAT3,MAILLE = 'E1401',NUME_ORDRE = 1,NOM_CHAM = 'EFGE_ELNO_DEPL',
 NOEUD = 'N1500',NOM_CMP = 'N',VALE = -2791.),
 
 _F( RESULTAT = STAT3,MAILLE = 'E1401',NUME_ORDRE = 1,NOM_CHAM = 'EFGE_ELNO_DEPL',
 NOEUD = 'N1500',NOM_CMP = 'VY',VALE = -7613.),
 
 _F( RESULTAT = STAT3,MAILLE = 'E1401',NUME_ORDRE = 1,NOM_CHAM = 'EFGE_ELNO_DEPL',
 NOEUD = 'N1500',NOM_CMP = 'VZ',VALE = -7433.),
 
 _F( RESULTAT = STAT3,MAILLE = 'E1401',NUME_ORDRE = 1,NOM_CHAM = 'EFGE_ELNO_DEPL',
 NOEUD = 'N1500',NOM_CMP = 'MT',VALE = 7052.),
 
 _F( RESULTAT = STAT3,MAILLE = 'E1401',NUME_ORDRE = 1,NOM_CHAM = 'EFGE_ELNO_DEPL',
 NOEUD = 'N1500',NOM_CMP = 'MFY',VALE = -10460.),
 
 _F( RESULTAT = STAT3,MAILLE = 'E1401',NUME_ORDRE = 1,NOM_CHAM = 'EFGE_ELNO_DEPL',
 NOEUD = 'N1500',NOM_CMP = 'MFZ',VALE = 8862.)
 )
 
 )

       
#
FIN()
#
