# MODIF  DATE 30/08/2010   AUTEUR PELLET J.PELLET 
# TITRE POUTRE ENCASTREE A UNE EXTREMITE ET CHARGEE PAR DES FORCES
#            CONFIGURATION MANAGEMENT OF EDF VERSION
# ======================================================================
# COPYRIGHT (C) 1991 - 2001  EDF R&D                  WWW.CODE-ASTER.ORG
# THIS PROGRAM IS FREE SOFTWARE; YOU CAN REDISTRIBUTE IT AND/OR MODIFY
# IT UNDER THE TERMS OF THE GNU GENERAL PUBLIC LICENSE AS PUBLISHED BY
# THE FREE SOFTWARE FOUNDATION; EITHER VERSION 2 OF THE LICENSE, OR
# (AT YOUR OPTION) ANY LATER VERSION.
#
# THIS PROGRAM IS DISTRIBUTED IN THE HOPE THAT IT WILL BE USEFUL, BUT
# WITHOUT ANY WARRANTY; WITHOUT EVEN THE IMPLIED WARRANTY OF
# MERCHANTABILITY OR FITNESS FOR A PARTICULAR PURPOSE. SEE THE GNU
# GENERAL PUBLIC LICENSE FOR MORE DETAILS.
#
# YOU SHOULD HAVE RECEIVED A COPY OF THE GNU GENERAL PUBLIC LICENSE
# ALONG WITH THIS PROGRAM; IF NOT, WRITE TO EDF R&D CODE_ASTER,
#    1 AVENUE DU GENERAL DE GAULLE, 92141 CLAMART CEDEX, FRANCE.
# ======================================================================
#       UNITAIRES SUR SON AUTRE EXTREMITE.
# MODELISATION POU_D_E
#======================================================================


DEBUT(CODE=_F(NOM='SSLL102A', NIV_PUB_WEB='INTERNET'), DEBUG=_F(SDVERI='OUI'))

MA=LIRE_MAILLAGE(                                                )

MO=AFFE_MODELE(        MAILLAGE=MA,
          AFFE=_F( TOUT = 'OUI',PHENOMENE = 'MECANIQUE',MODELISATION = 'POU_D_E')
                        )

MATR=DEFI_MATERIAU(   ELAS=_F( E = 2.E11,  NU = 0.3) )

CHMAT=AFFE_MATERIAU(   MAILLAGE=MA,
                           AFFE=_F( TOUT = 'OUI', MATER = MATR)            )

CAREL=AFFE_CARA_ELEM(   MODELE=MO,  INFO=2,POUTRE=(
          # SECTION RECTANGLE :
           _F(  GROUP_MA = 'G1',   SECTION = 'GENERALE',
          CARA = (   'A',            'IY',              'IZ',
                                                    'JX',
                    'RY',           'RZ',             'RT',),
          VALE = (  0.02,      0.166666666666E-4,   0.666666666666E-4,
                                                  0.45776E-4,
                    0.1,       0.05,                0.0892632,)),
          # SECTION RECTANGLE ENCORE :
           _F(  GROUP_MA = 'G3',   SECTION = 'RECTANGLE',
          CARA = (   'HY',            'HZ',  ),
          VALE = (  0.2,             0.1, )),
          # SECTION CORNIERE 120X120X8 :
           _F(  GROUP_MA = 'G2',   SECTION = 'GENERALE',
          CARA = (   'A',            'IY',              'IZ',
                                                    'JX',
                   'EY',           'EZ',                          ),
          VALE = (  1.856E-3,       4.167339E-4,       1.045547E-4,
                                                     3.9595E-8,
                    41.012E-3,   0.0,                             )),
          # SECTION CERCLE :
           _F(  GROUP_MA = 'G4',   SECTION = 'CERCLE',
          CARA = (   'R',   ),
          VALE = (  0.1,)))
)

# ------ TRACTION SIMPLE GX : ------------------------------------------


CHARG1=AFFE_CHAR_MECA(  MODELE=MO,
      DDL_IMPO=_F( GROUP_NO = 'A', DX = 0., DY = 0., DZ = 0., DRX = 0., DRY = 0., DRZ = 0.),
  FORCE_NODALE=_F( GROUP_NO = 'B',  FX = 5.7735026919E-01,
                             FY = 5.7735026919E-01,
                             FZ = 5.7735026919E-01)    )

MEST1=MECA_STATIQUE(        MODELE=MO,    CHAM_MATER=CHMAT,
            CARA_ELEM=CAREL, EXCIT=_F( CHARGE = CHARG1)   )

TEST_RESU(RESU=(
# SECTION RECTANGLE
 _F(  RESULTAT = MEST1, NOM_CHAM = 'DEPL', NUME_ORDRE = 1,
        NOEUD = 'N3', NOM_CMP = 'DX', VALE = 2.8867514E-10,
        PRECISION = 1.E-6, CRITERE = 'RELATIF', REFERENCE = 'ANALYTIQUE'),
 _F(  RESULTAT = MEST1, NOM_CHAM = 'DEPL', NUME_ORDRE = 1,
        NOEUD = 'N3', NOM_CMP = 'DY', VALE = 2.8867514E-10,
        PRECISION = 1.E-13, CRITERE = 'ABSOLU', REFERENCE = 'ANALYTIQUE'),
 _F(  RESULTAT = MEST1, NOM_CHAM = 'DEPL', NUME_ORDRE = 1,
        NOEUD = 'N3', NOM_CMP = 'DZ', VALE = 2.8867514E-10,
        PRECISION = 1.E-13, CRITERE = 'ABSOLU', REFERENCE = 'ANALYTIQUE'),
 _F(  RESULTAT = MEST1, NOM_CHAM = 'DEPL', NUME_ORDRE = 1,
        NOEUD = 'N3', NOM_CMP = 'DRX', VALE = 0.0,
        PRECISION = 1.E-13, CRITERE = 'ABSOLU', REFERENCE = 'ANALYTIQUE'),
 _F(  RESULTAT = MEST1, NOM_CHAM = 'DEPL', NUME_ORDRE = 1,
        NOEUD = 'N3', NOM_CMP = 'DRY', VALE = 0.0,
        PRECISION = 1.E-13, CRITERE = 'ABSOLU', REFERENCE = 'ANALYTIQUE'),
 _F(  RESULTAT = MEST1, NOM_CHAM = 'DEPL', NUME_ORDRE = 1,
        NOEUD = 'N3', NOM_CMP = 'DRZ', VALE = 0.0,
        PRECISION = 1.E-13, CRITERE = 'ABSOLU', REFERENCE = 'ANALYTIQUE'),
#
# SECTION CORNIERE
   _F(  RESULTAT = MEST1, NOM_CHAM = 'DEPL', NUME_ORDRE = 1,
          NOEUD = 'M3', NOM_CMP = 'DX', VALE = 3.1107235E-09,
          PRECISION = 1.E-6,   CRITERE = 'RELATIF', REFERENCE = 'ANALYTIQUE'),
   _F(  RESULTAT = MEST1, NOM_CHAM = 'DEPL', NUME_ORDRE = 1,
          NOEUD = 'M3', NOM_CMP = 'DY', VALE = 3.1107235E-09,
          PRECISION = 1.E-13,   CRITERE = 'ABSOLU', REFERENCE = 'ANALYTIQUE'),
   _F(  RESULTAT = MEST1, NOM_CHAM = 'DEPL', NUME_ORDRE = 1,
          NOEUD = 'M3', NOM_CMP = 'DZ', VALE = 3.1107235E-09,
          PRECISION = 1.E-13,   CRITERE = 'ABSOLU', REFERENCE = 'ANALYTIQUE'),
   _F(  RESULTAT = MEST1, NOM_CHAM = 'DEPL', NUME_ORDRE = 1,
          NOEUD = 'M3', NOM_CMP = 'DRX', VALE = 0.0,
          PRECISION = 1.E-13,   CRITERE = 'ABSOLU', REFERENCE = 'ANALYTIQUE'),
   _F(  RESULTAT = MEST1, NOM_CHAM = 'DEPL', NUME_ORDRE = 1,
          NOEUD = 'M3', NOM_CMP = 'DRY', VALE = 0.0,
          PRECISION = 1.E-13,   CRITERE = 'ABSOLU', REFERENCE = 'ANALYTIQUE'),
   _F(  RESULTAT = MEST1, NOM_CHAM = 'DEPL', NUME_ORDRE = 1,
          NOEUD = 'M3', NOM_CMP = 'DRZ', VALE = 0.0,
          PRECISION = 1.E-13,   CRITERE = 'ABSOLU', REFERENCE = 'ANALYTIQUE'),

# SECTION CERCLE
   _F(  RESULTAT = MEST1, NOM_CHAM = 'DEPL', NUME_ORDRE = 1,
          NOEUD = 'C3', NOM_CMP = 'DX', VALE = 1.8377630E-10,
          PRECISION = 1.E-6,   CRITERE = 'RELATIF', REFERENCE = 'ANALYTIQUE'),
   _F(  RESULTAT = MEST1, NOM_CHAM = 'DEPL', NUME_ORDRE = 1,
          NOEUD = 'C3', NOM_CMP = 'DY', VALE = 1.8377630E-10,
          PRECISION = 1.E-13,   CRITERE = 'ABSOLU', REFERENCE = 'ANALYTIQUE'),
   _F(  RESULTAT = MEST1, NOM_CHAM = 'DEPL', NUME_ORDRE = 1,
          NOEUD = 'C3', NOM_CMP = 'DZ', VALE = 1.8377630E-10,
          PRECISION = 1.E-13,   CRITERE = 'ABSOLU', REFERENCE = 'ANALYTIQUE'),
   _F(  RESULTAT = MEST1, NOM_CHAM = 'DEPL', NUME_ORDRE = 1,
          NOEUD = 'C3', NOM_CMP = 'DRX', VALE = 0.0,
          PRECISION = 1.E-13,   CRITERE = 'ABSOLU', REFERENCE = 'ANALYTIQUE'),
   _F(  RESULTAT = MEST1, NOM_CHAM = 'DEPL', NUME_ORDRE = 1,
          NOEUD = 'C3', NOM_CMP = 'DRY', VALE = 0.0,
          PRECISION = 1.E-13,   CRITERE = 'ABSOLU', REFERENCE = 'ANALYTIQUE'),
   _F(  RESULTAT = MEST1, NOM_CHAM = 'DEPL', NUME_ORDRE = 1,
          NOEUD = 'C3', NOM_CMP = 'DRZ', VALE = 0.0,
          PRECISION = 1.E-13,   CRITERE = 'ABSOLU', REFERENCE = 'ANALYTIQUE'),)
            )

CALC_ELEM( reuse=MEST1,
                      RESULTAT=MEST1, EXCIT=_F(  CHARGE = CHARG1),
                      OPTION=('EFGE_ELNO_DEPL', 'SIGM_ELNO_DEPL',))

CALC_ELEM( reuse=MEST1,
                     RESULTAT=MEST1, EXCIT=_F(  CHARGE = CHARG1),
                       OPTION='EFGE_ELNO_CART'    )

TEST_RESU(RESU=(
      _F(  RESULTAT = MEST1,     NOM_CHAM = 'EFGE_ELNO_CART',
             NUME_ORDRE = 1,        MAILLE = 'S11',  NOEUD = 'N1',
             NOM_CMP = 'FX',       VALE = 5.77350E-01, REFERENCE = 'ANALYTIQUE'),
           _F(  RESULTAT = MEST1,     NOM_CHAM = 'EFGE_ELNO_CART',
             NUME_ORDRE = 1,        MAILLE = 'S11',  NOEUD = 'N1',
             NOM_CMP = 'FY',       VALE = 5.77350E-01, REFERENCE = 'ANALYTIQUE'),
           _F(  RESULTAT = MEST1,     NOM_CHAM = 'EFGE_ELNO_CART',
             NUME_ORDRE = 1,        MAILLE = 'S11',  NOEUD = 'N1',
             NOM_CMP = 'FZ',       VALE = 5.77350E-01, REFERENCE = 'ANALYTIQUE'),)
          )

RESU2=MODI_REPERE(
                  RESULTAT    = MEST1,
                  NUME_ORDRE  = 1,
                  MODI_CHAM  = (_F(NOM_CHAM   = 'DEPL',
                                   NOM_CMP    = ('DX','DY','DZ',),
                                   TYPE_CHAM  = 'VECT_3D',),
                                _F(NOM_CHAM   = 'EFGE_ELNO_CART',
                                   NOM_CMP    = ('FX','FY','FZ','MX','MY','MZ',),
                                   TYPE_CHAM  = 'TORS_3D',),),
                   DEFI_REPERE = _F(
                                   REPERE    = 'UTILISATEUR',
                                   ANGL_NAUT = (0.,0.,0.,),
                                  ),
                  INFO=1,
                )
   # MODI_REPERE
   # -----------
TEST_RESU(RESU=(
# SECTION RECTANGLE
 _F(  RESULTAT = RESU2, NOM_CHAM = 'DEPL', NUME_ORDRE = 1,
        NOEUD = 'N3', NOM_CMP = 'DX', VALE = 2.8867514E-10,
        PRECISION = 1.E-6, CRITERE = 'RELATIF', REFERENCE = 'ANALYTIQUE'),
 _F(  RESULTAT = RESU2, NOM_CHAM = 'DEPL', NUME_ORDRE = 1,
        NOEUD = 'N3', NOM_CMP = 'DY', VALE = 2.8867514E-10,
        PRECISION = 1.E-13, CRITERE = 'ABSOLU', REFERENCE = 'ANALYTIQUE'),
 _F(  RESULTAT = RESU2, NOM_CHAM = 'DEPL', NUME_ORDRE = 1,
        NOEUD = 'N3', NOM_CMP = 'DZ', VALE = 2.8867514E-10,
        PRECISION = 1.E-13, CRITERE = 'ABSOLU', REFERENCE = 'ANALYTIQUE'),),)

TEST_RESU(RESU=(

         _F(    CRITERE = 'RELATIF',   PRECISION = 1.E-3,
         REFERENCE = 'NON_REGRESSION',
         RESULTAT = RESU2, NOM_CHAM = 'EFGE_ELNO_CART',   NUME_ORDRE = 1,
         NOEUD = 'N1',  MAILLE = 'S11', NOM_CMP = 'FX', VALE = 5.77350E-1),
         _F(    CRITERE = 'RELATIF',   PRECISION = 1.E-3,
         REFERENCE = 'NON_REGRESSION',
         RESULTAT = RESU2, NOM_CHAM = 'EFGE_ELNO_CART',   NUME_ORDRE = 1,
         NOEUD = 'N1',  MAILLE = 'S11',   NOM_CMP = 'FY', VALE = 5.77350E-1),
         _F(    CRITERE = 'RELATIF',   PRECISION = 1.E-3,
         REFERENCE = 'NON_REGRESSION',
         RESULTAT = RESU2, NOM_CHAM = 'EFGE_ELNO_CART',   NUME_ORDRE = 1,
         NOEUD = 'N1',  MAILLE = 'S11',   NOM_CMP = 'FZ', VALE = 5.77350E-1),
          ),)

TEST_RESU(RESU=(
   _F(  RESULTAT = MEST1, NOM_CHAM = 'EFGE_ELNO_DEPL', NUME_ORDRE = 1,
          MAILLE = 'S11',  NOEUD = 'N1',  NOM_CMP = 'N',  VALE = 1.,
          PRECISION = 1.E-6,   CRITERE = 'RELATIF', REFERENCE = 'ANALYTIQUE'),

# SECTION RECTANGLE MOT_CLE GENERALE
   _F(  RESULTAT = MEST1, NOM_CHAM = 'SIGM_ELNO_DEPL', NUME_ORDRE = 1,
          MAILLE = 'S11',  NOEUD = 'N1',  NOM_CMP = 'SIXX',  VALE = 50.,
          PRECISION = 1.E-6,   CRITERE = 'RELATIF', REFERENCE = 'ANALYTIQUE'),

# SECTION RECTANGLE MOT_CLE RECTANGLE
   _F(  RESULTAT = MEST1, NOM_CHAM = 'SIGM_ELNO_DEPL', NUME_ORDRE = 1,
          MAILLE = 'S31',  NOEUD = 'R1',  NOM_CMP = 'SIXX',  VALE = 50.,
          PRECISION = 1.E-6,   CRITERE = 'RELATIF', REFERENCE = 'ANALYTIQUE'),

# SECTION CERCLE MOT_CLE CERCLE
   _F(  RESULTAT = MEST1, NOM_CHAM = 'SIGM_ELNO_DEPL', NUME_ORDRE = 1,
          MAILLE = 'S41',  NOEUD = 'C1',  NOM_CMP = 'SIXX',  VALE = 31.831016,
          PRECISION = 1.E-6,   CRITERE = 'RELATIF', REFERENCE = 'ANALYTIQUE'))
          )

#
# ------ EFFORT TRANCHANT GY : -----------------------------------------


CHARG2=AFFE_CHAR_MECA(  MODELE=MO,
     DDL_IMPO=_F( GROUP_NO = 'A', DX = 0., DY = 0., DZ = 0., DRX = 0., DRY = 0., DRZ = 0.),
    FORCE_NODALE=_F( GROUP_NO = 'B',  FX = -7.0710678119E-01,
                               FY = 7.0710678119E-01) )

MEST2=MECA_STATIQUE(        MODELE=MO,    CHAM_MATER=CHMAT,
            CARA_ELEM=CAREL, EXCIT=_F( CHARGE = CHARG2)   )

TEST_RESU(RESU=(
# SECTION RECTANGLE MOT-CLE GENERALE
   _F(  RESULTAT = MEST2, NOM_CHAM = 'DEPL', NUME_ORDRE = 1,
          NOEUD = 'N3', NOM_CMP = 'DX', VALE = -1.4142135E-07,
          PRECISION = 1.E-13,   CRITERE = 'ABSOLU', REFERENCE = 'ANALYTIQUE'),
   _F(  RESULTAT = MEST2, NOM_CHAM = 'DEPL', NUME_ORDRE = 1,
          NOEUD = 'N3', NOM_CMP = 'DY', VALE = 1.4142135E-07,
          PRECISION = 1.E-6,   CRITERE = 'RELATIF', REFERENCE = 'ANALYTIQUE'),
   _F(  RESULTAT = MEST2, NOM_CHAM = 'DEPL', NUME_ORDRE = 1,
          NOEUD = 'N3', NOM_CMP = 'DZ', VALE = 0.0,
          PRECISION = 1.E-13,   CRITERE = 'ABSOLU', REFERENCE = 'ANALYTIQUE'),
   _F(  RESULTAT = MEST2, NOM_CHAM = 'DEPL', NUME_ORDRE = 1,
          NOEUD = 'N3', NOM_CMP = 'DRX', VALE = -6.1237245E-08,
          PRECISION = 1.E-13,   CRITERE = 'ABSOLU', REFERENCE = 'ANALYTIQUE'),
   _F(  RESULTAT = MEST2, NOM_CHAM = 'DEPL', NUME_ORDRE = 1,
          NOEUD = 'N3', NOM_CMP = 'DRY', VALE = -6.1237245E-08,
          PRECISION = 1.E-13,   CRITERE = 'ABSOLU', REFERENCE = 'ANALYTIQUE'),
   _F(  RESULTAT = MEST2, NOM_CHAM = 'DEPL', NUME_ORDRE = 1,
          NOEUD = 'N3', NOM_CMP = 'DRZ', VALE = 1.2247449E-07,
          PRECISION = 1.E-6,   CRITERE = 'RELATIF', REFERENCE = 'ANALYTIQUE'),

# SECTION CORNIERE
   _F(  RESULTAT = MEST2, NOM_CHAM = 'DEPL', NUME_ORDRE = 1,
          NOEUD = 'M3', NOM_CMP = 'DX', VALE = -9.0173764E-08,
          PRECISION = 1.E-13,   CRITERE = 'ABSOLU', REFERENCE = 'ANALYTIQUE'),
   _F(  RESULTAT = MEST2, NOM_CHAM = 'DEPL', NUME_ORDRE = 1,
          NOEUD = 'M3', NOM_CMP = 'DY', VALE = 9.0173764E-08,
          PRECISION = 1.E-6,   CRITERE = 'RELATIF', REFERENCE = 'ANALYTIQUE'),
   _F(  RESULTAT = MEST2, NOM_CHAM = 'DEPL', NUME_ORDRE = 1,
          NOEUD = 'M3', NOM_CMP = 'DZ', VALE = 0.0,
          PRECISION = 1.E-13,   CRITERE = 'ABSOLU', REFERENCE = 'ANALYTIQUE'),
   _F(  RESULTAT = MEST2, NOM_CHAM = 'DEPL', NUME_ORDRE = 1,
          NOEUD = 'M3', NOM_CMP = 'DRX', VALE = -3.9046384E-08,
          PRECISION = 1.E-13,   CRITERE = 'ABSOLU', REFERENCE = 'ANALYTIQUE'),
   _F(  RESULTAT = MEST2, NOM_CHAM = 'DEPL', NUME_ORDRE = 1,
          NOEUD = 'M3', NOM_CMP = 'DRY', VALE = -3.9046384E-08,
          PRECISION = 1.E-13,   CRITERE = 'ABSOLU', REFERENCE = 'ANALYTIQUE'),
   _F(  RESULTAT = MEST2, NOM_CHAM = 'DEPL', NUME_ORDRE = 1,
          NOEUD = 'M3', NOM_CMP = 'DRZ', VALE = 7.8092768E-08,
          PRECISION = 1.E-6,   CRITERE = 'RELATIF', REFERENCE = 'ANALYTIQUE'),

# SECTION CERCLE
   _F(  RESULTAT = MEST2, NOM_CHAM = 'DEPL', NUME_ORDRE = 1,
          NOEUD = 'C3', NOM_CMP = 'DX', VALE = -1.2004217E-07,
          PRECISION = 1.E-13,   CRITERE = 'ABSOLU', REFERENCE = 'ANALYTIQUE'),
   _F(  RESULTAT = MEST2, NOM_CHAM = 'DEPL', NUME_ORDRE = 1,
          NOEUD = 'C3', NOM_CMP = 'DY', VALE = 1.2004217E-07,
          PRECISION = 1.E-6,   CRITERE = 'RELATIF', REFERENCE = 'ANALYTIQUE'),
   _F(  RESULTAT = MEST2, NOM_CHAM = 'DEPL', NUME_ORDRE = 1,
          NOEUD = 'C3', NOM_CMP = 'DZ', VALE = 0.0,
          PRECISION = 1.E-13,   CRITERE = 'ABSOLU', REFERENCE = 'ANALYTIQUE'),
   _F(  RESULTAT = MEST2, NOM_CHAM = 'DEPL', NUME_ORDRE = 1,
          NOEUD = 'C3', NOM_CMP = 'DRX', VALE = -5.1979786E-08,
          PRECISION = 1.E-13,   CRITERE = 'ABSOLU', REFERENCE = 'ANALYTIQUE'),
   _F(  RESULTAT = MEST2, NOM_CHAM = 'DEPL', NUME_ORDRE = 1,
          NOEUD = 'C3', NOM_CMP = 'DRY', VALE = -5.1979786E-08,
          PRECISION = 1.E-13,   CRITERE = 'ABSOLU', REFERENCE = 'ANALYTIQUE'),
   _F(  RESULTAT = MEST2, NOM_CHAM = 'DEPL', NUME_ORDRE = 1,
          NOEUD = 'C3', NOM_CMP = 'DRZ', VALE = 1.0395957E-07,
          PRECISION = 1.E-6,   CRITERE = 'RELATIF', REFERENCE = 'ANALYTIQUE'))
          )

CALC_ELEM( reuse=MEST2,
                      RESULTAT=MEST2, EXCIT=_F(  CHARGE = CHARG2),
                      OPTION=('EFGE_ELNO_DEPL', 'SIGM_ELNO_DEPL',))

TEST_RESU(RESU=(
   _F(  RESULTAT = MEST2, NOM_CHAM = 'EFGE_ELNO_DEPL', NUME_ORDRE = 1,
          MAILLE = 'S11',  NOEUD = 'N1',  NOM_CMP = 'VY',  VALE = 1.,
          PRECISION = 1.E-6,   CRITERE = 'RELATIF', REFERENCE = 'ANALYTIQUE'),

# SECTION RECTANGLE MOT_CLE GENERALE
   _F(  RESULTAT = MEST2, NOM_CHAM = 'SIGM_ELNO_DEPL', NUME_ORDRE = 1,
          MAILLE = 'S11',  NOEUD = 'N1',  NOM_CMP = 'SIXX',  VALE = -3000.,
          PRECISION = 1.E-6,   CRITERE = 'RELATIF', REFERENCE = 'ANALYTIQUE'),
   _F(  RESULTAT = MEST2, NOM_CHAM = 'SIGM_ELNO_DEPL', NUME_ORDRE = 1,
          MAILLE = 'S11',  NOEUD = 'N1',  NOM_CMP = 'SIXY',  VALE = 50.,
          PRECISION = 1.E-6,   CRITERE = 'RELATIF', REFERENCE = 'ANALYTIQUE'),

# SECTION RECTANGLE MOT_CLE RECTANGLE
#  RESU:( RESULTAT: MEST2 NOM_CHAM:'SIGM_ELNO_DEPL' NUME_ORDRE:1
#         MAILLE: S31  NOEUD:R1  NOM_CMP:'SIXX'  VALE:3000.
#         PRECISION:1.D-6   CRITERE:'RELATIF'           )
   _F(  RESULTAT = MEST2, NOM_CHAM = 'SIGM_ELNO_DEPL', NUME_ORDRE = 1,
          MAILLE = 'S31',  NOEUD = 'R1',  NOM_CMP = 'SIXY',  VALE = 50.,
          PRECISION = 1.E-6,  CRITERE = 'RELATIF', REFERENCE = 'ANALYTIQUE'),

# SECTION CERCLE MOT_CLE CERCLE
#   RESU:( RESULTAT: MEST2 NOM_CHAM:'SIGM_ELNO_DEPL' NUME_ORDRE:1
#          MAILLE: S41  NOEUD:C1  NOM_CMP:'SIXX'  VALE:2546.479
#          PRECISION:1.D-6   CRITERE:'RELATIF'           )
   _F(  RESULTAT = MEST2, NOM_CHAM = 'SIGM_ELNO_DEPL', NUME_ORDRE = 1,
          MAILLE = 'S41',  NOEUD = 'C1',  NOM_CMP = 'SIXY',  VALE = 31.831,
          PRECISION = 1.E-6,   CRITERE = 'RELATIF', REFERENCE = 'ANALYTIQUE'))
          )

#
# ------ EFFORT TRANCHANT GZ : -----------------------------------------


CHARG3=AFFE_CHAR_MECA(  MODELE=MO,
           DDL_IMPO=_F( GROUP_NO = 'A', DX = 0., DY = 0., DZ = 0., DRX = 0., DRY = 0., DRZ = 0.),
           FORCE_NODALE=_F( GROUP_NO = 'B',   FX = -4.0824829046E-01,
                                       FY = -4.0824829046E-01,
                                       FZ = 8.1649658093E-01)   )

MEST3=MECA_STATIQUE(        MODELE=MO,    CHAM_MATER=CHMAT,
            CARA_ELEM=CAREL, EXCIT=_F( CHARGE = CHARG3)   )

TEST_RESU(RESU=(

 # SECTION RECTANGLE
   _F( RESULTAT = MEST3, NOM_CHAM = 'DEPL', NUME_ORDRE = 1,
NOEUD = 'N3', NOM_CMP = 'DX', VALE = -3.2659864E-07,
                                    PRECISION = 1.E-13, CRITERE = 'ABSOLU', REFERENCE = 'ANALYTIQUE'),
   _F( RESULTAT = MEST3, NOM_CHAM = 'DEPL', NUME_ORDRE = 1,
NOEUD = 'N3', NOM_CMP = 'DY', VALE = -3.2659864E-07,
                                    PRECISION = 1.E-13, CRITERE = 'ABSOLU', REFERENCE = 'ANALYTIQUE'),
   _F( RESULTAT = MEST3, NOM_CHAM = 'DEPL', NUME_ORDRE = 1,
NOEUD = 'N3', NOM_CMP = 'DZ', VALE = 6.5319728E-07,
                                     PRECISION = 1.E-6, CRITERE = 'RELATIF', REFERENCE = 'ANALYTIQUE'),

   _F( RESULTAT = MEST3, NOM_CHAM = 'DEPL', NUME_ORDRE = 1,
NOEUD = 'N3', NOM_CMP = 'DRX', VALE = 4.2426407E-07,
                                     PRECISION = 1.E-13, CRITERE = 'ABSOLU', REFERENCE = 'ANALYTIQUE'),
   _F( RESULTAT = MEST3, NOM_CHAM = 'DEPL', NUME_ORDRE = 1,
NOEUD = 'N3', NOM_CMP = 'DRY', VALE = -4.2426407E-07,
                                     PRECISION = 1.E-6, CRITERE = 'RELATIF', REFERENCE = 'ANALYTIQUE'),
   _F( RESULTAT = MEST3, NOM_CHAM = 'DEPL', NUME_ORDRE = 1,
NOEUD = 'N3', NOM_CMP = 'DRZ', VALE = 0.0,      PRECISION = 1.E-13, CRITERE = 'ABSOLU', REFERENCE = 'ANALYTIQUE'),

# SECTION CORNIERE
   _F( RESULTAT = MEST3, NOM_CHAM = 'DEPL', NUME_ORDRE = 1,
NOEUD = 'M3', NOM_CMP = 'DX', VALE = -4.6396084E-07,
                                     PRECISION = 1.E-13, CRITERE = 'ABSOLU', REFERENCE = 'ANALYTIQUE'),
   _F( RESULTAT = MEST3, NOM_CHAM = 'DEPL', NUME_ORDRE = 1,
NOEUD = 'M3', NOM_CMP = 'DY', VALE = -4.6396084E-07,
                                    PRECISION = 1.E-13, CRITERE = 'ABSOLU', REFERENCE = 'ANALYTIQUE'),
   _F( RESULTAT = MEST3, NOM_CHAM = 'DEPL', NUME_ORDRE = 1,
NOEUD = 'M3', NOM_CMP = 'DZ', VALE = 9.2792169E-07,
                                    PRECISION = 1.E-6, CRITERE = 'RELATIF', REFERENCE = 'ANALYTIQUE'),
   _F( RESULTAT = MEST3, NOM_CHAM = 'DEPL', NUME_ORDRE = 1,
NOEUD = 'M3', NOM_CMP = 'DRX', VALE = 1.5565282505E-05,
                                    PRECISION = 1.E-6, CRITERE = 'RELATIF', REFERENCE = 'ANALYTIQUE'),
   _F( RESULTAT = MEST3, NOM_CHAM = 'DEPL', NUME_ORDRE = 1,
NOEUD = 'M3', NOM_CMP = 'DRY', VALE = 1.5531346857E-05,
                                    PRECISION = 1.E-6, CRITERE = 'RELATIF', REFERENCE = 'ANALYTIQUE'),
   _F( RESULTAT = MEST3, NOM_CHAM = 'DEPL', NUME_ORDRE = 1,
NOEUD = 'M3', NOM_CMP = 'DRZ', VALE = 1.5548314681E-05,
                                    PRECISION = 1.E-13, CRITERE = 'ABSOLU', REFERENCE = 'ANALYTIQUE'),

# SECTION CERCLE
   _F( RESULTAT = MEST3, NOM_CHAM = 'DEPL', NUME_ORDRE = 1,
NOEUD = 'C3', NOM_CMP = 'DX', VALE = -6.9306381E-08,
                                    PRECISION = 1.E-13, CRITERE = 'ABSOLU', REFERENCE = 'ANALYTIQUE'),
   _F( RESULTAT = MEST3, NOM_CHAM = 'DEPL', NUME_ORDRE = 1,
NOEUD = 'C3', NOM_CMP = 'DY', VALE = -6.9306381E-08,
                                    PRECISION = 1.E-13, CRITERE = 'ABSOLU', REFERENCE = 'ANALYTIQUE'),
   _F( RESULTAT = MEST3, NOM_CHAM = 'DEPL', NUME_ORDRE = 1,
NOEUD = 'C3', NOM_CMP = 'DZ', VALE = 1.3861276E-07,
                                    PRECISION = 1.E-6, CRITERE = 'RELATIF', REFERENCE = 'ANALYTIQUE'),
   _F( RESULTAT = MEST3, NOM_CHAM = 'DEPL', NUME_ORDRE = 1,
NOEUD = 'C3', NOM_CMP = 'DRX', VALE = 9.0031619E-08,
                                    PRECISION = 1.E-13, CRITERE = 'ABSOLU', REFERENCE = 'ANALYTIQUE'),
   _F( RESULTAT = MEST3, NOM_CHAM = 'DEPL', NUME_ORDRE = 1,
NOEUD = 'C3', NOM_CMP = 'DRY', VALE = -9.0031619E-08,
                                    PRECISION = 1.E-6, CRITERE = 'RELATIF', REFERENCE = 'ANALYTIQUE'),
   _F( RESULTAT = MEST3, NOM_CHAM = 'DEPL', NUME_ORDRE = 1,
NOEUD = 'C3', NOM_CMP = 'DRZ', VALE = 0.0,     PRECISION = 1.E-13, CRITERE = 'ABSOLU', REFERENCE = 'ANALYTIQUE'))
            )

CALC_ELEM( reuse=MEST3,
                      RESULTAT=MEST3, EXCIT=_F( CHARGE = CHARG3),
                      OPTION=('EFGE_ELNO_DEPL', 'SIGM_ELNO_DEPL',))

TEST_RESU(RESU=(


_F( RESULTAT = MEST3, NOM_CHAM = 'EFGE_ELNO_DEPL', NUME_ORDRE = 1, NOM_CMP = 'VZ',
MAILLE = 'S11', NOEUD = 'N1', VALE = 1.,        PRECISION = 1.E-6, CRITERE = 'RELATIF', REFERENCE = 'ANALYTIQUE'),

# SECTION RECTANGLE MOT_CLE GENERALE

_F( RESULTAT = MEST3, NOM_CHAM = 'SIGM_ELNO_DEPL', NUME_ORDRE = 1, NOM_CMP = 'SIXX',
MAILLE = 'S11', NOEUD = 'N1', VALE = -6000.,    PRECISION = 1.E-6, CRITERE = 'RELATIF', REFERENCE = 'ANALYTIQUE'),

_F( RESULTAT = MEST3, NOM_CHAM = 'SIGM_ELNO_DEPL', NUME_ORDRE = 1, NOM_CMP = 'SIXZ',
MAILLE = 'S11', NOEUD = 'N1', VALE = 50.,       PRECISION = 1.E-6, CRITERE = 'RELATIF', REFERENCE = 'ANALYTIQUE'),

# SECTION RECTANGLE MOT_CLE RECTANGLE
#ESU:
#RESULTAT: MEST3 NOM_CHAM:'SIGM_ELNO_DEPL' NUME_ORDRE:1 NOM_CMP:'SIXX'
#AILLE : S31 NOEUD:R1 VALE:6000.     PRECISION:1.D-6 CRITERE:'RELATIF', REFERENCE = 'ANALYTIQUE')

_F( RESULTAT = MEST3, NOM_CHAM = 'SIGM_ELNO_DEPL', NUME_ORDRE = 1, NOM_CMP = 'SIXZ',
MAILLE = 'S31', NOEUD = 'R1', VALE = 50.,       PRECISION = 1.E-6, CRITERE = 'RELATIF', REFERENCE = 'ANALYTIQUE'),

# SECTION CERCLE MOT_CLE CERCLE
#ESU:
#RESULTAT: MEST3 NOM_CHAM:'SIGM_ELNO_DEPL' NUME_ORDRE:1 NOM_CMP:'SIXX'
#AILLE : S41 NOEUD:C1 VALE:2546.479  PRECISION:1.D-6 CRITERE:'RELATIF', REFERENCE = 'ANALYTIQUE')

_F( RESULTAT = MEST3, NOM_CHAM = 'SIGM_ELNO_DEPL', NUME_ORDRE = 1, NOM_CMP = 'SIXZ',
MAILLE = 'S41', NOEUD = 'C1', VALE = 31.831,    PRECISION = 1.E-6, CRITERE = 'RELATIF', REFERENCE = 'ANALYTIQUE'))
            )

#
# ------ TORSION GX : --------------------------------------------------


CHARG4=AFFE_CHAR_MECA(  MODELE=MO,
     DDL_IMPO=_F( GROUP_NO = 'A', DX = 0., DY = 0., DZ = 0., DRX = 0., DRY = 0., DRZ = 0.),
        FORCE_NODALE=_F( GROUP_NO = 'B',  MX = 5.7735026919E-01,
                                   MY = 5.7735026919E-01,
                                   MZ = 5.7735026919E-01)   )

MEST4=MECA_STATIQUE(        MODELE=MO,    CHAM_MATER=CHMAT,
            CARA_ELEM=CAREL, EXCIT=_F( CHARGE = CHARG4)   )

TEST_RESU(RESU=(

 # SECTION RECTANGLE
   _F( RESULTAT = MEST4, NOM_CHAM = 'DEPL', NUME_ORDRE = 1,
NOEUD = 'N3', NOM_CMP = 'DX', VALE = 0.0,       PRECISION = 1.E-13, CRITERE = 'ABSOLU', REFERENCE = 'ANALYTIQUE'),
   _F( RESULTAT = MEST4, NOM_CHAM = 'DEPL', NUME_ORDRE = 1,
NOEUD = 'N3', NOM_CMP = 'DY', VALE = 0.0,       PRECISION = 1.E-13, CRITERE = 'ABSOLU', REFERENCE = 'ANALYTIQUE'),
   _F( RESULTAT = MEST4, NOM_CHAM = 'DEPL', NUME_ORDRE = 1,
NOEUD = 'N3', NOM_CMP = 'DZ', VALE = 0.0,       PRECISION = 1.E-13, CRITERE = 'ABSOLU', REFERENCE = 'ANALYTIQUE'),
   _F( RESULTAT = MEST4, NOM_CHAM = 'DEPL', NUME_ORDRE = 1,
NOEUD = 'N3', NOM_CMP = 'DRX', VALE = 3.2792525E-07,
                                     PRECISION = 1.E-6, CRITERE = 'RELATIF', REFERENCE = 'ANALYTIQUE'),
   _F( RESULTAT = MEST4, NOM_CHAM = 'DEPL', NUME_ORDRE = 1,
NOEUD = 'N3', NOM_CMP = 'DRY', VALE = 3.2792525E-07,
                                     PRECISION = 1.E-13, CRITERE = 'ABSOLU', REFERENCE = 'ANALYTIQUE'),
   _F( RESULTAT = MEST4, NOM_CHAM = 'DEPL', NUME_ORDRE = 1,
NOEUD = 'N3', NOM_CMP = 'DRZ', VALE = 3.2792525E-07,
                                     PRECISION = 1.E-13, CRITERE = 'ABSOLU', REFERENCE = 'ANALYTIQUE'),

# SECTION CORNIERE
   _F( RESULTAT = MEST4, NOM_CHAM = 'DEPL', NUME_ORDRE = 1,
NOEUD = 'M3', NOM_CMP = 'DX', VALE = -1.0994318747E-05,
                                     PRECISION = 1.E-13, CRITERE = 'ABSOLU', REFERENCE = 'ANALYTIQUE'),
   _F( RESULTAT = MEST4, NOM_CHAM = 'DEPL', NUME_ORDRE = 1,
NOEUD = 'M3', NOM_CMP = 'DY', VALE = -1.0994318747E-05,
                                     PRECISION = 1.E-13, CRITERE = 'ABSOLU', REFERENCE = 'ANALYTIQUE'),
   _F( RESULTAT = MEST4, NOM_CHAM = 'DEPL', NUME_ORDRE = 1,
NOEUD = 'M3', NOM_CMP = 'DZ', VALE = 2.1988637494E-05,
                                     PRECISION = 1.E-6, CRITERE = 'RELATIF', REFERENCE = 'ANALYTIQUE'),
   _F( RESULTAT = MEST4, NOM_CHAM = 'DEPL', NUME_ORDRE = 1,
NOEUD = 'M3', NOM_CMP = 'DRX', VALE = 3.7911618824E-04,
                                     PRECISION = 1.E-6, CRITERE = 'RELATIF', REFERENCE = 'ANALYTIQUE'),
   _F( RESULTAT = MEST4, NOM_CHAM = 'DEPL', NUME_ORDRE = 1,
NOEUD = 'M3', NOM_CMP = 'DRY', VALE = 3.7911618824E-04,
                                     PRECISION = 1.E-6, CRITERE = 'RELATIF', REFERENCE = 'ANALYTIQUE'),
   _F( RESULTAT = MEST4, NOM_CHAM = 'DEPL', NUME_ORDRE = 1,
NOEUD = 'M3', NOM_CMP = 'DRZ', VALE = 3.7911618824E-04,
                                     PRECISION = 1.E-6, CRITERE = 'RELATIF', REFERENCE = 'ANALYTIQUE'),
# SECTION CERCLE
   _F( RESULTAT = MEST4, NOM_CHAM = 'DEPL', NUME_ORDRE = 1,
NOEUD = 'C3', NOM_CMP = 'DX', VALE = 0.0,       PRECISION = 1.E-13, CRITERE = 'ABSOLU', REFERENCE = 'ANALYTIQUE'),
   _F( RESULTAT = MEST4, NOM_CHAM = 'DEPL', NUME_ORDRE = 1,
NOEUD = 'C3', NOM_CMP = 'DY', VALE = 0.0,       PRECISION = 1.E-13, CRITERE = 'ABSOLU', REFERENCE = 'ANALYTIQUE'),
   _F( RESULTAT = MEST4, NOM_CHAM = 'DEPL', NUME_ORDRE = 1,
NOEUD = 'C3', NOM_CMP = 'DZ', VALE = 0.0,       PRECISION = 1.E-13, CRITERE = 'ABSOLU', REFERENCE = 'ANALYTIQUE'),
   _F( RESULTAT = MEST4, NOM_CHAM = 'DEPL', NUME_ORDRE = 1,
NOEUD = 'C3', NOM_CMP = 'DRX', VALE = 9.5563593E-08,
                                     PRECISION = 1.E-6, CRITERE = 'RELATIF', REFERENCE = 'ANALYTIQUE'),
   _F( RESULTAT = MEST4, NOM_CHAM = 'DEPL', NUME_ORDRE = 1,
NOEUD = 'C3', NOM_CMP = 'DRY', VALE = 9.5563593E-08,
                                     PRECISION = 1.E-13, CRITERE = 'ABSOLU', REFERENCE = 'ANALYTIQUE'),
   _F( RESULTAT = MEST4, NOM_CHAM = 'DEPL', NUME_ORDRE = 1,
NOEUD = 'C3', NOM_CMP = 'DRZ', VALE = 9.5563593E-08,
                                     PRECISION = 1.E-13, CRITERE = 'ABSOLU', REFERENCE = 'ANALYTIQUE'))
            )

CALC_ELEM( reuse=MEST4,
                      RESULTAT=MEST4, EXCIT=_F( CHARGE = CHARG4),
                      OPTION=('EFGE_ELNO_DEPL', 'SIGM_ELNO_DEPL',))

TEST_RESU(RESU=(


_F( RESULTAT = MEST4, NOM_CHAM = 'EFGE_ELNO_DEPL', NUME_ORDRE = 1, NOM_CMP = 'MT',
MAILLE = 'S11', NOEUD = 'N1', VALE = 1.,        PRECISION = 1.E-6, CRITERE = 'RELATIF', REFERENCE = 'ANALYTIQUE'),

# SECTION RECTANGLE MOT_CLE GENERALE

_F( RESULTAT = MEST4, NOM_CHAM = 'SIGM_ELNO_DEPL', NUME_ORDRE = 1, NOM_CMP = 'SIXY',
MAILLE = 'S11', NOEUD = 'N1', VALE = 1950.00,   PRECISION = 1.E-6, CRITERE = 'RELATIF', REFERENCE = 'ANALYTIQUE'),

_F( RESULTAT = MEST4, NOM_CHAM = 'SIGM_ELNO_DEPL', NUME_ORDRE = 1, NOM_CMP = 'SIXZ',
MAILLE = 'S11', NOEUD = 'N1', VALE = 1950.00,   PRECISION = 1.E-6, CRITERE = 'RELATIF', REFERENCE = 'ANALYTIQUE'),

# SECTION RECTANGLE MOT_CLE RECTANGLE

_F( RESULTAT = MEST4, NOM_CHAM = 'SIGM_ELNO_DEPL', NUME_ORDRE = 1, NOM_CMP = 'SIXY',
MAILLE = 'S31', NOEUD = 'R1', VALE = 1950.00,   PRECISION = 1.E-6, CRITERE = 'RELATIF', REFERENCE = 'ANALYTIQUE'),

_F( RESULTAT = MEST4, NOM_CHAM = 'SIGM_ELNO_DEPL', NUME_ORDRE = 1, NOM_CMP = 'SIXZ',
MAILLE = 'S31', NOEUD = 'R1', VALE = 1950.00,   PRECISION = 1.E-6, CRITERE = 'RELATIF', REFERENCE = 'ANALYTIQUE'),

# SECTION CERCLE MOT_CLE CERCLE

_F( RESULTAT = MEST4, NOM_CHAM = 'SIGM_ELNO_DEPL', NUME_ORDRE = 1, NOM_CMP = 'SIXY',
MAILLE = 'S41', NOEUD = 'C1', VALE = 636.62,    PRECISION = 1.E-6, CRITERE = 'RELATIF', REFERENCE = 'ANALYTIQUE'),

_F( RESULTAT = MEST4, NOM_CHAM = 'SIGM_ELNO_DEPL', NUME_ORDRE = 1, NOM_CMP = 'SIXZ',
MAILLE = 'S41', NOEUD = 'C1', VALE = 636.62,    PRECISION = 1.E-6, CRITERE = 'RELATIF', REFERENCE = 'ANALYTIQUE'))
            )

#
# ------ FLEXION GY : --------------------------------------------------


CHARG5=AFFE_CHAR_MECA(  MODELE=MO,
     DDL_IMPO=_F( GROUP_NO = 'A', DX = 0., DY = 0., DZ = 0., DRX = 0., DRY = 0., DRZ = 0.),
     FORCE_NODALE=_F( GROUP_NO = 'B',  MX = -7.0710677E-01,
                                MY = 7.0710677E-01)   )

MEST5=MECA_STATIQUE(        MODELE=MO,    CHAM_MATER=CHMAT,
            CARA_ELEM=CAREL, EXCIT=_F( CHARGE = CHARG5)   )

TEST_RESU(RESU=(

# SECTION RECTANGLE
   _F( RESULTAT = MEST5, NOM_CHAM = 'DEPL', NUME_ORDRE = 1,
NOEUD = 'N3', NOM_CMP = 'DX', VALE = 2.4494898E-07,
                                    PRECISION = 1.E-13, CRITERE = 'ABSOLU', REFERENCE = 'ANALYTIQUE'),
   _F( RESULTAT = MEST5, NOM_CHAM = 'DEPL', NUME_ORDRE = 1,
NOEUD = 'N3', NOM_CMP = 'DY', VALE = 2.4494898E-07,
                                    PRECISION = 1.E-13, CRITERE = 'ABSOLU', REFERENCE = 'ANALYTIQUE'),
   _F( RESULTAT = MEST5, NOM_CHAM = 'DEPL', NUME_ORDRE = 1,
NOEUD = 'N3', NOM_CMP = 'DZ', VALE = -4.8989796E-07,
                                    PRECISION = 1.E-6, CRITERE = 'RELATIF', REFERENCE = 'ANALYTIQUE'),
   _F( RESULTAT = MEST5, NOM_CHAM = 'DEPL', NUME_ORDRE = 1,
NOEUD = 'N3', NOM_CMP = 'DRX', VALE = -4.2426407E-07,
                                    PRECISION = 1.E-13, CRITERE = 'ABSOLU', REFERENCE = 'ANALYTIQUE'),
   _F( RESULTAT = MEST5, NOM_CHAM = 'DEPL', NUME_ORDRE = 1,
NOEUD = 'N3', NOM_CMP = 'DRY', VALE = 4.2426407E-07,
                                    PRECISION = 1.E-6, CRITERE = 'RELATIF', REFERENCE = 'ANALYTIQUE'),
   _F( RESULTAT = MEST5, NOM_CHAM = 'DEPL', NUME_ORDRE = 1,
NOEUD = 'N3', NOM_CMP = 'DRZ', VALE = 0.0,     PRECISION = 1.E-13, CRITERE = 'ABSOLU', REFERENCE = 'ANALYTIQUE'),

# SECTION CORNIERE
   _F( RESULTAT = MEST5, NOM_CHAM = 'DEPL', NUME_ORDRE = 1,
NOEUD = 'M3', NOM_CMP = 'DX', VALE = 9.7963788E-09,
                                    PRECISION = 1.E-13, CRITERE = 'ABSOLU', REFERENCE = 'ANALYTIQUE'),
   _F( RESULTAT = MEST5, NOM_CHAM = 'DEPL', NUME_ORDRE = 1,
NOEUD = 'M3', NOM_CMP = 'DY', VALE = 9.7963788E-09,
                                    PRECISION = 1.E-13, CRITERE = 'ABSOLU', REFERENCE = 'ANALYTIQUE'),
   _F( RESULTAT = MEST5, NOM_CHAM = 'DEPL', NUME_ORDRE = 1,
NOEUD = 'M3', NOM_CMP = 'DZ', VALE = -1.9592758E-08,
                                    PRECISION = 1.E-6, CRITERE = 'RELATIF', REFERENCE = 'ANALYTIQUE'),
   _F( RESULTAT = MEST5, NOM_CHAM = 'DEPL', NUME_ORDRE = 1,
NOEUD = 'M3', NOM_CMP = 'DRX', VALE = -1.6967824E-08,
                                    PRECISION = 1.E-13, CRITERE = 'ABSOLU', REFERENCE = 'ANALYTIQUE'),
   _F( RESULTAT = MEST5, NOM_CHAM = 'DEPL', NUME_ORDRE = 1,
NOEUD = 'M3', NOM_CMP = 'DRY', VALE = 1.6967824E-08,
                                    PRECISION = 1.E-6, CRITERE = 'RELATIF', REFERENCE = 'ANALYTIQUE'),
   _F( RESULTAT = MEST5, NOM_CHAM = 'DEPL', NUME_ORDRE = 1,
NOEUD = 'M3', NOM_CMP = 'DRZ', VALE = 0.0,     PRECISION = 1.E-13, CRITERE = 'ABSOLU', REFERENCE = 'ANALYTIQUE'),

# SECTION CERCLE
   _F( RESULTAT = MEST5, NOM_CHAM = 'DEPL', NUME_ORDRE = 1,
NOEUD = 'C3', NOM_CMP = 'DX', VALE = 5.1979786E-08,
                                    PRECISION = 1.E-13, CRITERE = 'ABSOLU', REFERENCE = 'ANALYTIQUE'),
   _F( RESULTAT = MEST5, NOM_CHAM = 'DEPL', NUME_ORDRE = 1,
NOEUD = 'C3', NOM_CMP = 'DY', VALE = 5.1979786E-08,
                                    PRECISION = 1.E-13, CRITERE = 'ABSOLU', REFERENCE = 'ANALYTIQUE'),
   _F( RESULTAT = MEST5, NOM_CHAM = 'DEPL', NUME_ORDRE = 1,
NOEUD = 'C3', NOM_CMP = 'DZ', VALE = -1.0395957E-07,
                                    PRECISION = 1.E-6, CRITERE = 'RELATIF', REFERENCE = 'ANALYTIQUE'),
   _F( RESULTAT = MEST5, NOM_CHAM = 'DEPL', NUME_ORDRE = 1,
NOEUD = 'C3', NOM_CMP = 'DRX', VALE = -9.0031619E-08,
                                    PRECISION = 1.E-13, CRITERE = 'ABSOLU', REFERENCE = 'ANALYTIQUE'),
   _F( RESULTAT = MEST5, NOM_CHAM = 'DEPL', NUME_ORDRE = 1,
NOEUD = 'C3', NOM_CMP = 'DRY', VALE = 9.0031619E-08,
                                    PRECISION = 1.E-6, CRITERE = 'RELATIF', REFERENCE = 'ANALYTIQUE'),
   _F( RESULTAT = MEST5, NOM_CHAM = 'DEPL', NUME_ORDRE = 1,
NOEUD = 'C3', NOM_CMP = 'DRZ', VALE = 0.0,     PRECISION = 1.E-13, CRITERE = 'ABSOLU', REFERENCE = 'ANALYTIQUE'))
            )

CALC_ELEM( reuse=MEST5,
                      RESULTAT=MEST5, EXCIT=_F( CHARGE = CHARG5),
                      OPTION=('EFGE_ELNO_DEPL', 'SIGM_ELNO_DEPL',))

TEST_RESU(RESU=(
   _F(  RESULTAT = MEST5, NOM_CHAM = 'EFGE_ELNO_DEPL', NUME_ORDRE = 1,
          MAILLE = 'S11',  NOEUD = 'N1',  NOM_CMP = 'MFY',  VALE = 1.,
          PRECISION = 1.E-6,   CRITERE = 'RELATIF', REFERENCE = 'ANALYTIQUE'),

# SECTION RECTANGLE MOT_CLE GENERALE
   _F(  RESULTAT = MEST5, NOM_CHAM = 'SIGM_ELNO_DEPL', NUME_ORDRE = 1,
          MAILLE = 'S11',  NOEUD = 'N1',  NOM_CMP = 'SIXX',  VALE = 3000.,
          PRECISION = 1.E-6,   CRITERE = 'RELATIF', REFERENCE = 'ANALYTIQUE'))

# SECTION RECTANGLE MOT_CLE RECTANGLE
#   RESU:( RESULTAT: MEST5 NOM_CHAM:'SIGM_ELNO_DEPL' NUME_ORDRE:1
#          MAILLE: S31  NOEUD:R1  NOM_CMP:'SIXX'  VALE:3000.
#          PRECISION:1.D-6   CRITERE:'RELATIF', REFERENCE = 'ANALYTIQUE')

# SECTION CERCLE MOT_CLE CERCLE
#  RESU:( RESULTAT: MEST5 NOM_CHAM:'SIGM_ELNO_DEPL' NUME_ORDRE:1
#         MAILLE: S41  NOEUD:C1  NOM_CMP:'SIXX'  VALE:1273.2395
#         PRECISION:1.D-6   CRITERE:'RELATIF', REFERENCE = 'ANALYTIQUE')
            )

#
# ------ FLEXION GZ : --------------------------------------------------

CHARG6=AFFE_CHAR_MECA(  MODELE=MO,
     DDL_IMPO=_F( GROUP_NO = 'A', DX = 0., DY = 0., DZ = 0., DRX = 0., DRY = 0., DRZ = 0.),
     FORCE_NODALE=_F( GROUP_NO = 'B',  MX = -4.0824829046E-01,
                                MY = -4.0824829046E-01,
                                MZ = 8.1649658093E-01)   )

MEST6=MECA_STATIQUE(        MODELE=MO,    CHAM_MATER=CHMAT,
            CARA_ELEM=CAREL, EXCIT=_F( CHARGE = CHARG6)   )

TEST_RESU(RESU=(

# SECTION RECTANGLE
   _F( RESULTAT = MEST6, NOM_CHAM = 'DEPL', NUME_ORDRE = 1,
NOEUD = 'N3', NOM_CMP = 'DX', VALE = -1.0606602E-07,
                                    PRECISION = 1.E-13, CRITERE = 'ABSOLU', REFERENCE = 'ANALYTIQUE'),
   _F( RESULTAT = MEST6, NOM_CHAM = 'DEPL', NUME_ORDRE = 1,
NOEUD = 'N3', NOM_CMP = 'DY', VALE = 1.0606602E-07,
                                    PRECISION = 1.E-6, CRITERE = 'RELATIF', REFERENCE = 'ANALYTIQUE'),
   _F( RESULTAT = MEST6, NOM_CHAM = 'DEPL', NUME_ORDRE = 1,
NOEUD = 'N3', NOM_CMP = 'DZ', VALE = 0.0,       PRECISION = 1.E-13, CRITERE = 'ABSOLU', REFERENCE = 'ANALYTIQUE'),
   _F( RESULTAT = MEST6, NOM_CHAM = 'DEPL', NUME_ORDRE = 1,
NOEUD = 'N3', NOM_CMP = 'DRX', VALE = -6.1237245E-08,
                                    PRECISION = 1.E-13, CRITERE = 'ABSOLU', REFERENCE = 'ANALYTIQUE'),
   _F( RESULTAT = MEST6, NOM_CHAM = 'DEPL', NUME_ORDRE = 1,
NOEUD = 'N3', NOM_CMP = 'DRY', VALE = -6.1237245E-08,
                                    PRECISION = 1.E-13, CRITERE = 'ABSOLU', REFERENCE = 'ANALYTIQUE'),
   _F( RESULTAT = MEST6, NOM_CHAM = 'DEPL', NUME_ORDRE = 1,
NOEUD = 'N3', NOM_CMP = 'DRZ', VALE = 1.2247449E-07,
                                    PRECISION = 1.E-6, CRITERE = 'RELATIF', REFERENCE = 'ANALYTIQUE'),
# SECTION CORNIERE
   _F( RESULTAT = MEST6, NOM_CHAM = 'DEPL', NUME_ORDRE = 1,
NOEUD = 'M3', NOM_CMP = 'DX', VALE = -6.7630319454E-08,
                                    PRECISION = 1.E-13, CRITERE = 'ABSOLU', REFERENCE = 'ANALYTIQUE'),
   _F( RESULTAT = MEST6, NOM_CHAM = 'DEPL', NUME_ORDRE = 1,
NOEUD = 'M3', NOM_CMP = 'DY', VALE = 6.7630319454E-08,
                                     PRECISION = 1.E-6, CRITERE = 'RELATIF', REFERENCE = 'ANALYTIQUE'),
   _F( RESULTAT = MEST6, NOM_CHAM = 'DEPL', NUME_ORDRE = 1,
NOEUD = 'M3', NOM_CMP = 'DZ', VALE = 0.0E0,     PRECISION = 1.E-13, CRITERE = 'ABSOLU', REFERENCE = 'ANALYTIQUE'),
   _F( RESULTAT = MEST6, NOM_CHAM = 'DEPL', NUME_ORDRE = 1,
NOEUD = 'M3', NOM_CMP = 'DRX', VALE = -3.9046383142E-08,
                                     PRECISION = 1.E-13, CRITERE = 'ABSOLU', REFERENCE = 'ANALYTIQUE'),
   _F( RESULTAT = MEST6, NOM_CHAM = 'DEPL', NUME_ORDRE = 1,
NOEUD = 'M3', NOM_CMP = 'DRY', VALE = -3.9046383142E-08,
                                     PRECISION = 1.E-13, CRITERE = 'ABSOLU', REFERENCE = 'ANALYTIQUE'),
   _F( RESULTAT = MEST6, NOM_CHAM = 'DEPL', NUME_ORDRE = 1,
NOEUD = 'M3', NOM_CMP = 'DRZ', VALE = 7.8092766285E-08,
                                     PRECISION = 1.E-6, CRITERE = 'RELATIF', REFERENCE = 'ANALYTIQUE'),

# SECTION CERCLE
   _F( RESULTAT = MEST6, NOM_CHAM = 'DEPL', NUME_ORDRE = 1,
NOEUD = 'C3', NOM_CMP = 'DX', VALE = -9.0031619E-08,
                                     PRECISION = 1.E-13, CRITERE = 'ABSOLU', REFERENCE = 'ANALYTIQUE'),
   _F( RESULTAT = MEST6, NOM_CHAM = 'DEPL', NUME_ORDRE = 1,
NOEUD = 'C3', NOM_CMP = 'DY', VALE = 9.0031619E-08,
                                     PRECISION = 1.E-6, CRITERE = 'RELATIF', REFERENCE = 'ANALYTIQUE'),
   _F( RESULTAT = MEST6, NOM_CHAM = 'DEPL', NUME_ORDRE = 1,
NOEUD = 'C3', NOM_CMP = 'DZ', VALE = 0.0,       PRECISION = 1.E-13, CRITERE = 'ABSOLU', REFERENCE = 'ANALYTIQUE'),
   _F( RESULTAT = MEST6, NOM_CHAM = 'DEPL', NUME_ORDRE = 1,
NOEUD = 'C3', NOM_CMP = 'DRX', VALE = -5.1979786E-08,
                                     PRECISION = 1.E-13, CRITERE = 'ABSOLU', REFERENCE = 'ANALYTIQUE'),
   _F( RESULTAT = MEST6, NOM_CHAM = 'DEPL', NUME_ORDRE = 1,
NOEUD = 'C3', NOM_CMP = 'DRY', VALE = -5.1979786E-08,
                                     PRECISION = 1.E-13, CRITERE = 'ABSOLU', REFERENCE = 'ANALYTIQUE'),
   _F( RESULTAT = MEST6, NOM_CHAM = 'DEPL', NUME_ORDRE = 1,
NOEUD = 'C3', NOM_CMP = 'DRZ', VALE = 1.0395957E-07,
                                     PRECISION = 1.E-6, CRITERE = 'RELATIF', REFERENCE = 'ANALYTIQUE'))
            )

CALC_ELEM( reuse=MEST6,
                      RESULTAT=MEST6, EXCIT=_F( CHARGE = CHARG6),
                      OPTION=('EFGE_ELNO_DEPL', 'SIGM_ELNO_DEPL',))

TEST_RESU(RESU=(
   _F(  RESULTAT = MEST6, NOM_CHAM = 'EFGE_ELNO_DEPL', NUME_ORDRE = 1,
          MAILLE = 'S11',  NOEUD = 'N1',  NOM_CMP = 'MFZ',  VALE = 1.,
          PRECISION = 1.E-6,   CRITERE = 'RELATIF', REFERENCE = 'ANALYTIQUE'),

# SECTION RECTANGLE MOT_CLE GENERALE
   _F(  RESULTAT = MEST6, NOM_CHAM = 'SIGM_ELNO_DEPL', NUME_ORDRE = 1,
          MAILLE = 'S11',  NOEUD = 'N1',  NOM_CMP = 'SIXX',  VALE = -1500.,
          PRECISION = 1.E-6, CRITERE = 'RELATIF', REFERENCE = 'ANALYTIQUE'))

# SECTION RECTANGLE MOT_CLE RECTANGLE
#  RESU:( RESULTAT: MEST6 NOM_CHAM:'SIGM_ELNO_DEPL' NUME_ORDRE:1
#         MAILLE: S31  NOEUD:R1  NOM_CMP:'SIXX'  VALE:1500.
#         PRECISION:1.D-6   CRITERE:'RELATIF'            )

# SECTION CERCLE MOT_CLE CERCLE
#   RESU:( RESULTAT: MEST6 NOM_CHAM:'SIGM_ELNO_DEPL' NUME_ORDRE:1
#          MAILLE: S41  NOEUD:C1  NOM_CMP:'SIXX'  VALE:1273.2395
#          PRECISION:1.D-6   CRITERE:'RELATIF'            )
            )

# ------ FLEXIONS GY + GZ + EFFORT NORMAL GX : -------------------------

CHARG7=AFFE_CHAR_MECA(  MODELE=MO,
     DDL_IMPO=_F( GROUP_NO = 'A', DX = 0., DY = 0., DZ = 0., DRX = 0., DRY = 0., DRZ = 0.),FORCE_NODALE=(
     _F( GROUP_NO = 'B',  MX = -7.0710678119E-01,
                                MY = 7.0710678119E-01),
     _F( GROUP_NO = 'B',  MX = -1.1153550717E+00,
                                MY = 2.9885849073E-01,
                                MZ = 8.1649658093E-01),
     _F( GROUP_NO = 'B',  FX = 5.7735026919E-01,
                                FY = 5.7735026919E-01,
                                FZ = 5.7735026919E-01))   )

MEST7=MECA_STATIQUE(        MODELE=MO,    CHAM_MATER=CHMAT,
            CARA_ELEM=CAREL, EXCIT=_F( CHARGE = CHARG7)   )

CALC_ELEM( reuse=MEST7,
                      RESULTAT=MEST7, EXCIT=_F( CHARGE = CHARG7),
                      OPTION=('EFGE_ELNO_DEPL', 'SIGM_ELNO_DEPL',))

TEST_RESU(RESU=(

_F( RESULTAT = MEST7, NOM_CHAM = 'EFGE_ELNO_DEPL', NUME_ORDRE = 1, NOM_CMP = 'N',
MAILLE = 'S11', NOEUD = 'N1', VALE = 1.,        PRECISION = 1.E-6, CRITERE = 'RELATIF', REFERENCE = 'ANALYTIQUE'),

_F( RESULTAT = MEST7, NOM_CHAM = 'EFGE_ELNO_DEPL', NUME_ORDRE = 1, NOM_CMP = 'MFY',
MAILLE = 'S11', NOEUD = 'N1', VALE = 1.,        PRECISION = 1.E-6, CRITERE = 'RELATIF', REFERENCE = 'ANALYTIQUE'),

_F( RESULTAT = MEST7, NOM_CHAM = 'EFGE_ELNO_DEPL', NUME_ORDRE = 1, NOM_CMP = 'MFZ',
MAILLE = 'S11', NOEUD = 'N1', VALE = 1.,        PRECISION = 1.E-6, CRITERE = 'RELATIF', REFERENCE = 'ANALYTIQUE'),

# SECTION RECTANGLE MOT_CLE GENERALE

_F( RESULTAT = MEST7, NOM_CHAM = 'SIGM_ELNO_DEPL', NUME_ORDRE = 1, NOM_CMP = 'SIXX',
MAILLE = 'S11', NOEUD = 'N1', VALE = 1550.,     PRECISION = 1.E-6, CRITERE = 'RELATIF', REFERENCE = 'ANALYTIQUE'),

# SECTION RECTANGLE MOT_CLE RECTANGLE

_F( RESULTAT = MEST7, NOM_CHAM = 'SIGM_ELNO_DEPL', NUME_ORDRE = 1, NOM_CMP = 'SIXX',
MAILLE = 'S31', NOEUD = 'R1', VALE = 4550.,     PRECISION = 1.E-6, CRITERE = 'RELATIF', REFERENCE = 'ANALYTIQUE'),

# SECTION CERCLE MOT_CLE CERCLE

_F( RESULTAT = MEST7, NOM_CHAM = 'SIGM_ELNO_DEPL', NUME_ORDRE = 1, NOM_CMP = 'SIXX',
MAILLE = 'S41', NOEUD = 'C1', VALE = 1832.4636, PRECISION = 1.E-6, CRITERE = 'RELATIF', REFERENCE = 'ANALYTIQUE'))
            )

# ------ EFFORTS GY + GZ + MOMENT TORSION GX: -------------------------


CHARG8=AFFE_CHAR_MECA(  MODELE=MO,
     DDL_IMPO=_F( GROUP_NO = 'A', DX = 0., DY = 0., DZ = 0., DRX = 0., DRY = 0., DRZ = 0.),FORCE_NODALE=(
     _F( GROUP_NO = 'B',  FX = -1.1153550717E+00,
                                FY = 2.9885849073E-01,
                                FZ = 8.1649658093E-01),
     _F( GROUP_NO = 'B',  MX = 5.7735026919E-01,
                                MY = 5.7735026919E-01,
                                MZ = 5.7735026919E-01))   )

MEST8=MECA_STATIQUE(        MODELE=MO,    CHAM_MATER=CHMAT,
            CARA_ELEM=CAREL, EXCIT=_F( CHARGE = CHARG8)   )

CALC_ELEM( reuse=MEST8,
                      RESULTAT=MEST8, EXCIT=_F( CHARGE = CHARG8),
                      OPTION=('EFGE_ELNO_DEPL','SIGM_ELNO_DEPL','SIPO_ELNO_DEPL'))

TEST_RESU(RESU=(
   _F(  RESULTAT = MEST8, NOM_CHAM = 'EFGE_ELNO_DEPL', NUME_ORDRE = 1,
          MAILLE = 'S11',  NOEUD = 'N1',  NOM_CMP = 'MT',  VALE = 1.,
          PRECISION = 1.E-6,   CRITERE = 'RELATIF', REFERENCE = 'ANALYTIQUE'),
   _F(  RESULTAT = MEST8, NOM_CHAM = 'EFGE_ELNO_DEPL', NUME_ORDRE = 1,
          MAILLE = 'S11',  NOEUD = 'N1',  NOM_CMP = 'VY',  VALE = 1.,
          PRECISION = 1.E-6,   CRITERE = 'RELATIF', REFERENCE = 'ANALYTIQUE'),
   _F(  RESULTAT = MEST8, NOM_CHAM = 'EFGE_ELNO_DEPL', NUME_ORDRE = 1,
          MAILLE = 'S11',  NOEUD = 'N1',  NOM_CMP = 'VZ',  VALE = 1.,
          PRECISION = 1.E-6,   CRITERE = 'RELATIF', REFERENCE = 'ANALYTIQUE'),

# SECTION RECTANGLE MOT_CLE GENERALE
   _F(  RESULTAT = MEST8, NOM_CHAM = 'SIGM_ELNO_DEPL', NUME_ORDRE = 1,
          MAILLE = 'S11',  NOEUD = 'N1',  NOM_CMP = 'SIXX',  VALE = -9000.,
          PRECISION = 1.E-6,   CRITERE = 'RELATIF', REFERENCE = 'ANALYTIQUE'),
   _F(  RESULTAT = MEST8, NOM_CHAM = 'SIGM_ELNO_DEPL', NUME_ORDRE = 1,
          MAILLE = 'S11',  NOEUD = 'N1',  NOM_CMP = 'SIXY',  VALE = 2000.,
          PRECISION = 1.E-6, CRITERE = 'RELATIF', REFERENCE = 'ANALYTIQUE'),
   _F(  RESULTAT = MEST8, NOM_CHAM = 'SIGM_ELNO_DEPL', NUME_ORDRE = 1,
          MAILLE = 'S11',  NOEUD = 'N1',  NOM_CMP = 'SIXZ',  VALE = 2000.,
          PRECISION = 1.E-6, CRITERE = 'RELATIF', REFERENCE = 'ANALYTIQUE'),

# SECTION RECTANGLE MOT_CLE RECTANGLE
#   RESU:( RESULTAT: MEST8 NOM_CHAM:'SIGM_ELNO_DEPL' NUME_ORDRE:1
#          MAILLE: S31  NOEUD:R1  NOM_CMP:'SIXX'  VALE:9000.
#          PRECISION:1.D-6 CRITERE:'RELATIF', REFERENCE = 'ANALYTIQUE')
   _F(  RESULTAT = MEST8, NOM_CHAM = 'SIGM_ELNO_DEPL', NUME_ORDRE = 1,
          MAILLE = 'S31',  NOEUD = 'R1',  NOM_CMP = 'SIXY',  VALE = 2000.,
          PRECISION = 1.E-6, CRITERE = 'RELATIF', REFERENCE = 'ANALYTIQUE'),
   _F(  RESULTAT = MEST8, NOM_CHAM = 'SIGM_ELNO_DEPL', NUME_ORDRE = 1,
          MAILLE = 'S31',  NOEUD = 'R1',  NOM_CMP = 'SIXZ',  VALE = 2000.,
          PRECISION = 1.E-6, CRITERE = 'RELATIF', REFERENCE = 'ANALYTIQUE'),

# SECTION CERCLE MOT_CLE CERCLE
#   RESU:( RESULTAT: MEST8 NOM_CHAM:'SIGM_ELNO_DEPL' NUME_ORDRE:1
#          MAILLE: S41  NOEUD:C1  NOM_CMP:'SIXX'  VALE:3601.2653
#          PRECISION:1.D-6 CRITERE:'RELATIF', REFERENCE = 'ANALYTIQUE')
   _F(  RESULTAT = MEST8, NOM_CHAM = 'SIGM_ELNO_DEPL', NUME_ORDRE = 1,
          MAILLE = 'S41',  NOEUD = 'C1',  NOM_CMP = 'SIXY',  VALE = 668.451,
          PRECISION = 1.E-6, CRITERE = 'RELATIF', REFERENCE = 'ANALYTIQUE'),
   _F(  RESULTAT = MEST8, NOM_CHAM = 'SIGM_ELNO_DEPL', NUME_ORDRE = 1,
          MAILLE = 'S41',  NOEUD = 'C1',  NOM_CMP = 'SIXZ',  VALE = 668.451,
          PRECISION = 1.E-6, CRITERE = 'RELATIF', REFERENCE = 'ANALYTIQUE'))
            )

# TEST DE SIPO_ELNO_DEPL

CALC_ELEM( reuse=MEST7,
                      RESULTAT=MEST7, EXCIT=_F( CHARGE = CHARG7),
                      OPTION='SIPO_ELNO_DEPL' )

TEST_RESU(RESU=(

# SECTION RECTANGLE MOT_CLE GENERALE

_F( RESULTAT = MEST7, NOM_CHAM = 'SIPO_ELNO_DEPL', NUME_ORDRE = 1, NOM_CMP = 'SN',
MAILLE = 'S11', NOEUD = 'N1', VALE = 50.,     PRECISION = 1.E-6, CRITERE = 'RELATIF', REFERENCE = 'ANALYTIQUE'),

_F( RESULTAT = MEST7, NOM_CHAM = 'SIPO_ELNO_DEPL', NUME_ORDRE = 1, NOM_CMP = 'SMFY',
MAILLE = 'S11', NOEUD = 'N1', VALE = 3000.,   PRECISION = 1.E-6, CRITERE = 'RELATIF', REFERENCE = 'ANALYTIQUE'),

_F( RESULTAT = MEST7, NOM_CHAM = 'SIPO_ELNO_DEPL', NUME_ORDRE = 1, NOM_CMP = 'SMFZ',
MAILLE = 'S11', NOEUD = 'N1', VALE = -1500.,  PRECISION = 1.E-6, CRITERE = 'RELATIF', REFERENCE = 'ANALYTIQUE'),

# SECTION RECTANGLE MOT_CLE RECTANGLE

_F( RESULTAT = MEST7, NOM_CHAM = 'SIPO_ELNO_DEPL', NUME_ORDRE = 1, NOM_CMP = 'SN',
MAILLE = 'S31', NOEUD = 'R1', VALE = 50.,     PRECISION = 1.E-6, CRITERE = 'RELATIF', REFERENCE = 'ANALYTIQUE'),

_F( RESULTAT = MEST7, NOM_CHAM = 'SIPO_ELNO_DEPL', NUME_ORDRE = 1, NOM_CMP = 'SMFY',
MAILLE = 'S31', NOEUD = 'R1', VALE = 3000.,   PRECISION = 1.E-6, CRITERE = 'RELATIF', REFERENCE = 'ANALYTIQUE'),

_F( RESULTAT = MEST7, NOM_CHAM = 'SIPO_ELNO_DEPL', NUME_ORDRE = 1, NOM_CMP = 'SMFZ',
MAILLE = 'S31', NOEUD = 'R1', VALE = -1500.,  PRECISION = 1.E-6, CRITERE = 'RELATIF', REFERENCE = 'ANALYTIQUE'),

# SECTION CERCLE MOT_CLE CERCLE

_F( RESULTAT = MEST7, NOM_CHAM = 'SIPO_ELNO_DEPL', NUME_ORDRE = 1, NOM_CMP = 'SN',
MAILLE = 'S41', NOEUD = 'C1', VALE = 31.8310, PRECISION = 1.E-6, CRITERE = 'RELATIF', REFERENCE = 'ANALYTIQUE'),

_F( RESULTAT = MEST7, NOM_CHAM = 'SIPO_ELNO_DEPL', NUME_ORDRE = 1, NOM_CMP = 'SMFY',
MAILLE = 'S41', NOEUD = 'C1', VALE = 1273.24, PRECISION = 1.E-6, CRITERE = 'RELATIF', REFERENCE = 'ANALYTIQUE'),

_F( RESULTAT = MEST7, NOM_CHAM = 'SIPO_ELNO_DEPL', NUME_ORDRE = 1, NOM_CMP = 'SMFZ',
MAILLE = 'S41', NOEUD = 'C1', VALE = -1273.24, PRECISION = 1.E-6, CRITERE = 'RELATIF', REFERENCE = 'ANALYTIQUE'))
            )



TEST_RESU(RESU=(

# SECTION RECTANGLE MOT_CLE GENERALE
_F( RESULTAT = MEST8,  NUME_ORDRE=1 , NOM_CHAM='SIPO_ELNO_DEPL' , NOM_CMP = 'SVY',
MAILLE = 'S11', NOEUD = 'N1', VALE = 50.,     PRECISION = 1.E-6, CRITERE = 'RELATIF', REFERENCE = 'ANALYTIQUE'),
_F( RESULTAT = MEST8,  NUME_ORDRE=1 , NOM_CHAM='SIPO_ELNO_DEPL' , NOM_CMP = 'SVZ',
MAILLE = 'S11', NOEUD = 'N1', VALE = 50.,     PRECISION = 1.E-6, CRITERE = 'RELATIF', REFERENCE = 'ANALYTIQUE'),
_F( RESULTAT = MEST8,  NUME_ORDRE=1 , NOM_CHAM='SIPO_ELNO_DEPL' , NOM_CMP = 'SMT',
MAILLE = 'S11', NOEUD = 'N1', VALE = 1950.,   PRECISION = 1.E-6, CRITERE = 'RELATIF', REFERENCE = 'ANALYTIQUE'),
_F( RESULTAT = MEST8,  NUME_ORDRE=1 , NOM_CHAM='SIPO_ELNO_DEPL' , NOM_CMP = 'SMFY',
MAILLE = 'S11', NOEUD = 'N1', VALE = -6000.,  PRECISION = 1.E-6, CRITERE = 'RELATIF', REFERENCE = 'ANALYTIQUE'),
_F( RESULTAT = MEST8,  NUME_ORDRE=1 , NOM_CHAM='SIPO_ELNO_DEPL' , NOM_CMP = 'SMFZ',
MAILLE = 'S11', NOEUD = 'N1', VALE = -3000.,  PRECISION = 1.E-6, CRITERE = 'RELATIF', REFERENCE = 'ANALYTIQUE'),

# SECTION RECTANGLE MOT_CLE RECTANGLE
_F( RESULTAT = MEST8,  NUME_ORDRE=1 , NOM_CHAM='SIPO_ELNO_DEPL' , NOM_CMP = 'SVY',
MAILLE = 'S31', NOEUD = 'R1', VALE = 50.,     PRECISION = 1.E-6, CRITERE = 'RELATIF', REFERENCE = 'ANALYTIQUE'),
_F( RESULTAT = MEST8,  NUME_ORDRE=1 , NOM_CHAM='SIPO_ELNO_DEPL' , NOM_CMP = 'SVZ',
MAILLE = 'S31', NOEUD = 'R1', VALE = 50.,     PRECISION = 1.E-6, CRITERE = 'RELATIF', REFERENCE = 'ANALYTIQUE'),
_F( RESULTAT = MEST8,  NUME_ORDRE=1 , NOM_CHAM='SIPO_ELNO_DEPL' , NOM_CMP = 'SMT',
MAILLE = 'S31', NOEUD = 'R1', VALE = 1950.,   PRECISION = 1.E-6, CRITERE = 'RELATIF', REFERENCE = 'ANALYTIQUE'),
_F( RESULTAT = MEST8,  NUME_ORDRE=1 , NOM_CHAM='SIPO_ELNO_DEPL' , NOM_CMP = 'SMFY',
MAILLE = 'S31', NOEUD = 'R1', VALE = -6000.,  PRECISION = 1.E-6, CRITERE = 'RELATIF', REFERENCE = 'ANALYTIQUE'),
_F( RESULTAT = MEST8,  NUME_ORDRE=1 , NOM_CHAM='SIPO_ELNO_DEPL' , NOM_CMP = 'SMFZ',
MAILLE = 'S31', NOEUD = 'R1', VALE = -3000.,  PRECISION = 1.E-6, CRITERE = 'RELATIF', REFERENCE = 'ANALYTIQUE'),

# SECTION CERCLE MOT_CLE CERCLE
_F( RESULTAT = MEST8,  NUME_ORDRE=1 , NOM_CHAM='SIPO_ELNO_DEPL' , NOM_CMP = 'SVY',
MAILLE = 'S41', NOEUD = 'C1', VALE = 31.8310, PRECISION = 1.E-6, CRITERE = 'RELATIF', REFERENCE = 'ANALYTIQUE'),
_F( RESULTAT = MEST8,  NUME_ORDRE=1 , NOM_CHAM='SIPO_ELNO_DEPL' , NOM_CMP = 'SVZ',
MAILLE = 'S41', NOEUD = 'C1', VALE = 31.8310, PRECISION = 1.E-6, CRITERE = 'RELATIF', REFERENCE = 'ANALYTIQUE'),
_F( RESULTAT = MEST8,  NUME_ORDRE=1 , NOM_CHAM='SIPO_ELNO_DEPL' , NOM_CMP = 'SMT',
MAILLE = 'S41', NOEUD = 'C1', VALE = 636.620, PRECISION = 1.E-6, CRITERE = 'RELATIF', REFERENCE = 'ANALYTIQUE'),
_F( RESULTAT = MEST8,  NUME_ORDRE=1 , NOM_CHAM='SIPO_ELNO_DEPL' , NOM_CMP = 'SMFY',
MAILLE = 'S41', NOEUD = 'C1', VALE = -2546.48, PRECISION = 1.E-6, CRITERE = 'RELATIF', REFERENCE = 'ANALYTIQUE'),
_F( RESULTAT = MEST8,  NUME_ORDRE=1 , NOM_CHAM='SIPO_ELNO_DEPL' , NOM_CMP = 'SMFZ',
MAILLE = 'S41', NOEUD = 'C1', VALE = -2546.48, PRECISION = 1.E-6, CRITERE = 'RELATIF', REFERENCE = 'ANALYTIQUE'))
            )

#####

# ------ TOUS LES CHARGEMENTS A LA FOIS -------------------------


CHARG9=AFFE_CHAR_MECA(  MODELE=MO,
     DDL_IMPO=_F( GROUP_NO = 'A', DX = 0., DY = 0., DZ = 0., DRX = 0., DRY = 0., DRZ = 0.),FORCE_NODALE=(
     _F( GROUP_NO = 'B',  MY = 1.0E0),
     _F( GROUP_NO = 'B',  MZ = 1.0E0),
     _F( GROUP_NO = 'B',  FX = 1.0E0),
     _F( GROUP_NO = 'B',  FY = 1.0E0),
     _F( GROUP_NO = 'B',  FZ = 1.0E0),
     _F( GROUP_NO = 'B',  MX = 1.0E0))
                         )


MEST9=MECA_STATIQUE(       MODELE=MO,    CHAM_MATER=CHMAT,
                            CARA_ELEM=CAREL,
                                EXCIT=_F( CHARGE = CHARG9),
                                   )

CALC_ELEM( reuse= MEST9 ,RESULTAT= MEST9 ,

                               OPTION='SIPO_ELNO_DEPL'    )

#
#======================================================================
#               MATERIAU  FONCTION  DE  LA  TEMPERATURE
#======================================================================

T1=50.

T2=75.

T3=100.

A_F=DEFI_CONSTANTE(   NOM_RESU='TEMP',
                                VALE=1.7E-05     )

E1=2.0E+11

E2=2.3E+11

E3=2.5E+11

E_F=DEFI_FONCTION(  NOM_PARA='TEMP',
                        VALE=( T1, E1,  T2, E2,  T3, E3, )  )

NU1=0.3

NU2=0.33

NU3=0.35

NU_F=DEFI_FONCTION(  NOM_PARA='TEMP',
                         VALE=( T1, NU1,  T2, NU2,  T3, NU3, )  )

MATER_F=DEFI_MATERIAU(  ELAS_FO=_F(  E = E_F,      NU = NU_F,  RHO=7.,
                                       ALPHA = A_F ,TEMP_DEF_ALPHA=0.0) )

CHMAT_F=AFFE_MATERIAU(  MAILLAGE=MA,
                  AFFE=_F(  TOUT = 'OUI',      MATER = MATER_F)  )

CHT1=CREA_CHAMP( OPERATION='AFFE', TYPE_CHAM='NOEU_TEMP_R', MAILLAGE=MA,
                        AFFE=_F(  TOUT = 'OUI',
                               NOM_CMP = 'TEMP',  VALE = T1)  )

CHT2=CREA_CHAMP( OPERATION='AFFE', TYPE_CHAM='NOEU_TEMP_R', MAILLAGE=MA,
                        AFFE=_F(  TOUT = 'OUI',
                               NOM_CMP = 'TEMP',  VALE = T2)  )

CHT3=CREA_CHAMP( OPERATION='AFFE', TYPE_CHAM='NOEU_TEMP_R', MAILLAGE=MA,
                        AFFE=_F(  TOUT = 'OUI',
                               NOM_CMP = 'TEMP',  VALE = T3)  )

LINST=DEFI_LIST_REEL( VALE=( 1.,  2.,  3.,  )  )

TEMP=CREA_RESU(  OPERATION='AFFE', TYPE_RESU='EVOL_THER',
                       NOM_CHAM='TEMP',
                 AFFE=( _F(  INST = 1.,  CHAM_GD = CHT1),
                        _F(  INST = 2.,  CHAM_GD = CHT2),
                        _F(  INST = 3.,  CHAM_GD = CHT3))
                  )

CHMTM=AFFE_MATERIAU(  MAILLAGE=MA,
                  AFFE=_F(  TOUT = 'OUI',      MATER = MATER_F),
                  AFFE_VARC=_F( TOUT='OUI',
                                EVOL=TEMP,
                                NOM_VARC='TEMP',
                                NOM_CHAM='TEMP',VALE_REF=0.),
                     );

CHG1=AFFE_CHAR_MECA(   MODELE=MO,
                          DDL_IMPO=_F(  GROUP_NO = 'A',   DX = 0.,   DY = 0.,
                                     DZ = 0.,  DRX = 0.,  DRY = 0.,  DRZ = 0.),
              FORCE_NODALE=_F(  GROUP_NO = 'B',  FX = 5.7735026919E-01,
                                          FY = 5.7735026919E-01,
                                          FZ = 5.7735026919E-01)
                        )

U2=MECA_STATIQUE(      MODELE=MO,
                        CHAM_MATER=CHMTM,     CARA_ELEM=CAREL,
                         LIST_INST=LINST,
                             EXCIT=_F(   CHARGE = CHG1)        )

#---------------------------------------------------------------------
T_POT=POST_ELEM(
                    RESULTAT=U2,
                      CHARGE=CHG1,
                    ENER_POT=_F( TOUT = 'OUI',)  )

IMPR_TABLE ( TABLE=T_POT )

TEST_TABLE ( TABLE=T_POT,
             FILTRE=_F(NOM_PARA='NUME_ORDRE',
                       VALE_I=1),
             NOM_PARA='TOTALE',
             REFERENCE='NON_REGRESSION', VERSION='6.02.22',
             VALE= 1.0587806984631E+04    )

#---------------------------------------------------------------------
TEST_RESU(RESU=(
         _F(  RESULTAT = U2,  NOM_CHAM = 'DEPL',  NUME_ORDRE = 1,
             REFERENCE='NON_REGRESSION', VERSION='6.02.22',
           NOEUD = 'N3',  NOM_CMP = 'DX',   VALE = 9.8149574631508E-04,
           PRECISION = 1.E-6,        CRITERE = 'RELATIF'),
         _F(  RESULTAT = U2,  NOM_CHAM = 'DEPL',  NUME_ORDRE = 1,
             REFERENCE='NON_REGRESSION', VERSION='6.02.22',
           NOEUD = 'N3',  NOM_CMP = 'DY',   VALE = 9.8149574631508E-04,
           PRECISION = 1.E-13,       CRITERE = 'ABSOLU'),
         _F(  RESULTAT = U2,  NOM_CHAM = 'DEPL',  NUME_ORDRE = 1,
             REFERENCE='NON_REGRESSION', VERSION='6.02.22',
           NOEUD = 'N3',  NOM_CMP = 'DZ',   VALE = 9.8149574631525E-04,
           PRECISION = 1.E-13,       CRITERE = 'ABSOLU'),
         _F(  RESULTAT = U2,  NOM_CHAM = 'DEPL',  NUME_ORDRE = 1,
             REFERENCE='NON_REGRESSION', VERSION='6.02.22',
           NOEUD = 'N3',  NOM_CMP = 'DRX',  VALE = 0.,
           PRECISION = 1.E-13,       CRITERE = 'ABSOLU'),
         _F(  RESULTAT = U2,  NOM_CHAM = 'DEPL',  NUME_ORDRE = 1,
             REFERENCE='NON_REGRESSION', VERSION='6.02.22',
           NOEUD = 'N3',  NOM_CMP = 'DRY',  VALE = 0.,
           PRECISION = 1.E-13,       CRITERE = 'ABSOLU'),
         _F(  RESULTAT = U2,  NOM_CHAM = 'DEPL',  NUME_ORDRE = 1,
             REFERENCE='NON_REGRESSION', VERSION='6.02.22',
           NOEUD = 'N3',  NOM_CMP = 'DRZ',  VALE = 0.,
           PRECISION = 1.E-13,       CRITERE = 'ABSOLU'),
         _F(  RESULTAT = U2,  NOM_CHAM = 'DEPL',  NUME_ORDRE = 1,
             REFERENCE='NON_REGRESSION', VERSION='6.02.22',
           NOEUD = 'M3',  NOM_CMP = 'DX',   VALE = 9.8149856836353E-04,
           PRECISION = 1.E-6,        CRITERE = 'RELATIF'),
         _F(  RESULTAT = U2,  NOM_CHAM = 'DEPL',  NUME_ORDRE = 1,
             REFERENCE='NON_REGRESSION', VERSION='6.02.22',
           NOEUD = 'M3',  NOM_CMP = 'DY',   VALE = 9.8149856836354E-04,
           PRECISION = 1.E-13,       CRITERE = 'ABSOLU'),
         _F(  RESULTAT = U2,  NOM_CHAM = 'DEPL',  NUME_ORDRE = 1,
             REFERENCE='NON_REGRESSION', VERSION='6.02.22',
           NOEUD = 'M3',  NOM_CMP = 'DZ',   VALE = 9.8149856836322E-04,
           PRECISION = 1.E-13,       CRITERE = 'ABSOLU'),
         _F(  RESULTAT = U2,  NOM_CHAM = 'DEPL',  NUME_ORDRE = 1,
             REFERENCE='NON_REGRESSION', VERSION='6.02.22',
           NOEUD = 'M3',  NOM_CMP = 'DRX',  VALE = 0.,
           PRECISION = 1.E-13,       CRITERE = 'ABSOLU'),
         _F(  RESULTAT = U2,  NOM_CHAM = 'DEPL',  NUME_ORDRE = 1,
             REFERENCE='NON_REGRESSION', VERSION='6.02.22',
           NOEUD = 'M3',  NOM_CMP = 'DRY',  VALE = 0.,
           PRECISION = 1.E-13,       CRITERE = 'ABSOLU'),
         _F(  RESULTAT = U2,  NOM_CHAM = 'DEPL',  NUME_ORDRE = 1,
             REFERENCE='NON_REGRESSION', VERSION='6.02.22',
           NOEUD = 'M3',  NOM_CMP = 'DRZ',  VALE = 0.,
           PRECISION = 1.E-13,       CRITERE = 'ABSOLU'),

         _F(  RESULTAT = U2,  NOM_CHAM = 'DEPL',  NUME_ORDRE = 2,
             REFERENCE='NON_REGRESSION', VERSION='6.02.22',
           NOEUD = 'N2',  NOM_CMP = 'DX',   VALE = 7.3612171872817E-04,
           PRECISION = 1.E-6,        CRITERE = 'RELATIF'),
         _F(  RESULTAT = U2,  NOM_CHAM = 'DEPL',  NUME_ORDRE = 2,
             REFERENCE='NON_REGRESSION', VERSION='6.02.22',
           NOEUD = 'N3',  NOM_CMP = 'DX',   VALE = 1.4722434374818E-03,
           PRECISION = 1.E-6,        CRITERE = 'RELATIF'),
         _F(  RESULTAT = U2,  NOM_CHAM = 'DEPL',  NUME_ORDRE = 2,
             REFERENCE='NON_REGRESSION', VERSION='6.02.22',
           NOEUD = 'M3',  NOM_CMP = 'DX',   VALE = 1.4722458914369E-03,
           PRECISION = 1.E-6,        CRITERE = 'RELATIF'),

         _F(  RESULTAT = U2,  NOM_CHAM = 'DEPL',  NUME_ORDRE = 3,
             REFERENCE='NON_REGRESSION', VERSION='6.02.22',
           NOEUD = 'N2',  NOM_CMP = 'DX',   VALE = 9.8149557309307E-04,
           PRECISION = 1.E-6,        CRITERE = 'RELATIF'),
         _F(  RESULTAT = U2,  NOM_CHAM = 'DEPL',  NUME_ORDRE = 3,
             REFERENCE='NON_REGRESSION', VERSION='6.02.22',
           NOEUD = 'N3',  NOM_CMP = 'DX',   VALE = 1.9629911462201E-03,
           PRECISION = 1.E-6,        CRITERE = 'RELATIF'),
         _F(  RESULTAT = U2,  NOM_CHAM = 'DEPL',  NUME_ORDRE = 3,
             REFERENCE='NON_REGRESSION', VERSION='6.02.22',
           NOEUD = 'M3',  NOM_CMP = 'DX',   VALE = 1.9629934038591E-03,
           PRECISION = 1.E-6,        CRITERE = 'RELATIF'))
            )

FIN( )
#
