# TITRE VALIDATION DE POST_ELEM MOT CLE FACTEUR CARA_GEOM
# ======================================================================
# COPYRIGHT (C) 1991 - 2013  EDF R&D                  WWW.CODE-ASTER.ORG
# THIS PROGRAM IS FREE SOFTWARE; YOU CAN REDISTRIBUTE IT AND/OR MODIFY
# IT UNDER THE TERMS OF THE GNU GENERAL PUBLIC LICENSE AS PUBLISHED BY
# THE FREE SOFTWARE FOUNDATION; EITHER VERSION 2 OF THE LICENSE, OR
# (AT YOUR OPTION) ANY LATER VERSION.
#
# THIS PROGRAM IS DISTRIBUTED IN THE HOPE THAT IT WILL BE USEFUL, BUT
# WITHOUT ANY WARRANTY; WITHOUT EVEN THE IMPLIED WARRANTY OF
# MERCHANTABILITY OR FITNESS FOR A PARTICULAR PURPOSE. SEE THE GNU
# GENERAL PUBLIC LICENSE FOR MORE DETAILS.
#
# YOU SHOULD HAVE RECEIVED A COPY OF THE GNU GENERAL PUBLIC LICENSE
# ALONG WITH THIS PROGRAM; IF NOT, WRITE TO EDF R&D CODE_ASTER,
#    1 AVENUE DU GENERAL DE GAULLE, 92141 CLAMART CEDEX, FRANCE.
# ======================================================================



DEBUT(CODE=_F(NOM='SSLL107C',NIV_PUB_WEB='INTERNET'),DEBUG=_F(SDVERI='OUI'))

MA=LIRE_MAILLAGE(  )

MO=AFFE_MODELE(      MAILLAGE=MA,
                           AFFE=_F(   TOUT = 'OUI',
                                   PHENOMENE = 'MECANIQUE',
                                   MODELISATION = 'D_PLAN')
                       )

MAT=DEFI_MATERIAU(    ELAS=_F(  E = 1.,   NU = 0.5,  RHO = 1.)  )

CHMAT=AFFE_MATERIAU(      MAILLAGE=MA,
                            AFFE=_F(   TOUT = 'OUI',
                                    MATER = MAT)   )

TCARS=POST_ELEM(          MODELE=MO,
                          CHAM_MATER=CHMAT,
                          CARA_GEOM=_F(  TOUT = 'OUI',
                                      SYME_X = 'OUI',
                                      SYME_Y = 'OUI')
                    )

TEST_TABLE(VALE_CALC=9.0E-05,
           VALE_REFE=9.0000000000000006E-05,
           REFERENCE = 'ANALYTIQUE',
           PRECISION=1.E-3,
           NOM_PARA='A_M',
           TABLE=TCARS,
           FILTRE=_F(NOM_PARA='LIEU',
                     VALE_K='MA',),
           )

TEST_TABLE(VALE_CALC=6.7777777777778E-03,
           VALE_REFE=6.7777699999999998E-3,
           REFERENCE = 'ANALYTIQUE',
           PRECISION=1.E-3,
           NOM_PARA='CDG_Y_M',
           TABLE=TCARS,
           FILTRE=_F(NOM_PARA='LIEU',
                     VALE_K='MA',),
           )

TEST_TABLE(VALE_CALC=0.016944444444444,
           VALE_REFE=0.016944399999999998,
           REFERENCE = 'ANALYTIQUE',
           PRECISION=1.E-3,
           NOM_PARA='CDG_Z_M',
           TABLE=TCARS,
           FILTRE=_F(NOM_PARA='LIEU',
                     VALE_K='MA',),
           )

TEST_TABLE(VALE_CALC=4.9097222222222E-09,
           VALE_REFE=4.9097199999999999E-09,
           REFERENCE = 'ANALYTIQUE',
           PRECISION=1.E-3,
           NOM_PARA='IY_G_M',
           TABLE=TCARS,
           FILTRE=_F(NOM_PARA='LIEU',
                     VALE_K='MA',),
           )

TEST_TABLE(VALE_CALC=7.8555555555556E-10,
           VALE_REFE=7.8555599999999999E-10,
           REFERENCE = 'ANALYTIQUE',
           PRECISION=1.E-3,
           NOM_PARA='IZ_G_M',
           TABLE=TCARS,
           FILTRE=_F(NOM_PARA='LIEU',
                     VALE_K='MA',),
           )

TEST_TABLE(VALE_CALC=-1.1111111111111E-09,
           VALE_REFE=-1.1111099999999999E-09,
           REFERENCE = 'ANALYTIQUE',
           PRECISION=1.E-3,
           NOM_PARA='IYZ_G_M',
           TABLE=TCARS,
           FILTRE=_F(NOM_PARA='LIEU',
                     VALE_K='MA',),
           )

#
# --- VALEURS DE REFERENCE: OPERATEUR AFFE_CARA_ELEM
#

TEST_TABLE(VALE_CALC=3.6E-04,
           VALE_REFE=3.6000000000000002E-4,
           REFERENCE = 'ANALYTIQUE',
           PRECISION=1.E-3,
           NOM_PARA='A',
           TABLE=TCARS,
           FILTRE=_F(NOM_PARA='LIEU',
                     VALE_K='MA',),
           )

TEST_TABLE(CRITERE='ABSOLU',
           VALE_CALC=0.0E+00,
           VALE_REFE=0.0,
           REFERENCE = 'ANALYTIQUE',
           PRECISION=1.E-3,
           NOM_PARA='CDG_Y',
           TABLE=TCARS,
           FILTRE=_F(NOM_PARA='LIEU',
                     VALE_K='MA',),
           )

TEST_TABLE(CRITERE='ABSOLU',
           VALE_CALC=0.0E+00,
           VALE_REFE=0.0,
           REFERENCE = 'ANALYTIQUE',
           PRECISION=1.E-3,
           NOM_PARA='CDG_Z',
           TABLE=TCARS,
           FILTRE=_F(NOM_PARA='LIEU',
                     VALE_K='MA',),
           )

TEST_TABLE(VALE_CALC=1.23E-07,
           VALE_REFE=1.23E-07,
           REFERENCE = 'ANALYTIQUE',
           PRECISION=1.E-3,
           NOM_PARA='IY_G',
           TABLE=TCARS,
           FILTRE=_F(NOM_PARA='LIEU',
                     VALE_K='MA',),
           )

TEST_TABLE(VALE_CALC=1.968E-08,
           VALE_REFE=1.9680000000000002E-08,
           REFERENCE = 'ANALYTIQUE',
           PRECISION=1.E-3,
           NOM_PARA='IZ_G',
           TABLE=TCARS,
           FILTRE=_F(NOM_PARA='LIEU',
                     VALE_K='MA',),
           )

TEST_TABLE(VALE_CALC=1.968E-08,
           VALE_REFE=1.9680000000000002E-08,
           REFERENCE = 'ANALYTIQUE',
           PRECISION=1.E-3,
           NOM_PARA='IY',
           TABLE=TCARS,
           FILTRE=_F(NOM_PARA='LIEU',
                     VALE_K='MA',),
           )

TEST_TABLE(VALE_CALC=1.23E-07,
           VALE_REFE=1.23E-07,
           REFERENCE = 'ANALYTIQUE',
           PRECISION=1.E-3,
           NOM_PARA='IZ',
           TABLE=TCARS,
           FILTRE=_F(NOM_PARA='LIEU',
                     VALE_K='MA',),
           )

TEST_TABLE(VALE_CALC=90.0,
           VALE_REFE=90.0,
           REFERENCE = 'ANALYTIQUE',
           PRECISION=1.E-3,
           NOM_PARA='ALPHA',
           TABLE=TCARS,
           FILTRE=_F(NOM_PARA='LIEU',
                     VALE_K='MA',),
           )

TEST_TABLE(VALE_CALC=-0.025000000000000,
           VALE_REFE=-0.025000000000000001,
           REFERENCE = 'ANALYTIQUE',
           PRECISION=1.E-3,
           NOM_PARA='Y_MIN',
           TABLE=TCARS,
           FILTRE=_F(NOM_PARA='LIEU',
                     VALE_K='MA',),
           )

TEST_TABLE(VALE_CALC=0.025000000000000,
           VALE_REFE=0.025000000000000001,
           REFERENCE = 'ANALYTIQUE',
           PRECISION=1.E-3,
           NOM_PARA='Y_MAX',
           TABLE=TCARS,
           FILTRE=_F(NOM_PARA='LIEU',
                     VALE_K='MA',),
           )

TEST_TABLE(VALE_CALC=-0.010000000000000,
           VALE_REFE=-1.E-2,
           REFERENCE = 'ANALYTIQUE',
           PRECISION=1.E-3,
           NOM_PARA='Z_MIN',
           TABLE=TCARS,
           FILTRE=_F(NOM_PARA='LIEU',
                     VALE_K='MA',),
           )

TEST_TABLE(VALE_CALC=0.010000000000000,
           VALE_REFE=1.E-2,
           REFERENCE = 'ANALYTIQUE',
           PRECISION=1.E-3,
           NOM_PARA='Z_MAX',
           TABLE=TCARS,
           FILTRE=_F(NOM_PARA='LIEU',
                     VALE_K='MA',),
           )

TEST_TABLE(VALE_CALC=0.026925824035673,
           VALE_REFE=0.026925999999999999,
           REFERENCE = 'ANALYTIQUE',
           PRECISION=1.E-3,
           NOM_PARA='R_MAX',
           TABLE=TCARS,
           FILTRE=_F(NOM_PARA='LIEU',
                     VALE_K='MA',),
           )

TCARA=POST_ELEM(          MODELE=MO,
                          CHAM_MATER=CHMAT,CARA_GEOM=(
                          _F(  TOUT = 'OUI'),
                                    _F(  MAILLE = 'M5'),
                                    _F(  GROUP_MA = 'GXXXXXX_SURF1'))
                    )

TEST_TABLE(VALE_CALC=9.0E-05,
           VALE_REFE=9.0000000000000006E-05,
           REFERENCE = 'ANALYTIQUE',
           PRECISION=1.E-3,
           NOM_PARA='A',
           TABLE=TCARA,
           FILTRE=_F(NOM_PARA='LIEU',
                     VALE_K='MA',),
           )

TEST_TABLE(VALE_CALC=6.7777777777778E-03,
           VALE_REFE=6.7777699999999998E-3,
           REFERENCE = 'ANALYTIQUE',
           PRECISION=1.E-3,
           NOM_PARA='CDG_Y',
           TABLE=TCARA,
           FILTRE=_F(NOM_PARA='LIEU',
                     VALE_K='MA',),
           )

TEST_TABLE(VALE_CALC=0.016944444444444,
           VALE_REFE=0.016944399999999998,
           REFERENCE = 'ANALYTIQUE',
           PRECISION=1.E-3,
           NOM_PARA='CDG_Z',
           TABLE=TCARA,
           FILTRE=_F(NOM_PARA='LIEU',
                     VALE_K='MA',),
           )

TEST_TABLE(VALE_CALC=4.9097222222222E-09,
           VALE_REFE=4.9097199999999999E-09,
           REFERENCE = 'ANALYTIQUE',
           PRECISION=1.E-3,
           NOM_PARA='IY_G',
           TABLE=TCARA,
           FILTRE=_F(NOM_PARA='LIEU',
                     VALE_K='MA',),
           )

TEST_TABLE(VALE_CALC=7.8555555555556E-10,
           VALE_REFE=7.8555599999999999E-10,
           REFERENCE = 'ANALYTIQUE',
           PRECISION=1.E-3,
           NOM_PARA='IZ_G',
           TABLE=TCARA,
           FILTRE=_F(NOM_PARA='LIEU',
                     VALE_K='MA',),
           )

TEST_TABLE(VALE_CALC=-1.1111111111111E-09,
           VALE_REFE=-1.1111099999999999E-09,
           REFERENCE = 'ANALYTIQUE',
           PRECISION=1.E-3,
           NOM_PARA='IYZ_G',
           TABLE=TCARA,
           FILTRE=_F(NOM_PARA='LIEU',
                     VALE_K='MA',),
           )

TEST_TABLE(VALE_CALC=5.0525643189223E-10,
           VALE_REFE=5.0525600000000004E-10,
           REFERENCE = 'ANALYTIQUE',
           PRECISION=1.E-3,
           NOM_PARA='IY',
           TABLE=TCARA,
           FILTRE=_F(NOM_PARA='LIEU',
                     VALE_K='GXXXXXX_SURF1',),
           )

TEST_TABLE(VALE_CALC=5.1900213458855E-09,
           VALE_REFE=5.1900200000000002E-09,
           REFERENCE = 'ANALYTIQUE',
           PRECISION=1.E-3,
           NOM_PARA='IZ',
           TABLE=TCARA,
           FILTRE=_F(NOM_PARA='LIEU',
                     VALE_K='GXXXXXX_SURF1',),
           )

TEST_TABLE(VALE_CALC=104.15854619733,
           VALE_REFE=104.1585,
           REFERENCE = 'ANALYTIQUE',
           PRECISION=1.E-3,
           NOM_PARA='ALPHA',
           TABLE=TCARA,
           FILTRE=_F(NOM_PARA='LIEU',
                     VALE_K='GXXXXXX_SURF1',),
           )

TEST_TABLE(VALE_CALC=2.25E-05,
           VALE_REFE=2.2500000000000001E-05,
           REFERENCE = 'ANALYTIQUE',
           PRECISION=1.E-3,
           NOM_PARA='A',
           TABLE=TCARA,
           FILTRE=_F(NOM_PARA='LIEU',
                     VALE_K='M5',),
           )

TMASS=POST_ELEM(          MODELE=MO,
                          CHAM_MATER=CHMAT,MASS_INER=(
                          _F(  TOUT = 'OUI'),
                                    _F(  MAILLE = 'M5'),
                                    _F(  GROUP_MA = 'GXXXXXX_SURF1'))
                    )

TEST_TABLE(VALE_CALC=9.0E-05,
           VALE_REFE=9.0000000000000006E-05,
           REFERENCE = 'ANALYTIQUE',
           PRECISION=1.E-3,
           NOM_PARA='MASSE',
           TABLE=TMASS,
           FILTRE=_F(NOM_PARA='LIEU',
                     VALE_K='MA',),
           )

TEST_TABLE(VALE_CALC=6.7777777777778E-03,
           VALE_REFE=6.7777699999999998E-3,
           REFERENCE = 'ANALYTIQUE',
           PRECISION=1.E-3,
           NOM_PARA='CDG_X',
           TABLE=TMASS,
           FILTRE=_F(NOM_PARA='LIEU',
                     VALE_K='MA',),
           )

TEST_TABLE(VALE_CALC=0.016944444444444,
           VALE_REFE=0.016944399999999998,
           REFERENCE = 'ANALYTIQUE',
           PRECISION=1.E-3,
           NOM_PARA='CDG_Y',
           TABLE=TMASS,
           FILTRE=_F(NOM_PARA='LIEU',
                     VALE_K='MA',),
           )

TEST_TABLE(VALE_CALC=4.9097222222222E-09,
           VALE_REFE=4.9097199999999999E-09,
           REFERENCE = 'ANALYTIQUE',
           PRECISION=1.E-3,
           NOM_PARA='IX_G',
           TABLE=TMASS,
           FILTRE=_F(NOM_PARA='LIEU',
                     VALE_K='MA',),
           )

TEST_TABLE(VALE_CALC=7.8555555555556E-10,
           VALE_REFE=7.8555599999999999E-10,
           REFERENCE = 'ANALYTIQUE',
           PRECISION=1.E-3,
           NOM_PARA='IY_G',
           TABLE=TMASS,
           FILTRE=_F(NOM_PARA='LIEU',
                     VALE_K='MA',),
           )

TEST_TABLE(VALE_CALC=5.6952777777778E-09,
           VALE_REFE=5.6952699999999999E-09,
           REFERENCE = 'ANALYTIQUE',
           PRECISION=1.E-3,
           NOM_PARA='IZ_G',
           TABLE=TMASS,
           FILTRE=_F(NOM_PARA='LIEU',
                     VALE_K='MA',),
           )

TEST_TABLE(VALE_CALC=-1.1111111111111E-09,
           VALE_REFE=-1.1111099999999999E-09,
           REFERENCE = 'ANALYTIQUE',
           PRECISION=1.E-3,
           NOM_PARA='IXY_G',
           TABLE=TMASS,
           FILTRE=_F(NOM_PARA='LIEU',
                     VALE_K='MA',),
           )

TEST_TABLE(VALE_CALC=5.0525643189223E-10,
           VALE_REFE=5.0525600000000004E-10,
           REFERENCE = 'ANALYTIQUE',
           PRECISION=1.E-3,
           NOM_PARA='IX_PRIN_G',
           TABLE=TMASS,
           FILTRE=_F(NOM_PARA='LIEU',
                     VALE_K='GXXXXXX_SURF1',),
           )

TEST_TABLE(VALE_CALC=5.1900213458855E-09,
           VALE_REFE=5.1900200000000002E-09,
           REFERENCE = 'ANALYTIQUE',
           PRECISION=1.E-3,
           NOM_PARA='IY_PRIN_G',
           TABLE=TMASS,
           FILTRE=_F(NOM_PARA='LIEU',
                     VALE_K='GXXXXXX_SURF1',),
           )

TEST_TABLE(VALE_CALC=5.6952777777778E-09,
           VALE_REFE=5.6952699999999999E-09,
           REFERENCE = 'ANALYTIQUE',
           PRECISION=1.E-3,
           NOM_PARA='IZ_PRIN_G',
           TABLE=TMASS,
           FILTRE=_F(NOM_PARA='LIEU',
                     VALE_K='GXXXXXX_SURF1',),
           )

TEST_TABLE(VALE_CALC=104.15854619733,
           VALE_REFE=104.1585,
           REFERENCE = 'ANALYTIQUE',
           PRECISION=1.E-3,
           NOM_PARA='ALPHA',
           TABLE=TMASS,
           FILTRE=_F(NOM_PARA='LIEU',
                     VALE_K='GXXXXXX_SURF1',),
           )

FIN( )
#
