# MODIF  DATE 13/09/2010   AUTEUR PELLET J.PELLET 
# TITRE POUTRE DROITE APPUYEE EN SES DEUX EXTREMITES SOUMISE A UN
# ssll102i.para = tps_job 60 mem_job 300Mo ncpus 1 liste_test R
#            CONFIGURATION MANAGEMENT OF EDF VERSION
# ======================================================================
# COPYRIGHT (C) 1991 - 2001  EDF R&D                  WWW.CODE-ASTER.ORG
# THIS PROGRAM IS FREE SOFTWARE; YOU CAN REDISTRIBUTE IT AND/OR MODIFY
# IT UNDER THE TERMS OF THE GNU GENERAL PUBLIC LICENSE AS PUBLISHED BY
# THE FREE SOFTWARE FOUNDATION; EITHER VERSION 2 OF THE LICENSE, OR
# (AT YOUR OPTION) ANY LATER VERSION.
#
# THIS PROGRAM IS DISTRIBUTED IN THE HOPE THAT IT WILL BE USEFUL, BUT
# WITHOUT ANY WARRANTY; WITHOUT EVEN THE IMPLIED WARRANTY OF
# MERCHANTABILITY OR FITNESS FOR A PARTICULAR PURPOSE. SEE THE GNU
# GENERAL PUBLIC LICENSE FOR MORE DETAILS.
#
# YOU SHOULD HAVE RECEIVED A COPY OF THE GNU GENERAL PUBLIC LICENSE
# ALONG WITH THIS PROGRAM; IF NOT, WRITE TO EDF R&D CODE_ASTER,
#    1 AVENUE DU GENERAL DE GAULLE, 92141 CLAMART CEDEX, FRANCE.
# ======================================================================
# CHARGEMENT REPARTI LINEAIRE.REFERENCE ANALYTIQUE
# CALCUL DE LA FLECHE, DE L'EFFORT TRANCHANT, DU MOMENT DE FLEXION ET
# DE LA CONTRAINTE MAXIMALE ASSOCIEE.
# MODELISATION TUYAU
#======================================================================
#
DEBUT(CODE=_F(NOM='SSLL102I',NIV_PUB_WEB='INTERNET'),DEBUG=_F(SDVERI='OUI'))

#
PRE_GIBI()

M1=LIRE_MAILLAGE(  )


MA=CREA_MAILLAGE(     MAILLAGE=M1,
       MODI_MAILLE=_F(  OPTION = 'SEG3_4', TOUT = 'OUI')
)
MA=DEFI_GROUP( reuse=MA,   MAILLAGE=MA,
  CREA_GROUP_MA=_F(  NOM = 'TOUT', TOUT = 'OUI'))

MO=AFFE_MODELE(        MAILLAGE=MA,
  AFFE=_F( TOUT = 'OUI', PHENOMENE = 'MECANIQUE', MODELISATION = 'TUYAU_3M')
                        )
#
MATR=DEFI_MATERIAU(    ELAS=_F( E = 2.E11,
                               NU = 0.3)
                     )

#
CHMAT=AFFE_MATERIAU(    MAILLAGE=MA,
                              AFFE=_F( TOUT = 'OUI',
                                    MATER = MATR)
                        )

#
CAREL=AFFE_CARA_ELEM(    MODELE=MO,INFO=2,
 ORIENTATION=_F( GROUP_NO = 'P1', CARA = 'GENE_TUYAU', VALE = (0., 0., -1.,),),
                           POUTRE=_F(
       GROUP_MA = 'TOUT',

                                    SECTION = 'CERCLE',
                                    CARA = ('R',  'EP',),
                                    VALE = ( 0.100,0.01,
                                              ))
                       )

#
F1=DEFI_FONCTION(    NOM_PARA='X',
                           VALE=(0.,  0.,
                                 6.,  6000.,
                                ),
                       INTERPOL='LIN'
                   )

#
CHARG1=AFFE_CHAR_MECA(      MODELE=MO,DDL_IMPO=(
                            _F( GROUP_NO = 'P1',
                                      DX = 0.,
                                      DY = 0.,
                                      DZ = 0.,
                                      DRX = 0.,
                                      DRY = 0.),
                            _F( GROUP_NO = 'P11',
                                      DY = 0.))
                        )

#
CHARG2=AFFE_CHAR_MECA_F(          MODELE=MO,
                              FORCE_POUTRE=_F(
       GROUP_MA = 'TOUT',

                                            FY = F1)
                          )

LINST=DEFI_LIST_REEL(DEBUT=0.0, INTERVALLE=_F(JUSQU_A=1.,  NOMBRE=1,));
MEST1=STAT_NON_LINE(MODELE=MO,
                 CHAM_MATER=CHMAT,
                 CARA_ELEM=CAREL,
                 EXCIT=(_F(CHARGE=CHARG1,),
                        _F(CHARGE=CHARG2,),),
                 COMP_INCR=_F(RELATION='ELAS',),
                 INCREMENT=_F(LIST_INST=LINST,),
                 NEWTON=_F(MATRICE='ELASTIQUE',),)

#
#
MEST1=CALC_ELEM( reuse=MEST1,
                         RESULTAT=MEST1,
                           OPTION=('SIEF_ELNO_ELGA',
                                   )
                   )

MEST1=CALC_NO( reuse=MEST1,
                         RESULTAT=MEST1,EXCIT=(
                            _F( CHARGE = CHARG1),
                                  _F( CHARGE = CHARG2)),
                           OPTION=('FORC_NODA','REAC_NODA',
                                   'SIEF_NOEU_ELGA',
                                   )
                   )
#
TEST_RESU(   RESU=_F( RESULTAT = MEST1,
                    NOM_CHAM = 'DEPL',
                    NUME_ORDRE = 1,
                    GROUP_NO = 'P7',
                    NOM_CMP = 'DY',
                    REFERENCE='ANALYTIQUE',VALE=0.0093888,
                    PRECISION = 0.006,
                    CRITERE = 'RELATIF')
          )

TEST_RESU(   RESU=_F( RESULTAT = MEST1,
                    NOM_CHAM = 'SIEF_NOEU_ELGA',
                    NUME_ORDRE = 1,
                    NOM_CMP = 'VY',
                    GROUP_NO = 'P1',
                    REFERENCE='ANALYTIQUE',VALE=6000.,
                    PRECISION = 0.002,
                    CRITERE = 'RELATIF')
          )
TEST_RESU(   RESU=_F( RESULTAT = MEST1,
                    NOM_CHAM = 'REAC_NODA',
                    NUME_ORDRE = 1,
                    NOM_CMP = 'DY',
                    GROUP_NO = 'P1',
                    REFERENCE='ANALYTIQUE',VALE=-6000.,
                    CRITERE = 'RELATIF')
          )

#
TEST_RESU(   RESU=_F( RESULTAT = MEST1,
                    NOM_CHAM = 'SIEF_NOEU_ELGA',
                    NUME_ORDRE = 1,
                    NOM_CMP = 'VY',
                    GROUP_NO='P11',
                    REFERENCE='ANALYTIQUE',VALE=-12000.,
                    CRITERE = 'RELATIF')
          )

TEST_RESU(   RESU=_F( RESULTAT = MEST1,
                    NOM_CHAM = 'REAC_NODA',
                    NUME_ORDRE = 1,
                    NOM_CMP = 'DY',
                    GROUP_NO='P11',
                    REFERENCE='ANALYTIQUE',VALE=-12000.,
                    CRITERE = 'RELATIF')
          )

#
TEST_RESU(   RESU=_F( RESULTAT = MEST1,
                    NOM_CHAM = 'SIEF_NOEU_ELGA',
                    NUME_ORDRE = 1,
                    NOM_CMP = 'MFZ',
                    GROUP_NO='P8',
                    REFERENCE='ANALYTIQUE',VALE=-13856.41,
                    PRECISION = 0.002,
                    CRITERE = 'RELATIF')
          )

#
MEST1B=MECA_STATIQUE(        MODELE=MO,
                          CHAM_MATER=CHMAT,
                           CARA_ELEM=CAREL,EXCIT=(
                               _F( CHARGE = CHARG1),
                                     _F( CHARGE = CHARG2))
                      )

MEST1B=CALC_ELEM( reuse=MEST1B,
                         RESULTAT=MEST1B,
                           OPTION=('EFGE_ELNO_DEPL', )
                   )

MEST1B=CALC_NO( reuse=MEST1B,
                         RESULTAT=MEST1B,EXCIT=(
                            _F( CHARGE = CHARG1),
                                  _F( CHARGE = CHARG2)),
                           OPTION=('FORC_NODA','REAC_NODA',
                                   'EFGE_NOEU_DEPL',
                                   )
                   )


TEST_RESU(   RESU=_F( RESULTAT = MEST1B,
                    NOM_CHAM = 'DEPL',
                    NUME_ORDRE = 1,
                    GROUP_NO = 'P7',
                    NOM_CMP = 'DY',
                    REFERENCE='ANALYTIQUE',VALE=0.0093888,
                    PRECISION = 0.006,
                    CRITERE = 'RELATIF')
          )

TEST_RESU(   RESU=_F( RESULTAT = MEST1B,
                    NOM_CHAM = 'EFGE_NOEU_DEPL',
                    NUME_ORDRE = 1,
                    NOM_CMP = 'VY',
                    GROUP_NO = 'P1',
                    REFERENCE='ANALYTIQUE',VALE=6000.,
                    PRECISION = 0.002,
                    CRITERE = 'RELATIF')
          )
TEST_RESU(   RESU=_F( RESULTAT = MEST1B,
                    NOM_CHAM = 'REAC_NODA',
                    NUME_ORDRE = 1,
                    NOM_CMP = 'DY',
                    GROUP_NO = 'P1',
                    REFERENCE='ANALYTIQUE',VALE=-6000.,
                    CRITERE = 'RELATIF')
          )

#
TEST_RESU(   RESU=_F( RESULTAT = MEST1B,
                    NOM_CHAM = 'EFGE_NOEU_DEPL',
                    NUME_ORDRE = 1,
                    NOM_CMP = 'VY',
                    GROUP_NO='P11',
                    REFERENCE='ANALYTIQUE',VALE=-12000.,
                    CRITERE = 'RELATIF')
          )

TEST_RESU(   RESU=_F( RESULTAT = MEST1B,
                    NOM_CHAM = 'REAC_NODA',
                    NUME_ORDRE = 1,
                    NOM_CMP = 'DY',
                    GROUP_NO='P11',
                    REFERENCE='ANALYTIQUE',VALE=-12000.,
                    CRITERE = 'RELATIF')
          )

#
TEST_RESU(   RESU=_F( RESULTAT = MEST1B,
                    NOM_CHAM = 'EFGE_NOEU_DEPL',
                    NUME_ORDRE = 1,
                    NOM_CMP = 'MFZ',
                    GROUP_NO='P8',
                    REFERENCE='ANALYTIQUE',VALE=-13856.41,
                    PRECISION = 0.002,
                    CRITERE = 'RELATIF')
          )

FIN( )
#
#
