# MODIF  DATE 30/08/2010   AUTEUR PELLET J.PELLET 
# TITRE PROBLEME DE HOVGAARD : CALCUL DES EFFORTS POU_C_T + POU_D_T
# ssll101b.para = tps_job 60 mem_job 250Mo ncpus 1 liste_test S
#            CONFIGURATION MANAGEMENT OF EDF VERSION
# ======================================================================
# COPYRIGHT (C) 1991 - 2001  EDF R&D                  WWW.CODE-ASTER.ORG
# THIS PROGRAM IS FREE SOFTWARE; YOU CAN REDISTRIBUTE IT AND/OR MODIFY
# IT UNDER THE TERMS OF THE GNU GENERAL PUBLIC LICENSE AS PUBLISHED BY
# THE FREE SOFTWARE FOUNDATION; EITHER VERSION 2 OF THE LICENSE, OR
# (AT YOUR OPTION) ANY LATER VERSION.
#
# THIS PROGRAM IS DISTRIBUTED IN THE HOPE THAT IT WILL BE USEFUL, BUT
# WITHOUT ANY WARRANTY; WITHOUT EVEN THE IMPLIED WARRANTY OF
# MERCHANTABILITY OR FITNESS FOR A PARTICULAR PURPOSE. SEE THE GNU
# GENERAL PUBLIC LICENSE FOR MORE DETAILS.
#
# YOU SHOULD HAVE RECEIVED A COPY OF THE GNU GENERAL PUBLIC LICENSE
# ALONG WITH THIS PROGRAM; IF NOT, WRITE TO EDF R&D CODE_ASTER,
#    1 AVENUE DU GENERAL DE GAULLE, 92141 CLAMART CEDEX, FRANCE.
# ======================================================================
# RESPONSABLE JMBHH01 J.M.PROIX
#                               +----------------------+
#                               ! INTERFACE POUX-ASTER !
#                               +----------------------+
#
#       CONVERSION EFFECTUEE LE  ME-08-JANV-92 14:52:58
#       +     RAJOUT DES TEST_RESU
# ----------------------------------------------------------------------
# * MEMBRE CODES C / A --- EFPOU  ---             *** OCTOBRE 87 ***
# * - PROBLEME DE HOVGAARD : CALCUL DE CONTRAINTES STATIQUES ET THERMIQU
# * - COMPARAISON AVEC TITUS-T  &  ADL
# *
# ----------------------------------------------------------------------

DEBUT(CODE=_F(NOM='SSLL101B',NIV_PUB_WEB='INTERNET'),DEBUG=_F(SDVERI='OUI'))

#

MAILLAGE=LIRE_MAILLAGE( )

MODELE=AFFE_MODELE(  MAILLAGE=MAILLAGE,AFFE=(
                      _F(  GROUP_MA = 'POU_D_T',PHENOMENE = 'MECANIQUE',
                             MODELISATION = 'POU_D_T'),
                           _F(  GROUP_MA = 'POU_C_T',PHENOMENE = 'MECANIQUE',
                             MODELISATION = 'POU_C_T'))
                  )

#
# ----------------------------------------------------------------------
#  DEFINITION DES MATERIAUX



MAT_1=DEFI_MATERIAU(  ELAS=_F(
                         E = 1.658000000E+11,NU = 3.000000000E-01,
                         RHO = 1.340410000E+04,ALPHA = 1.288000000E-05) )

#

CHAMPMAT=AFFE_MATERIAU(   MAILLAGE=MAILLAGE,
                     AFFE=_F(  GROUP_MA = 'MAT_1',    MATER = MAT_1) )

#
# ----------------------------------------------------------------------
#       CONDITIONS LIMITES

CON_LIM=AFFE_CHAR_MECA( MODELE=MODELE,
                        DDL_IMPO=_F(  GROUP_NO = 'ENCASTRE',
                              DX = 0., DY = 0., DZ = 0.,
                              DRX = 0., DRY = 0., DRZ = 0.)
                  )

#

# ---------- AFFECTATION DES CARACTERISTIQUES ELEMENTAIRES ----------

CARA_ELE=AFFE_CARA_ELEM( MODELE=MODELE,
#
       POUTRE=(
          _F(  GROUP_MA = 'SEC_1',
             SECTION = 'GENERALE',
              CARA = ('A', 'IZ', 'IY', 'AY', 'AZ', 'JX',
                      'EZ', 'EY', 'RY', 'RZ', 'RT', ),
              VALE = ( 3.439000000E-03, 1.377000000E-05, 1.377000000E-05,
                      2.000000000E+00, 2.000000000E+00, 2.754000000E-05,
                      0.000000000E+00, 0.000000000E+00, 1.000000000E+00,
                      1.000000000E+00, 1.000000000E+00, )),
          _F(  GROUP_MA = 'SEC_2',   SECTION = 'GENERALE',
             CARA = ('A', 'IZ', 'IY', 'AY', 'AZ', 'JX',
                      'EZ', 'EY', 'RY', 'RZ', 'RT', ),
               VALE = ( 3.439000000E-03, 5.887000000E-06, 5.887000000E-06,
                      2.000000000E+00, 2.000000000E+00, 2.754000000E-05,
                      0.000000000E+00, 0.000000000E+00, 1.000000000E+00,
                      1.000000000E+00, 1.000000000E+00, ))),
#
     DEFI_ARC=(
          _F( MAILLE = ('E9', 'E10',),
                     POIN_TANG = (0.,     0.,     0.), ),
          _F(  MAILLE = ('E3','E4',),
                     CENTRE = (0., -1.828, -0.922),), )
         )

# ----------------------------------------------------------------------
# CALCUL STATIQUE

#CHARGEMENT 1

CH1=AFFE_CHAR_MECA( MODELE=MODELE,
                 PESANTEUR=_F(GRAVITE=-9.81,
                              DIRECTION=( 0., 0., 1.,), ),)

TEMPER=CREA_CHAMP( OPERATION='AFFE', TYPE_CHAM='NOEU_TEMP_R',
MAILLAGE=MAILLAGE,AFFE=(
       _F( NOEUD = 'N100',    NOM_CMP = 'TEMP',VALE = 4.722200000E+02),
       _F( NOEUD = 'N200',    NOM_CMP = 'TEMP',VALE = 4.722200000E+02),
       _F( NOEUD = 'N200',    NOM_CMP = 'TEMP',VALE = 4.722200000E+02),
       _F( NOEUD = 'N300',    NOM_CMP = 'TEMP',VALE = 4.722200000E+02),
       _F( NOEUD = 'N500',    NOM_CMP = 'TEMP',VALE = 4.722200000E+02),
       _F( NOEUD = 'N600',    NOM_CMP = 'TEMP',VALE = 4.722200000E+02),
       _F( NOEUD = 'N600',    NOM_CMP = 'TEMP',VALE = 4.722200000E+02),
       _F( NOEUD = 'N700',    NOM_CMP = 'TEMP',VALE = 4.722200000E+02),
       _F( NOEUD = 'N700',    NOM_CMP = 'TEMP',VALE = 4.722200000E+02),
       _F( NOEUD = 'N800',    NOM_CMP = 'TEMP',VALE = 4.722200000E+02),
       _F( NOEUD = 'N800',    NOM_CMP = 'TEMP',VALE = 4.722200000E+02),
       _F( NOEUD = 'N900',    NOM_CMP = 'TEMP',VALE = 4.722200000E+02),
       _F( NOEUD = 'N1100',   NOM_CMP = 'TEMP',VALE = 4.722200000E+02),
       _F( NOEUD = 'N1200',   NOM_CMP = 'TEMP',VALE = 4.722200000E+02),
       _F( NOEUD = 'N1200',   NOM_CMP = 'TEMP',VALE = 4.722200000E+02),
       _F( NOEUD = 'N1300',   NOM_CMP = 'TEMP',VALE = 4.722200000E+02),
       _F( NOEUD = 'N1300',   NOM_CMP = 'TEMP',VALE = 4.722200000E+02),
       _F( NOEUD = 'N1400',   NOM_CMP = 'TEMP',VALE = 4.722200000E+02),
       _F( NOEUD = 'N1400',   NOM_CMP = 'TEMP',VALE = 4.722200000E+02),
       _F( NOEUD = 'N1500',   NOM_CMP = 'TEMP',VALE = 4.722200000E+02),
# ... 7 like lines cut
       _F( NOEUD = 'N1100',   NOM_CMP = 'TEMP',VALE = 4.722200000E+02))
         )


#CHARGEMENT 3

CH3=AFFE_CHAR_MECA( MODELE=MODELE,FORCE_NODALE=(
             _F( NOEUD = 'N200',    FZ = -6.248970000E+02),
             _F( NOEUD = 'N300',    FZ = -7.887240000E+02),
             _F( NOEUD = 'N400',    FZ = -3.276540000E+02),
             _F( NOEUD = 'N500',    FZ = -2.148390000E+02),
             _F( NOEUD = 'N600',    FZ = -1.025140000E+02),
             _F( NOEUD = 'N700',    FZ = -1.025140000E+02),
             _F( NOEUD = 'N800',    FZ = -1.025140000E+02),
             _F( NOEUD = 'N900',    FZ = -2.148390000E+02),
             _F( NOEUD = 'N1000',   FZ = -3.276540000E+02),
             _F( NOEUD = 'N1100',   FZ = -2.226870000E+02),
             _F( NOEUD = 'N1200',   FZ = -1.177200000E+02),
             _F( NOEUD = 'N1300',   FZ = -1.177200000E+02),
             _F( NOEUD = 'N1400',   FZ = -1.765800000E+02))
               )

TEMPE=CREA_RESU(
                OPERATION='AFFE', TYPE_RESU='EVOL_THER',
                NOM_CHAM='TEMP',
                AFFE=_F(
                   INST = 0.0,
                   CHAM_GD = TEMPER),
                )

CHAMTH=AFFE_MATERIAU(   MAILLAGE=MAILLAGE,
                     AFFE=_F(  GROUP_MA = 'MAT_1',    MATER = MAT_1),
                     AFFE_VARC=_F( TOUT='OUI',
                              EVOL=TEMPE,VALE_REF=0.,
                              NOM_VARC='TEMP',
                              NOM_CHAM='TEMP',),
                    );

RESU=MACRO_ELAS_MULT(MODELE=MODELE,
                    CHAM_MATER=CHAMPMAT,
                    CARA_ELEM=CARA_ELE,
                    CHAR_MECA_GLOBAL=CON_LIM,
                    CAS_CHARGE=(_F(NOM_CAS='CHARGE1',
                                   CHAR_MECA=CH1,),
                                _F(NOM_CAS='CHARGE3',
                                   CHAR_MECA=CH3,),
                                ),
                     );

RESU=CALC_ELEM( reuse= RESU ,RESULTAT= RESU ,


                              EXCIT=_F( CHARGE = CH1),
                              OPTION=('EFGE_ELNO_DEPL'),
                              NUME_ORDRE=1,
                )

RESU=CALC_ELEM( reuse= RESU ,RESULTAT= RESU ,


                              EXCIT=_F( CHARGE = CH3),
                             OPTION=('EFGE_ELNO_DEPL',),
                             NUME_ORDRE=2,
               )

RESU1=MECA_STATIQUE(       MODELE=MODELE,
                           CHAM_MATER=CHAMTH,
                            CARA_ELEM=CARA_ELE,
                            EXCIT=_F( CHARGE = CON_LIM),)

RESU1=CALC_ELEM( reuse= RESU1 ,RESULTAT= RESU1 ,


                             OPTION=('EFGE_ELNO_DEPL',),
               )



TEST_RESU(RESU=(

#DEPLACEMENT

         _F( RESULTAT = RESU, NOM_CHAM='DEPL', NUME_ORDRE=1,
         NOEUD = 'N300', NOM_CMP = 'DX', VALE = -0.1658E-3),

         _F( RESULTAT = RESU, NOM_CHAM='DEPL', NUME_ORDRE=1,
         NOEUD = 'N300', NOM_CMP = 'DY', VALE = -0.2040E-4,PRECISION = 8.E-3),

         _F( RESULTAT = RESU, NOM_CHAM='DEPL', NUME_ORDRE=1,
         NOEUD = 'N300', NOM_CMP = 'DZ', VALE = -0.8010E-5),

         _F( RESULTAT = RESU, NOM_CHAM='DEPL', NUME_ORDRE=1,
         NOEUD = 'N500', NOM_CMP = 'DX', VALE = -0.2397E-3),

         _F( RESULTAT = RESU, NOM_CHAM='DEPL', NUME_ORDRE=1,
         NOEUD = 'N500', NOM_CMP = 'DY', VALE = 0.1777E-3),

         _F( RESULTAT = RESU, NOM_CHAM='DEPL', NUME_ORDRE=1,
         NOEUD = 'N500', NOM_CMP = 'DZ', VALE = -0.2681E-3),

         _F( RESULTAT = RESU, NOM_CHAM='DEPL', NUME_ORDRE=1,
         NOEUD = 'N700', NOM_CMP = 'DX', VALE = -0.1855E-3),

         _F( RESULTAT = RESU, NOM_CHAM='DEPL', NUME_ORDRE=1,
         NOEUD = 'N700', NOM_CMP = 'DY', VALE = 0.1775E-3),

         _F( RESULTAT = RESU, NOM_CHAM='DEPL', NUME_ORDRE=1,
         NOEUD = 'N700', NOM_CMP = 'DZ', VALE = -0.3940E-3),

         _F( RESULTAT = RESU, NOM_CHAM='DEPL', NUME_ORDRE=1,
         NOEUD = 'N900', NOM_CMP = 'DX', VALE = -0.1278E-3),

         _F( RESULTAT = RESU, NOM_CHAM='DEPL', NUME_ORDRE=1,
         NOEUD = 'N900', NOM_CMP = 'DY', VALE = 0.1774E-3),

         _F( RESULTAT = RESU, NOM_CHAM='DEPL', NUME_ORDRE=1,
         NOEUD = 'N900', NOM_CMP = 'DZ', VALE = -0.4977E-3),

         _F( RESULTAT = RESU, NOM_CHAM='DEPL', NUME_ORDRE=1,
         NOEUD = 'N1100', NOM_CMP = 'DX', VALE = 0.0,CRITERE = 'ABSOLU'),

         _F( RESULTAT = RESU, NOM_CHAM='DEPL', NUME_ORDRE=1,
         NOEUD = 'N1100', NOM_CMP = 'DY', VALE = 0.5682E-4),

         _F( RESULTAT = RESU, NOM_CHAM='DEPL', NUME_ORDRE=1,
         NOEUD = 'N1100', NOM_CMP = 'DZ', VALE = -0.2207E-3),

# EFFORT GENERALISE


   _F( RESULTAT = RESU, NOM_CHAM='EFGE_ELNO_DEPL', NUME_ORDRE=1,
   MAILLE = 'E1',NOEUD = 'N100',NOM_CMP = 'N',VALE = -2276.,PRECISION = 5.E-3),

   _F( RESULTAT = RESU, NOM_CHAM='EFGE_ELNO_DEPL', NUME_ORDRE=1,
   MAILLE = 'E1',NOEUD = 'N100',NOM_CMP = 'VY',VALE = -161.1),

   _F( RESULTAT = RESU, NOM_CHAM='EFGE_ELNO_DEPL', NUME_ORDRE=1,
   MAILLE = 'E1',NOEUD = 'N100',NOM_CMP = 'VZ',VALE = -10.095,PRECISION = 5.E-3),

   _F( RESULTAT = RESU, NOM_CHAM='EFGE_ELNO_DEPL', NUME_ORDRE=1,
   MAILLE = 'E1',NOEUD = 'N100',NOM_CMP = 'MT', VALE = -53.40),

   _F( RESULTAT = RESU, NOM_CHAM='EFGE_ELNO_DEPL', NUME_ORDRE=1,
   MAILLE = 'E1',NOEUD = 'N100',NOM_CMP = 'MFY',VALE = -89.66),

   _F( RESULTAT = RESU, NOM_CHAM='EFGE_ELNO_DEPL', NUME_ORDRE=1,
   MAILLE = 'E1',NOEUD = 'N100',NOM_CMP = 'MFZ',VALE = -158.5),

   _F( RESULTAT = RESU, NOM_CHAM='EFGE_ELNO_DEPL', NUME_ORDRE=1,
   MAILLE = 'E14',NOEUD = 'N1500',NOM_CMP = 'N',VALE = 10.095,PRECISION = 5.E-3),

   _F( RESULTAT = RESU, NOM_CHAM='EFGE_ELNO_DEPL', NUME_ORDRE=1,
   MAILLE = 'E14',NOEUD = 'N1500',NOM_CMP = 'VY',VALE = -161.1),

   _F( RESULTAT = RESU, NOM_CHAM='EFGE_ELNO_DEPL', NUME_ORDRE=1,
   MAILLE = 'E14',NOEUD = 'N1500',NOM_CMP = 'VZ',VALE = 1165.,PRECISION = 5.E-3),

   _F( RESULTAT = RESU, NOM_CHAM='EFGE_ELNO_DEPL', NUME_ORDRE=1,
   MAILLE = 'E14',NOEUD = 'N1500',NOM_CMP = 'MT',VALE = 15.60,PRECISION = 5.E-3),

   _F( RESULTAT = RESU, NOM_CHAM='EFGE_ELNO_DEPL', NUME_ORDRE=1,
   MAILLE = 'E14',NOEUD = 'N1500',NOM_CMP = 'MFY',VALE = 1260.5,PRECISION = 5.E-3),

   _F( RESULTAT = RESU, NOM_CHAM='EFGE_ELNO_DEPL', NUME_ORDRE=1,
   MAILLE = 'E14',NOEUD = 'N1500',NOM_CMP = 'MFZ',VALE = 290.1,),),
           );


## FIN DES TESTS DE LA CHARGE 1

TEST_RESU(RESU=(

#DEPLACEMENT

         _F( RESULTAT = RESU1, NOM_CHAM='DEPL', NUME_ORDRE=1,
         NOEUD = 'N300', NOM_CMP = 'DX', VALE = -6.1418E-3),

         _F( RESULTAT = RESU1, NOM_CHAM='DEPL', NUME_ORDRE=1,
         NOEUD = 'N300', NOM_CMP = 'DY', VALE = -13.090E-3),

         _F( RESULTAT = RESU1, NOM_CHAM='DEPL', NUME_ORDRE=1,
         NOEUD = 'N300', NOM_CMP = 'DZ', VALE = 16.799E-3),

         _F( RESULTAT = RESU1, NOM_CHAM='DEPL', NUME_ORDRE=1,
         NOEUD = 'N500', NOM_CMP = 'DX', VALE = -10.302E-3),

         _F( RESULTAT = RESU1, NOM_CHAM='DEPL', NUME_ORDRE=1,
         NOEUD = 'N500', NOM_CMP = 'DY', VALE = -8.132E-3),

         _F( RESULTAT = RESU1, NOM_CHAM='DEPL', NUME_ORDRE=1,
         NOEUD = 'N500', NOM_CMP = 'DZ', VALE = 19.723E-3),

         _F( RESULTAT = RESU1, NOM_CHAM='DEPL',NUME_ORDRE=1,
         NOEUD = 'N700', NOM_CMP = 'DX', VALE = -11.370E-3),

         _F( RESULTAT = RESU1, NOM_CHAM='DEPL', NUME_ORDRE=1,
         NOEUD = 'N700', NOM_CMP = 'DY', VALE = -5.383E-3),

         _F( RESULTAT = RESU1, NOM_CHAM='DEPL',NUME_ORDRE=1,
         NOEUD = 'N700', NOM_CMP = 'DZ', VALE = 16.135E-3),

         _F( RESULTAT = RESU1, NOM_CHAM='DEPL',NUME_ORDRE=1,
         NOEUD = 'N900', NOM_CMP = 'DX', VALE = -12.238E-3),

         _F( RESULTAT = RESU1, NOM_CHAM='DEPL', NUME_ORDRE=1,
         NOEUD = 'N900', NOM_CMP = 'DY', VALE = -2.633E-3),

         _F( RESULTAT = RESU1, NOM_CHAM='DEPL', NUME_ORDRE=1,
         NOEUD = 'N900', NOM_CMP = 'DZ', VALE = 12.262E-3),

         _F( RESULTAT = RESU1, NOM_CHAM='DEPL',NUME_ORDRE=1,
         NOEUD = 'N1100', NOM_CMP = 'DX', VALE = -6.308E-3),

         _F( RESULTAT = RESU1, NOM_CHAM='DEPL', NUME_ORDRE=1,
         NOEUD = 'N1100', NOM_CMP = 'DY', VALE = 1.542E-3),

         _F( RESULTAT = RESU1, NOM_CHAM='DEPL', NUME_ORDRE=1,
         NOEUD = 'N1100', NOM_CMP = 'DZ', VALE = 1.931E-3),

#EFFORT GENERALISE

   _F( RESULTAT = RESU1,MAILLE = 'E1', NOM_CHAM='EFGE_ELNO_DEPL',NUME_ORDRE=1,
   NOEUD = 'N100',NOM_CMP = 'N',VALE = -7431.),

   _F( RESULTAT = RESU1,MAILLE = 'E1', NOM_CHAM='EFGE_ELNO_DEPL', NUME_ORDRE=1,
   NOEUD = 'N100',NOM_CMP = 'VY',VALE = -7613.),

   _F( RESULTAT = RESU1,MAILLE = 'E1', NOM_CHAM='EFGE_ELNO_DEPL', NUME_ORDRE=1,
   NOEUD = 'N100',NOM_CMP = 'VZ',VALE = 2791.),

   _F( RESULTAT = RESU1,MAILLE = 'E1', NOM_CHAM='EFGE_ELNO_DEPL',NUME_ORDRE=1,
   NOEUD = 'N100',NOM_CMP = 'MT',VALE = 1615.),

   _F( RESULTAT = RESU1,MAILLE = 'E1', NOM_CHAM='EFGE_ELNO_DEPL', NUME_ORDRE=1,
   NOEUD = 'N100',NOM_CMP = 'MFY',VALE = -6193.),

   _F( RESULTAT = RESU1,MAILLE = 'E1', NOM_CHAM='EFGE_ELNO_DEPL',NUME_ORDRE=1,
   NOEUD = 'N100',NOM_CMP = 'MFZ',VALE = -14712.),

   _F( RESULTAT = RESU1,MAILLE = 'E14', NOM_CHAM='EFGE_ELNO_DEPL', NUME_ORDRE=1,
   NOEUD = 'N1500',NOM_CMP = 'N',VALE = -2791.),

   _F( RESULTAT = RESU1,MAILLE = 'E14', NOM_CHAM='EFGE_ELNO_DEPL', NUME_ORDRE=1,
   NOEUD = 'N1500',NOM_CMP = 'VY',VALE = -7613.),

   _F( RESULTAT = RESU1,MAILLE = 'E14', NOM_CHAM='EFGE_ELNO_DEPL',NUME_ORDRE=1,
   NOEUD = 'N1500',NOM_CMP = 'VZ',VALE = -7433.),

   _F( RESULTAT = RESU1,MAILLE = 'E14', NOM_CHAM='EFGE_ELNO_DEPL', NUME_ORDRE=1,
   NOEUD = 'N1500',NOM_CMP = 'MT',VALE = 7052.),

   _F( RESULTAT = RESU1,MAILLE = 'E14', NOM_CHAM='EFGE_ELNO_DEPL',NUME_ORDRE=1,
   NOEUD = 'N1500',NOM_CMP = 'MFY',VALE = -10460.),

   _F( RESULTAT = RESU1,MAILLE = 'E14', NOM_CHAM='EFGE_ELNO_DEPL', NUME_ORDRE=1,
   NOEUD = 'N1500',NOM_CMP = 'MFZ',VALE = 8862.,),),
           );
#########

TEST_RESU(RESU=(

# DEPLACEMENTS

        _F( RESULTAT = RESU, NOM_CHAM='DEPL', NUME_ORDRE=2,
        NOEUD = 'N300', NOM_CMP = 'DX', VALE = -0.1651E-3),

        _F( RESULTAT = RESU, NOM_CHAM='DEPL', NUME_ORDRE=2,
        NOEUD = 'N300', NOM_CMP = 'DY', VALE = -0.2080E-4),

        _F( RESULTAT = RESU, NOM_CHAM='DEPL', NUME_ORDRE=2,
        NOEUD = 'N300', NOM_CMP = 'DZ', VALE = -0.9516E-5),

        _F( RESULTAT = RESU, NOM_CHAM='DEPL', NUME_ORDRE=2,
        NOEUD = 'N500', NOM_CMP = 'DX', VALE = -0.2386E-3),

        _F( RESULTAT = RESU, NOM_CHAM='DEPL', NUME_ORDRE=2,
        NOEUD = 'N500', NOM_CMP = 'DY', VALE = 0.1773E-3),

        _F( RESULTAT = RESU, NOM_CHAM='DEPL', NUME_ORDRE=2,
        NOEUD = 'N500', NOM_CMP = 'DZ', VALE = -0.2697E-3),

        _F( RESULTAT = RESU, NOM_CHAM='DEPL', NUME_ORDRE=2,
        NOEUD = 'N700', NOM_CMP = 'DX', VALE = -0.1848E-3),

        _F( RESULTAT = RESU, NOM_CHAM='DEPL', NUME_ORDRE=2,
        NOEUD = 'N700', NOM_CMP = 'DY', VALE = 0.1771E-3),

        _F( RESULTAT = RESU, NOM_CHAM='DEPL', NUME_ORDRE=2,
        NOEUD = 'N700', NOM_CMP = 'DZ', VALE = -0.3948E-3),

        _F( RESULTAT = RESU, NOM_CHAM='DEPL', NUME_ORDRE=2,
        NOEUD = 'N900', NOM_CMP = 'DX', VALE = -0.1274E-3),

        _F( RESULTAT = RESU, NOM_CHAM='DEPL', NUME_ORDRE=2,
        NOEUD = 'N900', NOM_CMP = 'DY', VALE = 0.1770E-3),

        _F( RESULTAT = RESU, NOM_CHAM='DEPL', NUME_ORDRE=2,
        NOEUD = 'N900', NOM_CMP = 'DZ', VALE = -0.4964E-3),

        _F( RESULTAT = RESU, NOM_CHAM='DEPL', NUME_ORDRE=2,
        NOEUD = 'N1100', NOM_CMP = 'DX', VALE = 0.0,CRITERE = 'ABSOLU'),

        _F( RESULTAT = RESU, NOM_CHAM='DEPL', NUME_ORDRE=2,
        NOEUD = 'N1100', NOM_CMP = 'DY', VALE = 0.5674E-4),

        _F( RESULTAT = RESU, NOM_CHAM='DEPL', NUME_ORDRE=2,
        NOEUD = 'N1100', NOM_CMP = 'DZ', VALE = -0.2186E-3),

# EFFORTS GENERALISE

   _F( RESULTAT = RESU,MAILLE = 'E1', NOM_CHAM='EFGE_ELNO_DEPL', NUME_ORDRE=2,
   NOEUD = 'N100',NOM_CMP = 'N',  VALE = -2273.),

   _F( RESULTAT = RESU,MAILLE = 'E1', NOM_CHAM='EFGE_ELNO_DEPL', NUME_ORDRE=2,
   NOEUD = 'N100',NOM_CMP = 'VY', VALE = -161.1),

   _F( RESULTAT = RESU,MAILLE = 'E1', NOM_CHAM='EFGE_ELNO_DEPL', NUME_ORDRE=2,
   NOEUD = 'N100',NOM_CMP = 'VZ', VALE = -9.810),

   _F( RESULTAT = RESU,MAILLE = 'E1', NOM_CHAM='EFGE_ELNO_DEPL', NUME_ORDRE=2,
   NOEUD = 'N100',NOM_CMP = 'MT', VALE = -53.02),

   _F( RESULTAT = RESU,MAILLE = 'E1', NOM_CHAM='EFGE_ELNO_DEPL', NUME_ORDRE=2,
   NOEUD = 'N100',NOM_CMP = 'MFY',VALE = -89.53),

   _F( RESULTAT = RESU,MAILLE = 'E1', NOM_CHAM='EFGE_ELNO_DEPL', NUME_ORDRE=2,
   NOEUD = 'N100',NOM_CMP = 'MFZ',VALE = -158.63),

   _F( RESULTAT = RESU,MAILLE = 'E14', NOM_CHAM='EFGE_ELNO_DEPL', NUME_ORDRE=2,
   NOEUD = 'N1500',NOM_CMP = 'N',VALE = 9.810),

   _F( RESULTAT = RESU,MAILLE = 'E14', NOM_CHAM='EFGE_ELNO_DEPL', NUME_ORDRE=2,
   NOEUD = 'N1500',NOM_CMP = 'VY',VALE = -161.1),

   _F( RESULTAT = RESU,MAILLE = 'E14', NOM_CHAM='EFGE_ELNO_DEPL', NUME_ORDRE=2,
   NOEUD = 'N1500',NOM_CMP = 'VZ',VALE = 1168.),

   _F( RESULTAT = RESU,MAILLE = 'E14', NOM_CHAM='EFGE_ELNO_DEPL', NUME_ORDRE=2,
   NOEUD = 'N1500',NOM_CMP = 'MT',VALE = 11.90,PRECISION = 5.E-3),

   _F( RESULTAT = RESU,MAILLE = 'E14', NOM_CHAM='EFGE_ELNO_DEPL', NUME_ORDRE=2,
   NOEUD = 'N1500',NOM_CMP = 'MFY',VALE = 1261.),

   _F( RESULTAT = RESU,MAILLE = 'E14', NOM_CHAM='EFGE_ELNO_DEPL', NUME_ORDRE=2,
   NOEUD = 'N1500',NOM_CMP = 'MFZ',VALE = 289.7,),),
           );

## FIN DES TESTS DE LA CHARGE 2


# ----------------------------------------------------------------------
FIN()
#
