 TITRE
CODE_ASTER - 11.00.27 - VERSION DE DEVELOPPEMENT          - FRONTAL1         - L
 FINSF
 %
 COOR_3D
 N1        0.00000000000000E+00  0.00000000000000E+00  0.00000000000000E+00
 N2        4.00000000000000E+00  3.00000000000000E+00  0.00000000000000E+00
 N3        2.50000000000000E-01  1.87500000000000E-01  0.00000000000000E+00
 N4        5.00000000000000E-01  3.75000000000000E-01  0.00000000000000E+00
 N5        7.50000000000000E-01  5.62500000000000E-01  0.00000000000000E+00
 N6        1.00000000000000E+00  7.50000000000000E-01  0.00000000000000E+00
 N7        1.25000000000000E+00  9.37500000000000E-01  0.00000000000000E+00
 N8        1.50000000000000E+00  1.12500000000000E+00  0.00000000000000E+00
 N9        1.75000000000000E+00  1.31250000000000E+00  0.00000000000000E+00
 N10       2.00000000000000E+00  1.50000000000000E+00  0.00000000000000E+00
 N11       2.25000000000000E+00  1.68750000000000E+00  0.00000000000000E+00
 N12       2.50000000000000E+00  1.87500000000000E+00  0.00000000000000E+00
 N13       2.75000000000000E+00  2.06250000000000E+00  0.00000000000000E+00
 N14       3.00000000000000E+00  2.25000000000000E+00  0.00000000000000E+00
 N15       3.25000000000000E+00  2.43750000000000E+00  0.00000000000000E+00
 N16       3.50000000000000E+00  2.62500000000000E+00  0.00000000000000E+00
 N17       3.75000000000000E+00  2.81250000000000E+00  0.00000000000000E+00
 FINSF
 %
 SEG3    
 M1       N1       N4       N3      
 M2       N4       N6       N5      
 M3       N6       N8       N7      
 M4       N8       N10      N9      
 M5       N10      N12      N11     
 M6       N12      N14      N13     
 M7       N14      N16      N15     
 M8       N16      N2       N17     
 FINSF
 %
 GROUP_NO
 A       
 N1      
 FINSF
 %
 GROUP_NO
 B       
 N2      
 FINSF
 %
 GROUP_MA
 MA      
 M1       M2       M3       M4       M5       M6       M7      
 M8      
 FINSF
 %
 FIN
