# TITRE PROBLEME DE HOVGAARD : CALCUL DES EFFORTS POU_C_T + POU_D_T
# ======================================================================
# COPYRIGHT (C) 1991 - 2012  EDF R&D                  WWW.CODE-ASTER.ORG
# THIS PROGRAM IS FREE SOFTWARE; YOU CAN REDISTRIBUTE IT AND/OR MODIFY
# IT UNDER THE TERMS OF THE GNU GENERAL PUBLIC LICENSE AS PUBLISHED BY
# THE FREE SOFTWARE FOUNDATION; EITHER VERSION 2 OF THE LICENSE, OR
# (AT YOUR OPTION) ANY LATER VERSION.
#
# THIS PROGRAM IS DISTRIBUTED IN THE HOPE THAT IT WILL BE USEFUL, BUT
# WITHOUT ANY WARRANTY; WITHOUT EVEN THE IMPLIED WARRANTY OF
# MERCHANTABILITY OR FITNESS FOR A PARTICULAR PURPOSE. SEE THE GNU
# GENERAL PUBLIC LICENSE FOR MORE DETAILS.
#
# YOU SHOULD HAVE RECEIVED A COPY OF THE GNU GENERAL PUBLIC LICENSE
# ALONG WITH THIS PROGRAM; IF NOT, WRITE TO EDF R&D CODE_ASTER,
#    1 AVENUE DU GENERAL DE GAULLE, 92141 CLAMART CEDEX, FRANCE.
# ======================================================================
# person_in_charge: jean-michel.proix at edf.fr
#                               +----------------------+
#                               ! INTERFACE POUX-ASTER !
#                               +----------------------+
#
#       CONVERSION EFFECTUEE LE  ME-08-JANV-92 14:52:58
#       +     RAJOUT DES TEST_RESU
# ----------------------------------------------------------------------
# * MEMBRE CODES C / A --- EFPOU  ---             *** OCTOBRE 87 ***
# * - PROBLEME DE HOVGAARD : CALCUL DE CONTRAINTES STATIQUES ET THERMIQU
# * - COMPARAISON AVEC TITUS-T  &  ADL
# *
# ----------------------------------------------------------------------

DEBUT(CODE=_F(NIV_PUB_WEB='INTERNET'),DEBUG=_F(SDVERI='OUI'))

#

MAILLAGE=LIRE_MAILLAGE(FORMAT='MED', )

MODELE=AFFE_MODELE(  MAILLAGE=MAILLAGE,AFFE=(
                      _F(  GROUP_MA = 'POU_D_T',PHENOMENE = 'MECANIQUE',
                             MODELISATION = 'POU_D_T'),
                           _F(  GROUP_MA = 'POU_C_T',PHENOMENE = 'MECANIQUE',
                             MODELISATION = 'POU_C_T'))
                  )

#
# ----------------------------------------------------------------------
#  DEFINITION DES MATERIAUX



MAT_1=DEFI_MATERIAU(  ELAS=_F(
                         E = 1.658000000E+11,NU = 3.000000000E-01,
                         RHO = 1.340410000E+04,ALPHA = 1.288000000E-05) )

#

CHAMPMAT=AFFE_MATERIAU(   MAILLAGE=MAILLAGE,
                     AFFE=_F(  GROUP_MA = 'MAT_1',    MATER = MAT_1) )

#
# ----------------------------------------------------------------------
#       CONDITIONS LIMITES

CON_LIM=AFFE_CHAR_MECA( MODELE=MODELE,
                        DDL_IMPO=_F(  GROUP_NO = 'ENCASTRE',
                              DX = 0., DY = 0., DZ = 0.,
                              DRX = 0., DRY = 0., DRZ = 0.)
                  )

#

# ---------- AFFECTATION DES CARACTERISTIQUES ELEMENTAIRES ----------

CARA_ELE=AFFE_CARA_ELEM( MODELE=MODELE,
#
       POUTRE=(
          _F(  GROUP_MA = 'SEC_1',
             SECTION = 'GENERALE',
              CARA = ('A', 'IZ', 'IY', 'AY', 'AZ', 'JX',
                      'EZ', 'EY', 'RY', 'RZ', 'RT', ),
              VALE = ( 3.439000000E-03, 1.377000000E-05, 1.377000000E-05,
                      2.000000000E+00, 2.000000000E+00, 2.754000000E-05,
                      0.000000000E+00, 0.000000000E+00, 1.000000000E+00,
                      1.000000000E+00, 1.000000000E+00, )),
          _F(  GROUP_MA = 'SEC_2',   SECTION = 'GENERALE',
             CARA = ('A', 'IZ', 'IY', 'AY', 'AZ', 'JX',
                      'EZ', 'EY', 'RY', 'RZ', 'RT', ),
               VALE = ( 3.439000000E-03, 5.887000000E-06, 5.887000000E-06,
                      2.000000000E+00, 2.000000000E+00, 2.754000000E-05,
                      0.000000000E+00, 0.000000000E+00, 1.000000000E+00,
                      1.000000000E+00, 1.000000000E+00, ))),
#
     DEFI_ARC=(
          _F( MAILLE = ('E9', 'E10',),
                     POIN_TANG = (0.,     0.,     0.), ),
          _F(  MAILLE = ('E3','E4',),
                     CENTRE = (0., -1.828, -0.922),), )
         )

# ----------------------------------------------------------------------
# CALCUL STATIQUE

#CHARGEMENT 1

CH1=AFFE_CHAR_MECA( MODELE=MODELE,
                 PESANTEUR=_F(GRAVITE=-9.81,
                              DIRECTION=( 0., 0., 1.,), ),)

TEMPER=CREA_CHAMP( OPERATION='AFFE', TYPE_CHAM='NOEU_TEMP_R',
MAILLAGE=MAILLAGE,AFFE=(
       _F( NOEUD = 'N100',    NOM_CMP = 'TEMP',VALE = 4.722200000E+02),
       _F( NOEUD = 'N200',    NOM_CMP = 'TEMP',VALE = 4.722200000E+02),
       _F( NOEUD = 'N200',    NOM_CMP = 'TEMP',VALE = 4.722200000E+02),
       _F( NOEUD = 'N300',    NOM_CMP = 'TEMP',VALE = 4.722200000E+02),
       _F( NOEUD = 'N500',    NOM_CMP = 'TEMP',VALE = 4.722200000E+02),
       _F( NOEUD = 'N600',    NOM_CMP = 'TEMP',VALE = 4.722200000E+02),
       _F( NOEUD = 'N600',    NOM_CMP = 'TEMP',VALE = 4.722200000E+02),
       _F( NOEUD = 'N700',    NOM_CMP = 'TEMP',VALE = 4.722200000E+02),
       _F( NOEUD = 'N700',    NOM_CMP = 'TEMP',VALE = 4.722200000E+02),
       _F( NOEUD = 'N800',    NOM_CMP = 'TEMP',VALE = 4.722200000E+02),
       _F( NOEUD = 'N800',    NOM_CMP = 'TEMP',VALE = 4.722200000E+02),
       _F( NOEUD = 'N900',    NOM_CMP = 'TEMP',VALE = 4.722200000E+02),
       _F( NOEUD = 'N1100',   NOM_CMP = 'TEMP',VALE = 4.722200000E+02),
       _F( NOEUD = 'N1200',   NOM_CMP = 'TEMP',VALE = 4.722200000E+02),
       _F( NOEUD = 'N1200',   NOM_CMP = 'TEMP',VALE = 4.722200000E+02),
       _F( NOEUD = 'N1300',   NOM_CMP = 'TEMP',VALE = 4.722200000E+02),
       _F( NOEUD = 'N1300',   NOM_CMP = 'TEMP',VALE = 4.722200000E+02),
       _F( NOEUD = 'N1400',   NOM_CMP = 'TEMP',VALE = 4.722200000E+02),
       _F( NOEUD = 'N1400',   NOM_CMP = 'TEMP',VALE = 4.722200000E+02),
       _F( NOEUD = 'N1500',   NOM_CMP = 'TEMP',VALE = 4.722200000E+02),
# ... 7 like lines cut
       _F( NOEUD = 'N1100',   NOM_CMP = 'TEMP',VALE = 4.722200000E+02))
         )


#CHARGEMENT 3

CH3=AFFE_CHAR_MECA( MODELE=MODELE,FORCE_NODALE=(
             _F( NOEUD = 'N200',    FZ = -6.248970000E+02),
             _F( NOEUD = 'N300',    FZ = -7.887240000E+02),
             _F( NOEUD = 'N400',    FZ = -3.276540000E+02),
             _F( NOEUD = 'N500',    FZ = -2.148390000E+02),
             _F( NOEUD = 'N600',    FZ = -1.025140000E+02),
             _F( NOEUD = 'N700',    FZ = -1.025140000E+02),
             _F( NOEUD = 'N800',    FZ = -1.025140000E+02),
             _F( NOEUD = 'N900',    FZ = -2.148390000E+02),
             _F( NOEUD = 'N1000',   FZ = -3.276540000E+02),
             _F( NOEUD = 'N1100',   FZ = -2.226870000E+02),
             _F( NOEUD = 'N1200',   FZ = -1.177200000E+02),
             _F( NOEUD = 'N1300',   FZ = -1.177200000E+02),
             _F( NOEUD = 'N1400',   FZ = -1.765800000E+02))
               )

TEMPE=CREA_RESU(
                OPERATION='AFFE', TYPE_RESU='EVOL_THER',
                NOM_CHAM='TEMP',
                AFFE=_F(
                   INST = 0.0,
                   CHAM_GD = TEMPER),
                )

CHAMTH=AFFE_MATERIAU(   MAILLAGE=MAILLAGE,
                     AFFE=_F(  GROUP_MA = 'MAT_1',    MATER = MAT_1),
                     AFFE_VARC=_F( TOUT='OUI',
                              EVOL=TEMPE,VALE_REF=0.,
                              NOM_VARC='TEMP',
                              NOM_CHAM='TEMP',),
                    );

RESU=MACRO_ELAS_MULT(MODELE=MODELE,
                    CHAM_MATER=CHAMPMAT,
                    CARA_ELEM=CARA_ELE,
                    CHAR_MECA_GLOBAL=CON_LIM,
                    CAS_CHARGE=(_F(NOM_CAS='CHARGE1',
                                   CHAR_MECA=CH1,),
                                _F(NOM_CAS='CHARGE3',
                                   CHAR_MECA=CH3,),
                                ),
                     );

RESU=CALC_CHAMP(reuse=RESU,RESULTAT=RESU,CONTRAINTE=('EFGE_ELNO'),NUME_ORDRE=1)


RESU=CALC_CHAMP(reuse=RESU,RESULTAT=RESU,CONTRAINTE=('EFGE_ELNO'),NUME_ORDRE=2)


RESU1=MECA_STATIQUE(       MODELE=MODELE,
                           CHAM_MATER=CHAMTH,
                            CARA_ELEM=CARA_ELE,
                            EXCIT=_F( CHARGE = CON_LIM),)

RESU1=CALC_CHAMP(reuse=RESU1,RESULTAT=RESU1,CONTRAINTE=('EFGE_ELNO'))




TEST_RESU(RESU=(_F(NUME_ORDRE=1,
                   RESULTAT=RESU,
                   NOM_CHAM='DEPL',
                   NOEUD='N300',
                   NOM_CMP='DX',
                   VALE_CALC=-1.6582793501197E-04,
                   VALE_REFE=-1.6579999999999999E-4,
                   REFERENCE = 'SOURCE_EXTERNE',
                   PRECISION=1.E-3,),
                _F(NUME_ORDRE=1,
                   RESULTAT=RESU,
                   NOM_CHAM='DEPL',
                   NOEUD='N300',
                   NOM_CMP='DY',
                   VALE_CALC=-2.0532637585466E-05,
                   VALE_REFE=-2.0400000000000001E-05,
                   REFERENCE='SOURCE_EXTERNE',
                   PRECISION=8.0000000000000002E-3,),
                _F(NUME_ORDRE=1,
                   RESULTAT=RESU,
                   NOM_CHAM='DEPL',
                   NOEUD='N300',
                   NOM_CMP='DZ',
                   VALE_CALC=-8.0095216830949E-06,
                   VALE_REFE=-8.0099999999999995E-06,
                   REFERENCE = 'SOURCE_EXTERNE',
                   PRECISION=1.E-3,),
                _F(NUME_ORDRE=1,
                   RESULTAT=RESU,
                   NOM_CHAM='DEPL',
                   NOEUD='N500',
                   NOM_CMP='DX',
                   VALE_CALC=-2.3973856065834E-04,
                   VALE_REFE=-2.397E-4,
                   REFERENCE = 'SOURCE_EXTERNE',
                   PRECISION=1.E-3,),
                _F(NUME_ORDRE=1,
                   RESULTAT=RESU,
                   NOM_CHAM='DEPL',
                   NOEUD='N500',
                   NOM_CMP='DY',
                   VALE_CALC=1.7773782880084E-04,
                   VALE_REFE=1.7770000000000001E-4,
                   REFERENCE = 'SOURCE_EXTERNE',
                   PRECISION=1.E-3,),
                _F(NUME_ORDRE=1,
                   RESULTAT=RESU,
                   NOM_CHAM='DEPL',
                   NOEUD='N500',
                   NOM_CMP='DZ',
                   VALE_CALC=-2.6829170317507E-04,
                   VALE_REFE=-2.6810000000000001E-4,
                   REFERENCE = 'SOURCE_EXTERNE',
                   PRECISION=1.E-3,),
                _F(NUME_ORDRE=1,
                   RESULTAT=RESU,
                   NOM_CHAM='DEPL',
                   NOEUD='N700',
                   NOM_CMP='DX',
                   VALE_CALC=-1.8556867961115E-04,
                   VALE_REFE=-1.8550000000000001E-4,
                   REFERENCE = 'SOURCE_EXTERNE',
                   PRECISION=1.E-3,),
                _F(NUME_ORDRE=1,
                   RESULTAT=RESU,
                   NOM_CHAM='DEPL',
                   NOEUD='N700',
                   NOM_CMP='DY',
                   VALE_CALC=1.7760983305232E-04,
                   VALE_REFE=1.775E-4,
                   REFERENCE = 'SOURCE_EXTERNE',
                   PRECISION=1.E-3,),
                _F(NUME_ORDRE=1,
                   RESULTAT=RESU,
                   NOM_CHAM='DEPL',
                   NOEUD='N700',
                   NOM_CMP='DZ',
                   VALE_CALC=-3.9409056774568E-04,
                   VALE_REFE=-3.9399999999999998E-4,
                   REFERENCE = 'SOURCE_EXTERNE',
                   PRECISION=1.E-3,),
                _F(NUME_ORDRE=1,
                   RESULTAT=RESU,
                   NOM_CHAM='DEPL',
                   NOEUD='N900',
                   NOM_CMP='DX',
                   VALE_CALC=-1.2784744344219E-04,
                   VALE_REFE=-1.2779999999999999E-4,
                   REFERENCE = 'SOURCE_EXTERNE',
                   PRECISION=1.E-3,),
                _F(NUME_ORDRE=1,
                   RESULTAT=RESU,
                   NOM_CHAM='DEPL',
                   NOEUD='N900',
                   NOM_CMP='DY',
                   VALE_CALC=1.7748183730379E-04,
                   VALE_REFE=1.774E-4,
                   REFERENCE = 'SOURCE_EXTERNE',
                   PRECISION=1.E-3,),
                _F(NUME_ORDRE=1,
                   RESULTAT=RESU,
                   NOM_CHAM='DEPL',
                   NOEUD='N900',
                   NOM_CMP='DZ',
                   VALE_CALC=-4.9774348609592E-04,
                   VALE_REFE=-4.9770000000000001E-4,
                   REFERENCE = 'SOURCE_EXTERNE',
                   PRECISION=1.E-3,),
                _F(NUME_ORDRE=1,
                   RESULTAT=RESU,
                   NOM_CHAM='DEPL',
                   NOEUD='N1100',
                   NOM_CMP='DX',
                   VALE_CALC=-1.8386436080858E-08,
                   VALE_REFE=0.0,
                   REFERENCE = 'SOURCE_EXTERNE',
                   PRECISION=1.E-3,
                   CRITERE='ABSOLU',),
                _F(NUME_ORDRE=1,
                   RESULTAT=RESU,
                   NOM_CHAM='DEPL',
                   NOEUD='N1100',
                   NOM_CMP='DY',
                   VALE_CALC=5.6835832711235E-05,
                   VALE_REFE=5.6820000000000001E-05,
                   REFERENCE = 'SOURCE_EXTERNE',
                   PRECISION=1.E-3,),
                _F(NUME_ORDRE=1,
                   RESULTAT=RESU,
                   NOM_CHAM='DEPL',
                   NOEUD='N1100',
                   NOM_CMP='DZ',
                   VALE_CALC=-2.2067415345671E-04,
                   VALE_REFE=-2.207E-4,
                   REFERENCE = 'SOURCE_EXTERNE',
                   PRECISION=1.E-3,),
                _F(NUME_ORDRE=1,
                   RESULTAT=RESU,
                   NOM_CHAM='EFGE_ELNO',
                   NOEUD='N100',
                   NOM_CMP='N',
                   VALE_CALC=-2275.7551243574,
                   VALE_REFE=-2276.0,
                   REFERENCE='SOURCE_EXTERNE',
                   PRECISION=5.0000000000000001E-3,
                   MAILLE='E1',),
                _F(NUME_ORDRE=1,
                   RESULTAT=RESU,
                   NOM_CHAM='EFGE_ELNO',
                   NOEUD='N100',
                   NOM_CMP='VY',
                   VALE_CALC=-161.1068641623,
                   VALE_REFE=-161.09999999999999,
                   REFERENCE = 'SOURCE_EXTERNE',
                   PRECISION=1.E-3,
                   MAILLE='E1',),
                _F(NUME_ORDRE=1,
                   RESULTAT=RESU,
                   NOM_CHAM='EFGE_ELNO',
                   NOEUD='N100',
                   NOM_CMP='VZ',
                   VALE_CALC=-10.099896069862,
                   VALE_REFE=-10.095000000000001,
                   REFERENCE='SOURCE_EXTERNE',
                   PRECISION=5.0000000000000001E-3,
                   MAILLE='E1',),
                _F(NUME_ORDRE=1,
                   RESULTAT=RESU,
                   NOM_CHAM='EFGE_ELNO',
                   NOEUD='N100',
                   NOM_CMP='MT',
                   VALE_CALC=-53.398188163146,
                   VALE_REFE=-53.399999999999999,
                   REFERENCE = 'SOURCE_EXTERNE',
                   PRECISION=1.E-3,
                   MAILLE='E1',),
                _F(NUME_ORDRE=1,
                   RESULTAT=RESU,
                   NOM_CHAM='EFGE_ELNO',
                   NOEUD='N100',
                   NOM_CMP='MFY',
                   VALE_CALC=-89.659736732525,
                   VALE_REFE=-89.659999999999997,
                   REFERENCE = 'SOURCE_EXTERNE',
                   PRECISION=1.E-3,
                   MAILLE='E1',),
                _F(NUME_ORDRE=1,
                   RESULTAT=RESU,
                   NOM_CHAM='EFGE_ELNO',
                   NOEUD='N100',
                   NOM_CMP='MFZ',
                   VALE_CALC=-158.46081746216,
                   VALE_REFE=-158.5,
                   REFERENCE = 'SOURCE_EXTERNE',
                   PRECISION=1.E-3,
                   MAILLE='E1',),
                _F(NUME_ORDRE=1,
                   RESULTAT=RESU,
                   NOM_CHAM='EFGE_ELNO',
                   NOEUD='N1500',
                   NOM_CMP='N',
                   VALE_CALC=10.099896069834,
                   VALE_REFE=10.095000000000001,
                   REFERENCE='SOURCE_EXTERNE',
                   PRECISION=5.0000000000000001E-3,
                   MAILLE='E14',),
                _F(NUME_ORDRE=1,
                   RESULTAT=RESU,
                   NOM_CHAM='EFGE_ELNO',
                   NOEUD='N1500',
                   NOM_CMP='VY',
                   VALE_CALC=-161.10686416239,
                   VALE_REFE=-161.09999999999999,
                   REFERENCE = 'SOURCE_EXTERNE',
                   PRECISION=1.E-3,
                   MAILLE='E14',),
                _F(NUME_ORDRE=1,
                   RESULTAT=RESU,
                   NOM_CHAM='EFGE_ELNO',
                   NOEUD='N1500',
                   NOM_CMP='VZ',
                   VALE_CALC=1164.9464923006,
                   VALE_REFE=1165.0,
                   REFERENCE='SOURCE_EXTERNE',
                   PRECISION=5.0000000000000001E-3,
                   MAILLE='E14',),
                _F(NUME_ORDRE=1,
                   RESULTAT=RESU,
                   NOM_CHAM='EFGE_ELNO',
                   NOEUD='N1500',
                   NOM_CMP='MT',
                   VALE_CALC=15.647088638674,
                   VALE_REFE=15.6,
                   REFERENCE='SOURCE_EXTERNE',
                   PRECISION=5.0000000000000001E-3,
                   MAILLE='E14',),
                _F(NUME_ORDRE=1,
                   RESULTAT=RESU,
                   NOM_CHAM='EFGE_ELNO',
                   NOEUD='N1500',
                   NOM_CMP='MFY',
                   VALE_CALC=1260.3509470015,
                   VALE_REFE=1260.5,
                   REFERENCE='SOURCE_EXTERNE',
                   PRECISION=5.0000000000000001E-3,
                   MAILLE='E14',),
                _F(NUME_ORDRE=1,
                   RESULTAT=RESU,
                   NOM_CHAM='EFGE_ELNO',
                   NOEUD='N1500',
                   NOM_CMP='MFZ',
                   VALE_CALC=290.1459797872,
                   VALE_REFE=290.10000000000002,
                   REFERENCE = 'SOURCE_EXTERNE',
                   PRECISION=1.E-3,
                   MAILLE='E14',),
                ),
          )

## FIN DES TESTS DE LA CHARGE 1

TEST_RESU(RESU=(_F(NUME_ORDRE=1,
                   RESULTAT=RESU1,
                   NOM_CHAM='DEPL',
                   NOEUD='N300',
                   NOM_CMP='DX',
                   VALE_CALC=-6.1404844432113E-03,
                   VALE_REFE=-6.1418000000000002E-3,
                   REFERENCE = 'SOURCE_EXTERNE',
                   PRECISION=1.E-3,),
                _F(NUME_ORDRE=1,
                   RESULTAT=RESU1,
                   NOM_CHAM='DEPL',
                   NOEUD='N300',
                   NOM_CMP='DY',
                   VALE_CALC=-0.013090666617759,
                   VALE_REFE=-0.013089999999999999,
                   REFERENCE = 'SOURCE_EXTERNE',
                   PRECISION=1.E-3,),
                _F(NUME_ORDRE=1,
                   RESULTAT=RESU1,
                   NOM_CHAM='DEPL',
                   NOEUD='N300',
                   NOM_CMP='DZ',
                   VALE_CALC=0.016799439994854,
                   VALE_REFE=0.016799000000000001,
                   REFERENCE = 'SOURCE_EXTERNE',
                   PRECISION=1.E-3,),
                _F(NUME_ORDRE=1,
                   RESULTAT=RESU1,
                   NOM_CHAM='DEPL',
                   NOEUD='N500',
                   NOM_CMP='DX',
                   VALE_CALC=-0.010301576442322,
                   VALE_REFE=-0.010302,
                   REFERENCE = 'SOURCE_EXTERNE',
                   PRECISION=1.E-3,),
                _F(NUME_ORDRE=1,
                   RESULTAT=RESU1,
                   NOM_CHAM='DEPL',
                   NOEUD='N500',
                   NOM_CMP='DY',
                   VALE_CALC=-8.1317005505142E-03,
                   VALE_REFE=-8.1320000000000003E-3,
                   REFERENCE = 'SOURCE_EXTERNE',
                   PRECISION=1.E-3,),
                _F(NUME_ORDRE=1,
                   RESULTAT=RESU1,
                   NOM_CHAM='DEPL',
                   NOEUD='N500',
                   NOM_CMP='DZ',
                   VALE_CALC=0.019722640774944,
                   VALE_REFE=0.019723000000000001,
                   REFERENCE = 'SOURCE_EXTERNE',
                   PRECISION=1.E-3,),
                _F(NUME_ORDRE=1,
                   RESULTAT=RESU1,
                   NOM_CHAM='DEPL',
                   NOEUD='N700',
                   NOM_CMP='DX',
                   VALE_CALC=-0.011369665582535,
                   VALE_REFE=-0.01137,
                   REFERENCE = 'SOURCE_EXTERNE',
                   PRECISION=1.E-3,),
                _F(NUME_ORDRE=1,
                   RESULTAT=RESU1,
                   NOM_CHAM='DEPL',
                   NOEUD='N700',
                   NOM_CMP='DY',
                   VALE_CALC=-5.3825155600857E-03,
                   VALE_REFE=-5.3829999999999998E-3,
                   REFERENCE = 'SOURCE_EXTERNE',
                   PRECISION=1.E-3,),
                _F(NUME_ORDRE=1,
                   RESULTAT=RESU1,
                   NOM_CHAM='DEPL',
                   NOEUD='N700',
                   NOM_CMP='DZ',
                   VALE_CALC=0.016134239251796,
                   VALE_REFE=0.016135,
                   REFERENCE = 'SOURCE_EXTERNE',
                   PRECISION=1.E-3,),
                _F(NUME_ORDRE=1,
                   RESULTAT=RESU1,
                   NOM_CHAM='DEPL',
                   NOEUD='N900',
                   NOM_CMP='DX',
                   VALE_CALC=-0.012237993651966,
                   VALE_REFE=-0.012238000000000001,
                   REFERENCE = 'SOURCE_EXTERNE',
                   PRECISION=1.E-3,),
                _F(NUME_ORDRE=1,
                   RESULTAT=RESU1,
                   NOM_CHAM='DEPL',
                   NOEUD='N900',
                   NOM_CMP='DY',
                   VALE_CALC=-2.6333305696572E-03,
                   VALE_REFE=-2.6329999999999999E-3,
                   REFERENCE = 'SOURCE_EXTERNE',
                   PRECISION=1.E-3,),
                _F(NUME_ORDRE=1,
                   RESULTAT=RESU1,
                   NOM_CHAM='DEPL',
                   NOEUD='N900',
                   NOM_CMP='DZ',
                   VALE_CALC=0.012261356812349,
                   VALE_REFE=0.012262,
                   REFERENCE = 'SOURCE_EXTERNE',
                   PRECISION=1.E-3,),
                _F(NUME_ORDRE=1,
                   RESULTAT=RESU1,
                   NOM_CHAM='DEPL',
                   NOEUD='N1100',
                   NOM_CMP='DX',
                   VALE_CALC=-6.3082361345463E-03,
                   VALE_REFE=-6.3080000000000002E-3,
                   REFERENCE = 'SOURCE_EXTERNE',
                   PRECISION=1.E-3,),
                _F(NUME_ORDRE=1,
                   RESULTAT=RESU1,
                   NOM_CHAM='DEPL',
                   NOEUD='N1100',
                   NOM_CMP='DY',
                   VALE_CALC=1.54167612125E-03,
                   VALE_REFE=1.542E-3,
                   REFERENCE = 'SOURCE_EXTERNE',
                   PRECISION=1.E-3,),
                _F(NUME_ORDRE=1,
                   RESULTAT=RESU1,
                   NOM_CHAM='DEPL',
                   NOEUD='N1100',
                   NOM_CMP='DZ',
                   VALE_CALC=1.931353615396E-03,
                   VALE_REFE=1.931E-3,
                   REFERENCE = 'SOURCE_EXTERNE',
                   PRECISION=1.E-3,),
                _F(NUME_ORDRE=1,
                   RESULTAT=RESU1,
                   NOM_CHAM='EFGE_ELNO',
                   NOEUD='N100',
                   NOM_CMP='N',
                   VALE_CALC=-7430.5252367789,
                   VALE_REFE=-7431.0,
                   REFERENCE = 'SOURCE_EXTERNE',
                   PRECISION=1.E-3,
                   MAILLE='E1',),
                _F(NUME_ORDRE=1,
                   RESULTAT=RESU1,
                   NOM_CHAM='EFGE_ELNO',
                   NOEUD='N100',
                   NOM_CMP='VY',
                   VALE_CALC=-7613.4463170544,
                   VALE_REFE=-7613.0,
                   REFERENCE = 'SOURCE_EXTERNE',
                   PRECISION=1.E-3,
                   MAILLE='E1',),
                _F(NUME_ORDRE=1,
                   RESULTAT=RESU1,
                   NOM_CHAM='EFGE_ELNO',
                   NOEUD='N100',
                   NOM_CMP='VZ',
                   VALE_CALC=2790.9583176241,
                   VALE_REFE=2791.0,
                   REFERENCE = 'SOURCE_EXTERNE',
                   PRECISION=1.E-3,
                   MAILLE='E1',),
                _F(NUME_ORDRE=1,
                   RESULTAT=RESU1,
                   NOM_CHAM='EFGE_ELNO',
                   NOEUD='N100',
                   NOM_CMP='MT',
                   VALE_CALC=1615.1129755432,
                   VALE_REFE=1615.0,
                   REFERENCE = 'SOURCE_EXTERNE',
                   PRECISION=1.E-3,
                   MAILLE='E1',),
                _F(NUME_ORDRE=1,
                   RESULTAT=RESU1,
                   NOM_CHAM='EFGE_ELNO',
                   NOEUD='N100',
                   NOM_CMP='MFY',
                   VALE_CALC=-6192.6126719052,
                   VALE_REFE=-6193.0,
                   REFERENCE = 'SOURCE_EXTERNE',
                   PRECISION=1.E-3,
                   MAILLE='E1',),
                _F(NUME_ORDRE=1,
                   RESULTAT=RESU1,
                   NOM_CHAM='EFGE_ELNO',
                   NOEUD='N100',
                   NOM_CMP='MFZ',
                   VALE_CALC=-14711.63387822,
                   VALE_REFE=-1.4712E4,
                   REFERENCE = 'SOURCE_EXTERNE',
                   PRECISION=1.E-3,
                   MAILLE='E1',),
                _F(NUME_ORDRE=1,
                   RESULTAT=RESU1,
                   NOM_CHAM='EFGE_ELNO',
                   NOEUD='N1500',
                   NOM_CMP='N',
                   VALE_CALC=-2790.9583176454,
                   VALE_REFE=-2791.0,
                   REFERENCE = 'SOURCE_EXTERNE',
                   PRECISION=1.E-3,
                   MAILLE='E14',),
                _F(NUME_ORDRE=1,
                   RESULTAT=RESU1,
                   NOM_CHAM='EFGE_ELNO',
                   NOEUD='N1500',
                   NOM_CMP='VY',
                   VALE_CALC=-7613.4463170768,
                   VALE_REFE=-7613.0,
                   REFERENCE = 'SOURCE_EXTERNE',
                   PRECISION=1.E-3,
                   MAILLE='E14',),
                _F(NUME_ORDRE=1,
                   RESULTAT=RESU1,
                   NOM_CHAM='EFGE_ELNO',
                   NOEUD='N1500',
                   NOM_CMP='VZ',
                   VALE_CALC=-7430.525236759,
                   VALE_REFE=-7433.0,
                   REFERENCE = 'SOURCE_EXTERNE',
                   PRECISION=1.E-3,
                   MAILLE='E14',),
                _F(NUME_ORDRE=1,
                   RESULTAT=RESU1,
                   NOM_CHAM='EFGE_ELNO',
                   NOEUD='N1500',
                   NOM_CMP='MT',
                   VALE_CALC=7051.9613693778,
                   VALE_REFE=7052.0,
                   REFERENCE = 'SOURCE_EXTERNE',
                   PRECISION=1.E-3,
                   MAILLE='E14',),
                _F(NUME_ORDRE=1,
                   RESULTAT=RESU1,
                   NOM_CHAM='EFGE_ELNO',
                   NOEUD='N1500',
                   NOM_CMP='MFY',
                   VALE_CALC=-10457.80594392,
                   VALE_REFE=-1.0460E4,
                   REFERENCE = 'SOURCE_EXTERNE',
                   PRECISION=1.E-3,
                   MAILLE='E14',),
                _F(NUME_ORDRE=1,
                   RESULTAT=RESU1,
                   NOM_CHAM='EFGE_ELNO',
                   NOEUD='N1500',
                   NOM_CMP='MFZ',
                   VALE_CALC=8862.3323835416,
                   VALE_REFE=8862.0,
                   REFERENCE = 'SOURCE_EXTERNE',
                   PRECISION=1.E-3,
                   MAILLE='E14',),
                ),
          )

#########

TEST_RESU(RESU=(_F(NUME_ORDRE=2,
                   RESULTAT=RESU,
                   NOM_CHAM='DEPL',
                   NOEUD='N300',
                   NOM_CMP='DX',
                   VALE_CALC=-1.6516081650964E-04,
                   VALE_REFE=-1.651E-4,
                   REFERENCE = 'SOURCE_EXTERNE',
                   PRECISION=1.E-3,),
                _F(NUME_ORDRE=2,
                   RESULTAT=RESU,
                   NOM_CHAM='DEPL',
                   NOEUD='N300',
                   NOM_CMP='DY',
                   VALE_CALC=-2.0804125762393E-05,
                   VALE_REFE=-2.0800000000000001E-05,
                   REFERENCE = 'SOURCE_EXTERNE',
                   PRECISION=1.E-3,),
                _F(NUME_ORDRE=2,
                   RESULTAT=RESU,
                   NOM_CHAM='DEPL',
                   NOEUD='N300',
                   NOM_CMP='DZ',
                   VALE_CALC=-9.5162011860206E-06,
                   VALE_REFE=-9.516E-06,
                   REFERENCE = 'SOURCE_EXTERNE',
                   PRECISION=1.E-3,),
                _F(NUME_ORDRE=2,
                   RESULTAT=RESU,
                   NOM_CHAM='DEPL',
                   NOEUD='N500',
                   NOM_CMP='DX',
                   VALE_CALC=-2.3863390599877E-04,
                   VALE_REFE=-2.386E-4,
                   REFERENCE = 'SOURCE_EXTERNE',
                   PRECISION=1.E-3,),
                _F(NUME_ORDRE=2,
                   RESULTAT=RESU,
                   NOM_CHAM='DEPL',
                   NOEUD='N500',
                   NOM_CMP='DY',
                   VALE_CALC=1.7727480191715E-04,
                   VALE_REFE=1.773E-4,
                   REFERENCE = 'SOURCE_EXTERNE',
                   PRECISION=1.E-3,),
                _F(NUME_ORDRE=2,
                   RESULTAT=RESU,
                   NOM_CHAM='DEPL',
                   NOEUD='N500',
                   NOM_CMP='DZ',
                   VALE_CALC=-2.6969006008276E-04,
                   VALE_REFE=-2.697E-4,
                   REFERENCE = 'SOURCE_EXTERNE',
                   PRECISION=1.E-3,),
                _F(NUME_ORDRE=2,
                   RESULTAT=RESU,
                   NOM_CHAM='DEPL',
                   NOEUD='N700',
                   NOM_CMP='DX',
                   VALE_CALC=-1.847723385686E-04,
                   VALE_REFE=-1.8479999999999999E-4,
                   REFERENCE = 'SOURCE_EXTERNE',
                   PRECISION=1.E-3,),
                _F(NUME_ORDRE=2,
                   RESULTAT=RESU,
                   NOM_CHAM='DEPL',
                   NOEUD='N700',
                   NOM_CMP='DY',
                   VALE_CALC=1.771468041022E-04,
                   VALE_REFE=1.771E-4,
                   REFERENCE = 'SOURCE_EXTERNE',
                   PRECISION=1.E-3,),
                _F(NUME_ORDRE=2,
                   RESULTAT=RESU,
                   NOM_CHAM='DEPL',
                   NOEUD='N700',
                   NOM_CMP='DZ',
                   VALE_CALC=-3.9483844413227E-04,
                   VALE_REFE=-3.948E-4,
                   REFERENCE = 'SOURCE_EXTERNE',
                   PRECISION=1.E-3,),
                _F(NUME_ORDRE=2,
                   RESULTAT=RESU,
                   NOM_CHAM='DEPL',
                   NOEUD='N900',
                   NOM_CMP='DX',
                   VALE_CALC=-1.2735767458955E-04,
                   VALE_REFE=-1.2740000000000001E-4,
                   REFERENCE = 'SOURCE_EXTERNE',
                   PRECISION=1.E-3,),
                _F(NUME_ORDRE=2,
                   RESULTAT=RESU,
                   NOM_CHAM='DEPL',
                   NOEUD='N900',
                   NOM_CMP='DY',
                   VALE_CALC=1.7701880628725E-04,
                   VALE_REFE=1.7699999999999999E-4,
                   REFERENCE = 'SOURCE_EXTERNE',
                   PRECISION=1.E-3,),
                _F(NUME_ORDRE=2,
                   RESULTAT=RESU,
                   NOM_CHAM='DEPL',
                   NOEUD='N900',
                   NOM_CMP='DZ',
                   VALE_CALC=-4.9638547660098E-04,
                   VALE_REFE=-4.9640000000000003E-4,
                   REFERENCE = 'SOURCE_EXTERNE',
                   PRECISION=1.E-3,),
                _F(NUME_ORDRE=2,
                   RESULTAT=RESU,
                   NOM_CHAM='DEPL',
                   NOEUD='N1100',
                   NOM_CMP='DX',
                   VALE_CALC=-1.7858397191682E-08,
                   VALE_REFE=0.0,
                   REFERENCE = 'SOURCE_EXTERNE',
                   PRECISION=1.E-3,
                   CRITERE='ABSOLU',),
                _F(NUME_ORDRE=2,
                   RESULTAT=RESU,
                   NOM_CHAM='DEPL',
                   NOEUD='N1100',
                   NOM_CMP='DY',
                   VALE_CALC=5.6738166595791E-05,
                   VALE_REFE=5.6740000000000002E-05,
                   REFERENCE = 'SOURCE_EXTERNE',
                   PRECISION=1.E-3,),
                _F(NUME_ORDRE=2,
                   RESULTAT=RESU,
                   NOM_CHAM='DEPL',
                   NOEUD='N1100',
                   NOM_CMP='DZ',
                   VALE_CALC=-2.185960628612E-04,
                   VALE_REFE=-2.186E-4,
                   REFERENCE = 'SOURCE_EXTERNE',
                   PRECISION=1.E-3,),
                _F(NUME_ORDRE=2,
                   RESULTAT=RESU,
                   NOM_CHAM='EFGE_ELNO',
                   NOEUD='N100',
                   NOM_CMP='N',
                   VALE_CALC=-2272.71099736,
                   VALE_REFE=-2273.0,
                   REFERENCE = 'SOURCE_EXTERNE',
                   PRECISION=1.E-3,
                   MAILLE='E1',),
                _F(NUME_ORDRE=2,
                   RESULTAT=RESU,
                   NOM_CHAM='EFGE_ELNO',
                   NOEUD='N100',
                   NOM_CMP='VY',
                   VALE_CALC=-161.10946515456,
                   VALE_REFE=-161.09999999999999,
                   REFERENCE = 'SOURCE_EXTERNE',
                   PRECISION=1.E-3,
                   MAILLE='E1',),
                _F(NUME_ORDRE=2,
                   RESULTAT=RESU,
                   NOM_CHAM='EFGE_ELNO',
                   NOEUD='N100',
                   NOM_CMP='VZ',
                   VALE_CALC=-9.8098377965771,
                   VALE_REFE=-9.8100000000000005,
                   REFERENCE = 'SOURCE_EXTERNE',
                   PRECISION=1.E-3,
                   MAILLE='E1',),
                _F(NUME_ORDRE=2,
                   RESULTAT=RESU,
                   NOM_CHAM='EFGE_ELNO',
                   NOEUD='N100',
                   NOM_CMP='MT',
                   VALE_CALC=-53.018732397228,
                   VALE_REFE=-53.020000000000003,
                   REFERENCE = 'SOURCE_EXTERNE',
                   PRECISION=1.E-3,
                   MAILLE='E1',),
                _F(NUME_ORDRE=2,
                   RESULTAT=RESU,
                   NOM_CHAM='EFGE_ELNO',
                   NOEUD='N100',
                   NOM_CMP='MFY',
                   VALE_CALC=-89.52542494767,
                   VALE_REFE=-89.530000000000001,
                   REFERENCE = 'SOURCE_EXTERNE',
                   PRECISION=1.E-3,
                   MAILLE='E1',),
                _F(NUME_ORDRE=2,
                   RESULTAT=RESU,
                   NOM_CHAM='EFGE_ELNO',
                   NOEUD='N100',
                   NOM_CMP='MFZ',
                   VALE_CALC=-158.62497396926,
                   VALE_REFE=-158.63,
                   REFERENCE = 'SOURCE_EXTERNE',
                   PRECISION=1.E-3,
                   MAILLE='E1',),
                _F(NUME_ORDRE=2,
                   RESULTAT=RESU,
                   NOM_CHAM='EFGE_ELNO',
                   NOEUD='N1500',
                   NOM_CMP='N',
                   VALE_CALC=9.809837796547,
                   VALE_REFE=9.8100000000000005,
                   REFERENCE = 'SOURCE_EXTERNE',
                   PRECISION=1.E-3,
                   MAILLE='E14',),
                _F(NUME_ORDRE=2,
                   RESULTAT=RESU,
                   NOM_CHAM='EFGE_ELNO',
                   NOEUD='N1500',
                   NOM_CMP='VY',
                   VALE_CALC=-161.10946515465,
                   VALE_REFE=-161.09999999999999,
                   REFERENCE = 'SOURCE_EXTERNE',
                   PRECISION=1.E-3,
                   MAILLE='E14',),
                _F(NUME_ORDRE=2,
                   RESULTAT=RESU,
                   NOM_CHAM='EFGE_ELNO',
                   NOEUD='N1500',
                   NOM_CMP='VZ',
                   VALE_CALC=1168.1450026399,
                   VALE_REFE=1168.0,
                   REFERENCE = 'SOURCE_EXTERNE',
                   PRECISION=1.E-3,
                   MAILLE='E14',),
                _F(NUME_ORDRE=2,
                   RESULTAT=RESU,
                   NOM_CHAM='EFGE_ELNO',
                   NOEUD='N1500',
                   NOM_CMP='MT',
                   VALE_CALC=11.902540289254,
                   VALE_REFE=11.9,
                   REFERENCE='SOURCE_EXTERNE',
                   PRECISION=5.0000000000000001E-3,
                   MAILLE='E14',),
                _F(NUME_ORDRE=2,
                   RESULTAT=RESU,
                   NOM_CHAM='EFGE_ELNO',
                   NOEUD='N1500',
                   NOM_CMP='MFY',
                   VALE_CALC=1261.0614947571,
                   VALE_REFE=1261.0,
                   REFERENCE = 'SOURCE_EXTERNE',
                   PRECISION=1.E-3,
                   MAILLE='E14',),
                _F(NUME_ORDRE=2,
                   RESULTAT=RESU,
                   NOM_CHAM='EFGE_ELNO',
                   NOEUD='N1500',
                   NOM_CMP='MFZ',
                   VALE_CALC=289.7328732464,
                   VALE_REFE=289.69999999999999,
                   REFERENCE = 'SOURCE_EXTERNE',
                   PRECISION=1.E-3,
                   MAILLE='E14',),
                ),
          )

## FIN DES TESTS DE LA CHARGE 2


# ----------------------------------------------------------------------
FIN()
#
