# MODIF  DATE 30/07/2012   AUTEUR LEFEBVRE J-P.LEFEBVRE 
# TITRE VALIDATION DE POST_ELEM MOT CLE FACTEUR CARA_GEOM
# ssll107d.para = tps_job 60 mem_job 256Mo ncpus 1 liste_test R
#            CONFIGURATION MANAGEMENT OF EDF VERSION
# ======================================================================
# COPYRIGHT (C) 1991 - 2012  EDF R&D                  WWW.CODE-ASTER.ORG
# THIS PROGRAM IS FREE SOFTWARE; YOU CAN REDISTRIBUTE IT AND/OR MODIFY
# IT UNDER THE TERMS OF THE GNU GENERAL PUBLIC LICENSE AS PUBLISHED BY
# THE FREE SOFTWARE FOUNDATION; EITHER VERSION 2 OF THE LICENSE, OR
# (AT YOUR OPTION) ANY LATER VERSION.
#
# THIS PROGRAM IS DISTRIBUTED IN THE HOPE THAT IT WILL BE USEFUL, BUT
# WITHOUT ANY WARRANTY; WITHOUT EVEN THE IMPLIED WARRANTY OF
# MERCHANTABILITY OR FITNESS FOR A PARTICULAR PURPOSE. SEE THE GNU
# GENERAL PUBLIC LICENSE FOR MORE DETAILS.
#
# YOU SHOULD HAVE RECEIVED A COPY OF THE GNU GENERAL PUBLIC LICENSE
# ALONG WITH THIS PROGRAM; IF NOT, WRITE TO EDF R&D CODE_ASTER,
#    1 AVENUE DU GENERAL DE GAULLE, 92141 CLAMART CEDEX, FRANCE.
# ======================================================================


DEBUT(CODE=_F(NOM='SSLL107D',NIV_PUB_WEB='INTERNET'),DEBUG=_F(SDVERI='OUI'))

TCARS=MACR_CARA_POUTRE(    SYME_Z='OUI',FORMAT='MED',
                              ORIG_INER=(0., -0.025,) )

TEST_TABLE(     TABLE=TCARS,
                  FILTRE=_F(  NOM_PARA = 'ENTITE',
                           VALE_K = 'TOUT'),
                NOM_PARA='A_M',
                    VALE=2.60000E-04,REFERENCE='ANALYTIQUE'     )

TEST_TABLE(     TABLE=TCARS,
                  FILTRE=_F(  NOM_PARA = 'ENTITE',
                           VALE_K = 'TOUT'),
                NOM_PARA='CDG_Y_M',
                    VALE=5.00000E-03,REFERENCE='ANALYTIQUE'     )

TEST_TABLE(     TABLE=TCARS,
                  FILTRE=_F(  NOM_PARA = 'ENTITE',
                           VALE_K = 'TOUT'),
                NOM_PARA='CDG_Z_M',
                 CRITERE='ABSOLU',
                     VALE=0.   ,REFERENCE='ANALYTIQUE'          )

TEST_TABLE(     TABLE=TCARS,
                  FILTRE=_F(  NOM_PARA = 'ENTITE',
                           VALE_K = 'TOUT'),
                NOM_PARA='IY_G_M',
                    VALE=7.21667E-08,REFERENCE='ANALYTIQUE'     )

TEST_TABLE(     TABLE=TCARS,
                  FILTRE=_F(  NOM_PARA = 'ENTITE',
                           VALE_K = 'TOUT'),
                NOM_PARA='IZ_G_M',
                    VALE=3.44667E-09,REFERENCE='ANALYTIQUE'     )

TEST_TABLE(     TABLE=TCARS,REFERENCE='ANALYTIQUE',
                  FILTRE=_F(  NOM_PARA = 'ENTITE',
                           VALE_K = 'TOUT'),
                NOM_PARA='IYZ_G_M',
                 CRITERE='ABSOLU',
                     VALE=0.             )

TEST_TABLE(     TABLE=TCARS,REFERENCE='ANALYTIQUE',
                  FILTRE=_F(  NOM_PARA = 'ENTITE',
                           VALE_K = 'TOUT'),
                NOM_PARA='A',
                    VALE=5.20000E-04     )

TEST_TABLE(     TABLE=TCARS,REFERENCE='ANALYTIQUE',
                  FILTRE=_F(  NOM_PARA = 'ENTITE',
                           VALE_K = 'TOUT'),
                NOM_PARA='CDG_Y',
                 CRITERE='ABSOLU',
                     VALE=0.             )

TEST_TABLE(     TABLE=TCARS,REFERENCE='ANALYTIQUE',
                  FILTRE=_F(  NOM_PARA = 'ENTITE',
                           VALE_K = 'TOUT'),
                NOM_PARA='CDG_Z',
                 CRITERE='ABSOLU',
                     VALE=0.             )

TEST_TABLE(     TABLE=TCARS,REFERENCE='ANALYTIQUE',
                  FILTRE=_F(  NOM_PARA = 'ENTITE',
                           VALE_K = 'TOUT'),
                NOM_PARA='IY_G',
                    VALE=1.44333E-07     )

TEST_TABLE(     TABLE=TCARS,REFERENCE='ANALYTIQUE',
                  FILTRE=_F(  NOM_PARA = 'ENTITE',
                           VALE_K = 'TOUT'),
                NOM_PARA='IZ_G',
                    VALE=1.98933E-08     )

TEST_TABLE(     TABLE=TCARS,REFERENCE='ANALYTIQUE',
                  FILTRE=_F(  NOM_PARA = 'ENTITE',
                           VALE_K = 'TOUT'),
                NOM_PARA='IYZ_G',
                 CRITERE='ABSOLU',
                     VALE=0.             )

TEST_TABLE(     TABLE=TCARS,REFERENCE='ANALYTIQUE',
                  FILTRE=_F(  NOM_PARA = 'ENTITE',
                           VALE_K = 'TOUT'),
               NOM_PARA='IY',
                    VALE=1.98933E-08     )

TEST_TABLE(     TABLE=TCARS,REFERENCE='ANALYTIQUE',
                  FILTRE=_F(  NOM_PARA = 'ENTITE',
                           VALE_K = 'TOUT'),
               NOM_PARA='IZ',
                    VALE=1.44333E-07     )

TEST_TABLE(     TABLE=TCARS,REFERENCE='ANALYTIQUE',
                  FILTRE=_F(  NOM_PARA = 'ENTITE',
                           VALE_K = 'TOUT'),
                NOM_PARA='ALPHA',
                     VALE=90.             )

TEST_TABLE(     TABLE=TCARS,REFERENCE='ANALYTIQUE',
                  FILTRE=_F(  NOM_PARA = 'ENTITE',
                           VALE_K = 'TOUT'),
                NOM_PARA='Y_MIN',
                    VALE=-2.50000E-02    )

TEST_TABLE(     TABLE=TCARS,REFERENCE='ANALYTIQUE',
                  FILTRE=_F(  NOM_PARA = 'ENTITE',
                           VALE_K = 'TOUT'),
                NOM_PARA='Y_MAX',
                     VALE=2.50000E-02    )

TEST_TABLE(     TABLE=TCARS,REFERENCE='ANALYTIQUE',
                  FILTRE=_F(  NOM_PARA = 'ENTITE',
                           VALE_K = 'TOUT'),
                NOM_PARA='Z_MIN',
                    VALE=-1.00000E-02    )

TEST_TABLE(     TABLE=TCARS,REFERENCE='ANALYTIQUE',
                  FILTRE=_F(  NOM_PARA = 'ENTITE',
                           VALE_K = 'TOUT'),
                NOM_PARA='Z_MAX',
                     VALE=1.00000E-02    )

TEST_TABLE(     TABLE=TCARS,REFERENCE='ANALYTIQUE',
                  FILTRE=_F(  NOM_PARA = 'ENTITE',
                           VALE_K = 'TOUT'),
                NOM_PARA='R_MAX',
                     VALE=2.6926E-02     )

TEST_TABLE(     TABLE=TCARS,REFERENCE='ANALYTIQUE',
                  FILTRE=_F(  NOM_PARA = 'ENTITE',
                           VALE_K = 'TOUT'),
                NOM_PARA='IY_P',
                     VALE=4.69333E-07     )

TEST_TABLE(     TABLE=TCARS,REFERENCE='ANALYTIQUE',
                  FILTRE=_F(  NOM_PARA = 'ENTITE',
                           VALE_K = 'TOUT'),
                NOM_PARA='IZ_P',
                     VALE=1.98933E-08     )

TCAR2=MACR_CARA_POUTRE(    UNITE=38,FORMAT='ASTER',
                                GROUP_MA=('GR1', 'GR2',),
                              ORIG_INER=(0.005, 0.,) )

TEST_TABLE(     TABLE=TCAR2, REFERENCE='ANALYTIQUE',
                  FILTRE=_F(  NOM_PARA = 'ENTITE',
                           VALE_K = 'TOUT'),
                NOM_PARA='IY_P',
                     VALE=7.21667E-08  )

TEST_TABLE(     TABLE=TCAR2, REFERENCE='ANALYTIQUE',
                  FILTRE=_F(  NOM_PARA = 'ENTITE',
                           VALE_K = 'TOUT'),
                NOM_PARA='IZ_P',
                     VALE=3.44667E-09     )

TEST_TABLE(     TABLE=TCAR2, REFERENCE='ANALYTIQUE',
                  FILTRE=_F(  NOM_PARA = 'LIEU',
                           VALE_K = 'GR1'),
                NOM_PARA='IY_P',
                     VALE=3.60833E-08  )

TEST_TABLE(     TABLE=TCAR2, REFERENCE='ANALYTIQUE',
                  FILTRE=_F(  NOM_PARA = 'LIEU',
                           VALE_K = 'GR1'),
                NOM_PARA='IZ_P',
                     VALE=1.72333E-09    )

TEST_TABLE(     TABLE=TCAR2, REFERENCE='ANALYTIQUE',
                  FILTRE=_F(  NOM_PARA = 'LIEU',
                           VALE_K = 'GR2'),
                NOM_PARA='IY_P',
                     VALE=3.60833E-08  )

TEST_TABLE(     TABLE=TCAR2, REFERENCE='ANALYTIQUE',
                  FILTRE=_F(  NOM_PARA = 'LIEU',
                           VALE_K = 'GR2'),
                NOM_PARA='IZ_P',
                     VALE=1.72333E-09    )


# Pareil que TACR2, mais avec le maillage lu avant
mail = LIRE_MAILLAGE(UNITE=38,FORMAT='ASTER')
TCAR3=MACR_CARA_POUTRE(MAILLAGE=mail, GROUP_MA=('GR1', 'GR2',), ORIG_INER=(0.005, 0.0,) )

TEST_TABLE(TABLE=TCAR3, FILTRE=_F( NOM_PARA = 'ENTITE', VALE_K = 'TOUT'),
           NOM_PARA='IY_P', VALE=7.21667E-08,REFERENCE='ANALYTIQUE' )
TEST_TABLE(TABLE=TCAR3, FILTRE=_F( NOM_PARA = 'ENTITE', VALE_K = 'TOUT'),
           NOM_PARA='IZ_P', VALE=3.44667E-09,REFERENCE='ANALYTIQUE' )
TEST_TABLE(TABLE=TCAR3, FILTRE=_F( NOM_PARA = 'LIEU', VALE_K = 'GR1'),
           NOM_PARA='IY_P', VALE=3.60833E-08,REFERENCE='ANALYTIQUE' )
TEST_TABLE(TABLE=TCAR3, FILTRE=_F( NOM_PARA = 'LIEU', VALE_K = 'GR1'),
           NOM_PARA='IZ_P', VALE=1.72333E-09,REFERENCE='ANALYTIQUE' )
TEST_TABLE(TABLE=TCAR3, FILTRE=_F(  NOM_PARA = 'LIEU', VALE_K = 'GR2'),
           NOM_PARA='IY_P', VALE=3.60833E-08,REFERENCE='ANALYTIQUE'  )
TEST_TABLE(TABLE=TCAR3, FILTRE=_F(  NOM_PARA = 'LIEU', VALE_K = 'GR2'),
           NOM_PARA='IZ_P', VALE=1.72333E-09,REFERENCE='ANALYTIQUE'  )

# Pareil que TACR2, mais avec le format MED
IMPR_RESU(FORMAT='MED',UNITE=39,RESU=_F(MAILLAGE=mail))
#
TCAR4=MACR_CARA_POUTRE(UNITE=39,FORMAT='MED', GROUP_MA=('GR1', 'GR2',), ORIG_INER=(0.005, 0.0,) )

TEST_TABLE(TABLE=TCAR4, FILTRE=_F( NOM_PARA = 'ENTITE', VALE_K = 'TOUT'),
           NOM_PARA='IY_P', VALE=7.21667E-08,REFERENCE='ANALYTIQUE' )
TEST_TABLE(TABLE=TCAR4, FILTRE=_F( NOM_PARA = 'ENTITE', VALE_K = 'TOUT'),
           NOM_PARA='IZ_P', VALE=3.44667E-09,REFERENCE='ANALYTIQUE' )
TEST_TABLE(TABLE=TCAR4, FILTRE=_F( NOM_PARA = 'LIEU', VALE_K = 'GR1'),
           NOM_PARA='IY_P', VALE=3.60833E-08,REFERENCE='ANALYTIQUE' )
TEST_TABLE(TABLE=TCAR4, FILTRE=_F( NOM_PARA = 'LIEU', VALE_K = 'GR1'),
           NOM_PARA='IZ_P', VALE=1.72333E-09,REFERENCE='ANALYTIQUE' )
TEST_TABLE(TABLE=TCAR4, FILTRE=_F(  NOM_PARA = 'LIEU', VALE_K = 'GR2'),
           NOM_PARA='IY_P', VALE=3.60833E-08,REFERENCE='ANALYTIQUE'  )
TEST_TABLE(TABLE=TCAR4, FILTRE=_F(  NOM_PARA = 'LIEU', VALE_K = 'GR2'),
           NOM_PARA='IZ_P', VALE=1.72333E-09,REFERENCE='ANALYTIQUE'  )


FIN()
#
#
