# ======================================================================
# COPYRIGHT (C) 1991 - 2016  EDF R&D                  WWW.CODE-ASTER.ORG
# THIS PROGRAM IS FREE SOFTWARE; YOU CAN REDISTRIBUTE IT AND/OR MODIFY
# IT UNDER THE TERMS OF THE GNU GENERAL PUBLIC LICENSE AS PUBLISHED BY
# THE FREE SOFTWARE FOUNDATION; EITHER VERSION 2 OF THE LICENSE, OR
# (AT YOUR OPTION) ANY LATER VERSION.
#
# THIS PROGRAM IS DISTRIBUTED IN THE HOPE THAT IT WILL BE USEFUL, BUT
# WITHOUT ANY WARRANTY; WITHOUT EVEN THE IMPLIED WARRANTY OF
# MERCHANTABILITY OR FITNESS FOR A PARTICULAR PURPOSE. SEE THE GNU
# GENERAL PUBLIC LICENSE FOR MORE DETAILS.
#
# YOU SHOULD HAVE RECEIVED A COPY OF THE GNU GENERAL PUBLIC LICENSE
# ALONG WITH THIS PROGRAM; IF NOT, WRITE TO EDF R&D CODE_ASTER,
#    1 AVENUE DU GENERAL DE GAULLE, 92141 CLAMART CEDEX, FRANCE.
# ======================================================================
#       UNITAIRES SUR SON AUTRE EXTREMITE.
# MODELISATION POU_D_TG   GAUCHISSEMENT GENE   IW/=0
#======================================================================


DEBUT(CODE=_F(NIV_PUB_WEB='INTERNET'), DEBUG=_F(SDVERI='OUI'))

MA=LIRE_MAILLAGE(                                                )

MO=AFFE_MODELE(        MAILLAGE=MA,
         AFFE=_F( TOUT = 'OUI',PHENOMENE = 'MECANIQUE',MODELISATION = 'POU_D_TG')
                        )

MATR=DEFI_MATERIAU(   ELAS=_F( E = 2.E11,  NU = 0.3) )

CHMAT=AFFE_MATERIAU(   MAILLAGE=MA,
                           AFFE=_F( TOUT = 'OUI', MATER = MATR)            )

CAREL=AFFE_CARA_ELEM(   MODELE=MO,POUTRE=(
          # SECTION RECTANGLE :
           _F(  GROUP_MA = 'G1',   SECTION = 'GENERALE',
          CARA = (   'A',            'IY',              'IZ',
                   'AY',           'AZ',              'JX',
                   'JG',                                   ),
          VALE = (  0.02,        0.166666666666E-4, 0.666666666666E-4,
                    1.2,         1.2,                 0.45776E-4,
                    5.555555555555E-8,
                  )),
          # SECTION CORNIERE 120X120X8 :
           _F(  GROUP_MA = 'G2',   SECTION = 'GENERALE',
          CARA = (   'A',            'IY',              'IZ',
                   'AY',           'AZ',              'JX',
                   'EY',           'EZ',              'JG',        ),
          VALE = (  1.856E-3,       4.167339E-4,       1.045547E-4,
                    2.793296089385, 2.793296089385,    3.9595E-8,
                    41.012E-3,      0.0,      4.43988195555E-11,         )))
)

# ------ TRACTION SIMPLE GX : ------------------------------------------


CHARG1=AFFE_CHAR_MECA(  MODELE=MO,
    DDL_IMPO=_F( GROUP_NO = 'A', DX = 0., DY = 0., DZ = 0., DRX = 0., DRY = 0., DRZ = 0., GRX = 0.),
     FORCE_NODALE=_F( GROUP_NO = 'B',  FX = 1.0E0)   )

MEST1=MECA_STATIQUE(        MODELE=MO,    CHAM_MATER=CHMAT,
            CARA_ELEM=CAREL, EXCIT=_F( CHARGE = CHARG1)   )

TEST_RESU(RESU=(_F(NUME_ORDRE=1,
                   REFERENCE='ANALYTIQUE',
                   RESULTAT=MEST1,
                   NOM_CHAM='DEPL',
                   NOEUD='N3',
                   NOM_CMP='DX',
                   VALE_CALC= 5.00000000E-10,
                   VALE_REFE=5.0000000000000003E-10,
                   CRITERE='RELATIF',
                   PRECISION=9.9999999999999995E-07,),
                _F(NUME_ORDRE=1,
                   REFERENCE='ANALYTIQUE',
                   RESULTAT=MEST1,
                   NOM_CHAM='DEPL',
                   NOEUD='N3',
                   NOM_CMP='DY',
                   VALE_CALC= 0.0000000000000E+00,
                   VALE_REFE=0.0,
                   CRITERE='ABSOLU',
                   PRECISION=1.E-13,),
                _F(NUME_ORDRE=1,
                   REFERENCE='ANALYTIQUE',
                   RESULTAT=MEST1,
                   NOM_CHAM='DEPL',
                   NOEUD='N3',
                   NOM_CMP='DZ',
                   VALE_CALC= 0.0000000000000E+00,
                   VALE_REFE=0.0,
                   CRITERE='ABSOLU',
                   PRECISION=1.E-13,),
                _F(NUME_ORDRE=1,
                   REFERENCE='ANALYTIQUE',
                   RESULTAT=MEST1,
                   NOM_CHAM='DEPL',
                   NOEUD='N3',
                   NOM_CMP='DRX',
                   VALE_CALC= 0.0000000000000E+00,
                   VALE_REFE=0.0,
                   CRITERE='ABSOLU',
                   PRECISION=1.E-13,),
                _F(NUME_ORDRE=1,
                   REFERENCE='ANALYTIQUE',
                   RESULTAT=MEST1,
                   NOM_CHAM='DEPL',
                   NOEUD='N3',
                   NOM_CMP='DRY',
                   VALE_CALC= 0.0000000000000E+00,
                   VALE_REFE=0.0,
                   CRITERE='ABSOLU',
                   PRECISION=1.E-13,),
                _F(NUME_ORDRE=1,
                   REFERENCE='ANALYTIQUE',
                   RESULTAT=MEST1,
                   NOM_CHAM='DEPL',
                   NOEUD='N3',
                   NOM_CMP='DRZ',
                   VALE_CALC= 0.0000000000000E+00,
                   VALE_REFE=0.0,
                   CRITERE='ABSOLU',
                   PRECISION=1.E-13,),
                _F(NUME_ORDRE=1,
                   REFERENCE='ANALYTIQUE',
                   RESULTAT=MEST1,
                   NOM_CHAM='DEPL',
                   NOEUD='M3',
                   NOM_CMP='DX',
                   VALE_CALC= 5.38793103E-09,
                   VALE_REFE=5.3879310000000003E-09,
                   CRITERE='RELATIF',
                   PRECISION=9.9999999999999995E-07,),
                _F(NUME_ORDRE=1,
                   REFERENCE='ANALYTIQUE',
                   RESULTAT=MEST1,
                   NOM_CHAM='DEPL',
                   NOEUD='M3',
                   NOM_CMP='DY',
                   VALE_CALC= 0.0000000000000E+00,
                   VALE_REFE=0.0,
                   CRITERE='ABSOLU',
                   PRECISION=1.E-13,),
                _F(NUME_ORDRE=1,
                   REFERENCE='ANALYTIQUE',
                   RESULTAT=MEST1,
                   NOM_CHAM='DEPL',
                   NOEUD='M3',
                   NOM_CMP='DZ',
                   VALE_CALC= 0.0000000000000E+00,
                   VALE_REFE=0.0,
                   CRITERE='ABSOLU',
                   PRECISION=1.E-13,),
                _F(NUME_ORDRE=1,
                   REFERENCE='ANALYTIQUE',
                   RESULTAT=MEST1,
                   NOM_CHAM='DEPL',
                   NOEUD='M3',
                   NOM_CMP='DRX',
                   VALE_CALC= 0.0000000000000E+00,
                   VALE_REFE=0.0,
                   CRITERE='ABSOLU',
                   PRECISION=1.E-13,),
                _F(NUME_ORDRE=1,
                   REFERENCE='ANALYTIQUE',
                   RESULTAT=MEST1,
                   NOM_CHAM='DEPL',
                   NOEUD='M3',
                   NOM_CMP='DRY',
                   VALE_CALC= 0.0000000000000E+00,
                   VALE_REFE=0.0,
                   CRITERE='ABSOLU',
                   PRECISION=1.E-13,),
                _F(NUME_ORDRE=1,
                   REFERENCE='ANALYTIQUE',
                   RESULTAT=MEST1,
                   NOM_CHAM='DEPL',
                   NOEUD='M3',
                   NOM_CMP='DRZ',
                   VALE_CALC= 0.0000000000000E+00,
                   VALE_REFE=0.0,
                   CRITERE='ABSOLU',
                   PRECISION=1.E-13,),
                _F(NUME_ORDRE=1,
                   REFERENCE='ANALYTIQUE',
                   RESULTAT=MEST1,
                   NOM_CHAM='DEPL',
                   NOEUD='N1',
                   NOM_CMP='GRX',
                   VALE_CALC= 0.0000000000000E+00,
                   VALE_REFE=0.0,
                   CRITERE='ABSOLU',
                   PRECISION=1.E-13,),
                _F(NUME_ORDRE=1,
                   REFERENCE='ANALYTIQUE',
                   RESULTAT=MEST1,
                   NOM_CHAM='DEPL',
                   NOEUD='M1',
                   NOM_CMP='GRX',
                   VALE_CALC= 0.0000000000000E+00,
                   VALE_REFE=0.0,
                   CRITERE='ABSOLU',
                   PRECISION=1.E-13,),
                _F(NUME_ORDRE=1,
                   REFERENCE='ANALYTIQUE',
                   RESULTAT=MEST1,
                   NOM_CHAM='DEPL',
                   NOEUD='N3',
                   NOM_CMP='GRX',
                   VALE_CALC= 0.0000000000000E+00,
                   VALE_REFE=0.0,
                   CRITERE='ABSOLU',
                   PRECISION=1.E-13,),
                _F(NUME_ORDRE=1,
                   REFERENCE='ANALYTIQUE',
                   RESULTAT=MEST1,
                   NOM_CHAM='DEPL',
                   NOEUD='M3',
                   NOM_CMP='GRX',
                   VALE_CALC= 0.0000000000000E+00,
                   VALE_REFE=0.0,
                   CRITERE='ABSOLU',
                   PRECISION=1.E-13,),
                ),
          )

#
# ------ EFFORT TRANCHANT GY : -----------------------------------------


CHARG2=AFFE_CHAR_MECA(  MODELE=MO,
    DDL_IMPO=_F( GROUP_NO = 'A', DX = 0., DY = 0., DZ = 0., DRX = 0., DRY = 0., DRZ = 0., GRX = 0.),
     FORCE_NODALE=_F( GROUP_NO = 'B',  FY = 1.0E0)   )

MEST2=MECA_STATIQUE(        MODELE=MO,    CHAM_MATER=CHMAT,
            CARA_ELEM=CAREL, EXCIT=_F( CHARGE = CHARG2)   )

TEST_RESU(RESU=(_F(NUME_ORDRE=1,
                   REFERENCE='ANALYTIQUE',
                   RESULTAT=MEST2,
                   NOM_CHAM='DEPL',
                   NOEUD='N3',
                   NOM_CMP='DX',
                   VALE_CALC= 0.0000000000000E+00,
                   VALE_REFE=0.0,
                   CRITERE='ABSOLU',
                   PRECISION=1.E-13,),
                _F(NUME_ORDRE=1,
                   REFERENCE='ANALYTIQUE',
                   RESULTAT=MEST2,
                   NOM_CHAM='DEPL',
                   NOEUD='N3',
                   NOM_CMP='DY',
                   VALE_CALC= 2.01560000E-07,
                   VALE_REFE=2.0156000000000001E-07,
                   CRITERE='RELATIF',
                   PRECISION=9.9999999999999995E-07,),
                _F(NUME_ORDRE=1,
                   REFERENCE='ANALYTIQUE',
                   RESULTAT=MEST2,
                   NOM_CHAM='DEPL',
                   NOEUD='N3',
                   NOM_CMP='DZ',
                   VALE_CALC= 0.0000000000000E+00,
                   VALE_REFE=0.0,
                   CRITERE='ABSOLU',
                   PRECISION=1.E-13,),
                _F(NUME_ORDRE=1,
                   REFERENCE='ANALYTIQUE',
                   RESULTAT=MEST2,
                   NOM_CHAM='DEPL',
                   NOEUD='N3',
                   NOM_CMP='DRX',
                   VALE_CALC= 0.0000000000000E+00,
                   VALE_REFE=0.0,
                   CRITERE='ABSOLU',
                   PRECISION=1.E-13,),
                _F(NUME_ORDRE=1,
                   REFERENCE='ANALYTIQUE',
                   RESULTAT=MEST2,
                   NOM_CHAM='DEPL',
                   NOEUD='N3',
                   NOM_CMP='DRY',
                   VALE_CALC= 0.0000000000000E+00,
                   VALE_REFE=0.0,
                   CRITERE='ABSOLU',
                   PRECISION=1.E-13,),
                _F(NUME_ORDRE=1,
                   REFERENCE='ANALYTIQUE',
                   RESULTAT=MEST2,
                   NOM_CHAM='DEPL',
                   NOEUD='N3',
                   NOM_CMP='DRZ',
                   VALE_CALC= 1.50000000E-07,
                   VALE_REFE=1.4999999999999999E-07,
                   CRITERE='RELATIF',
                   PRECISION=9.9999999999999995E-07,),
                _F(NUME_ORDRE=1,
                   REFERENCE='ANALYTIQUE',
                   RESULTAT=MEST2,
                   NOM_CHAM='DEPL',
                   NOEUD='M3',
                   NOM_CMP='DX',
                   VALE_CALC= 0.0000000000000E+00,
                   VALE_REFE=0.0,
                   CRITERE='ABSOLU',
                   PRECISION=1.E-13,),
                _F(NUME_ORDRE=1,
                   REFERENCE='ANALYTIQUE',
                   RESULTAT=MEST2,
                   NOM_CHAM='DEPL',
                   NOEUD='M3',
                   NOM_CMP='DY',
                   VALE_CALC= 1.66655180E-07,
                   VALE_REFE=1.6665517899999999E-07,
                   CRITERE='RELATIF',
                   PRECISION=9.9999999999999995E-07,),
                _F(NUME_ORDRE=1,
                   REFERENCE='ANALYTIQUE',
                   RESULTAT=MEST2,
                   NOM_CHAM='DEPL',
                   NOEUD='M3',
                   NOM_CMP='DZ',
                   VALE_CALC= 0.0000000000000E+00,
                   VALE_REFE=0.0,
                   CRITERE='ABSOLU',
                   PRECISION=1.E-13,),
                _F(NUME_ORDRE=1,
                   REFERENCE='ANALYTIQUE',
                   RESULTAT=MEST2,
                   NOM_CHAM='DEPL',
                   NOEUD='M3',
                   NOM_CMP='DRX',
                   VALE_CALC= 0.0000000000000E+00,
                   VALE_REFE=0.0,
                   CRITERE='ABSOLU',
                   PRECISION=1.E-13,),
                _F(NUME_ORDRE=1,
                   REFERENCE='ANALYTIQUE',
                   RESULTAT=MEST2,
                   NOM_CHAM='DEPL',
                   NOEUD='M3',
                   NOM_CMP='DRY',
                   VALE_CALC= 0.0000000000000E+00,
                   VALE_REFE=0.0,
                   CRITERE='ABSOLU',
                   PRECISION=1.E-13,),
                _F(NUME_ORDRE=1,
                   REFERENCE='ANALYTIQUE',
                   RESULTAT=MEST2,
                   NOM_CHAM='DEPL',
                   NOEUD='M3',
                   NOM_CMP='DRZ',
                   VALE_CALC= 9.56437157E-08,
                   VALE_REFE=9.5643715000000004E-08,
                   CRITERE='RELATIF',
                   PRECISION=9.9999999999999995E-07,),
                _F(NUME_ORDRE=1,
                   REFERENCE='ANALYTIQUE',
                   RESULTAT=MEST2,
                   NOM_CHAM='DEPL',
                   NOEUD='N1',
                   NOM_CMP='GRX',
                   VALE_CALC= 0.0000000000000E+00,
                   VALE_REFE=0.0,
                   CRITERE='ABSOLU',
                   PRECISION=1.E-13,),
                _F(NUME_ORDRE=1,
                   REFERENCE='ANALYTIQUE',
                   RESULTAT=MEST2,
                   NOM_CHAM='DEPL',
                   NOEUD='M1',
                   NOM_CMP='GRX',
                   VALE_CALC= 0.0000000000000E+00,
                   VALE_REFE=0.0,
                   CRITERE='ABSOLU',
                   PRECISION=1.E-13,),
                _F(NUME_ORDRE=1,
                   REFERENCE='ANALYTIQUE',
                   RESULTAT=MEST2,
                   NOM_CHAM='DEPL',
                   NOEUD='N3',
                   NOM_CMP='GRX',
                   VALE_CALC= 0.0000000000000E+00,
                   VALE_REFE=0.0,
                   CRITERE='ABSOLU',
                   PRECISION=1.E-13,),
                _F(NUME_ORDRE=1,
                   REFERENCE='ANALYTIQUE',
                   RESULTAT=MEST2,
                   NOM_CHAM='DEPL',
                   NOEUD='M3',
                   NOM_CMP='GRX',
                   VALE_CALC= 0.0000000000000E+00,
                   VALE_REFE=0.0,
                   CRITERE='ABSOLU',
                   PRECISION=1.E-13,),
                ),
          )

#
# ------ EFFORT TRANCHANT GZ : -----------------------------------------


CHARG3=AFFE_CHAR_MECA(  MODELE=MO,
    DDL_IMPO=_F( GROUP_NO = 'A', DX = 0., DY = 0., DZ = 0., DRX = 0., DRY = 0., DRZ = 0., GRX = 0.),
     FORCE_NODALE=_F( GROUP_NO = 'B',  FZ = 1.0E0)   )

MEST3=MECA_STATIQUE(        MODELE=MO,    CHAM_MATER=CHMAT,
            CARA_ELEM=CAREL, EXCIT=_F( CHARGE = CHARG3)   )

TEST_RESU(RESU=(_F(NUME_ORDRE=1,
                   REFERENCE='ANALYTIQUE',
                   RESULTAT=MEST3,
                   NOM_CHAM='DEPL',
                   NOEUD='N3',
                   NOM_CMP='DX',
                   VALE_CALC= 0.0000000000000E+00,
                   VALE_REFE=0.0,
                   CRITERE='ABSOLU',
                   PRECISION=1.E-13,),
                _F(NUME_ORDRE=1,
                   REFERENCE='ANALYTIQUE',
                   RESULTAT=MEST3,
                   NOM_CHAM='DEPL',
                   NOEUD='N3',
                   NOM_CMP='DY',
                   VALE_CALC= 0.0000000000000E+00,
                   VALE_REFE=0.0,
                   CRITERE='ABSOLU',
                   PRECISION=1.E-13,),
                _F(NUME_ORDRE=1,
                   REFERENCE='ANALYTIQUE',
                   RESULTAT=MEST3,
                   NOM_CHAM='DEPL',
                   NOEUD='N3',
                   NOM_CMP='DZ',
                   VALE_CALC= 8.01560000E-07,
                   VALE_REFE=8.0156000000000004E-07,
                   CRITERE='RELATIF',
                   PRECISION=9.9999999999999995E-07,),
                _F(NUME_ORDRE=1,
                   REFERENCE='ANALYTIQUE',
                   RESULTAT=MEST3,
                   NOM_CHAM='DEPL',
                   NOEUD='N3',
                   NOM_CMP='DRX',
                   VALE_CALC= 0.0000000000000E+00,
                   VALE_REFE=0.0,
                   CRITERE='ABSOLU',
                   PRECISION=1.E-13,),
                _F(NUME_ORDRE=1,
                   REFERENCE='ANALYTIQUE',
                   RESULTAT=MEST3,
                   NOM_CHAM='DEPL',
                   NOEUD='N3',
                   NOM_CMP='DRY',
                   VALE_CALC=-6.00000000E-07,
                   VALE_REFE=-5.9999999999999997E-07,
                   CRITERE='RELATIF',
                   PRECISION=9.9999999999999995E-07,),
                _F(NUME_ORDRE=1,
                   REFERENCE='ANALYTIQUE',
                   RESULTAT=MEST3,
                   NOM_CHAM='DEPL',
                   NOEUD='N3',
                   NOM_CMP='DRZ',
                   VALE_CALC= 0.0000000000000E+00,
                   VALE_REFE=0.0,
                   CRITERE='ABSOLU',
                   PRECISION=1.E-13,),
                _F(NUME_ORDRE=1,
                   REFERENCE='ANALYTIQUE',
                   RESULTAT=MEST3,
                   NOM_CHAM='DEPL',
                   NOEUD='M3',
                   NOM_CMP='DX',
                   VALE_CALC= 0.0000000000000E+00,
                   VALE_REFE=0.0,
                   CRITERE='ABSOLU',
                   PRECISION=1.E-13,),
                _F(NUME_ORDRE=1,
                   REFERENCE='ANALYTIQUE',
                   RESULTAT=MEST3,
                   NOM_CHAM='DEPL',
                   NOEUD='M3',
                   NOM_CMP='DY',
                   VALE_CALC= 0.0000000000000E+00,
                   VALE_REFE=0.0,
                   CRITERE='ABSOLU',
                   PRECISION=1.E-13,),
                _F(NUME_ORDRE=1,
                   REFERENCE='ANALYTIQUE',
                   RESULTAT=MEST3,
                   NOM_CHAM='DEPL',
                   NOEUD='M3',
                   NOM_CMP='DZ',
                   VALE_CALC= 1.14572549E-06,
                   VALE_REFE=1.1457796299999999E-06,
                   CRITERE='RELATIF',
                   PRECISION=6.0000000000000002E-05,),
                _F(NUME_ORDRE=1,
                   REFERENCE='ANALYTIQUE',
                   RESULTAT=MEST3,
                   NOM_CHAM='DEPL',
                   NOEUD='M3',
                   NOM_CMP='DRX',
                   VALE_CALC= 2.62020976E-05,
                   VALE_REFE=2.62034178E-05,
                   CRITERE='RELATIF',
                   PRECISION=6.0000000000000002E-05,),
                _F(NUME_ORDRE=1,
                   REFERENCE='ANALYTIQUE',
                   RESULTAT=MEST3,
                   NOM_CHAM='DEPL',
                   NOEUD='M3',
                   NOM_CMP='DRY',
                   VALE_CALC=-2.39961280E-08,
                   VALE_REFE=-2.3996126999999999E-08,
                   CRITERE='RELATIF',
                   PRECISION=9.9999999999999995E-07,),
                _F(NUME_ORDRE=1,
                   REFERENCE='ANALYTIQUE',
                   RESULTAT=MEST3,
                   NOM_CHAM='DEPL',
                   NOEUD='M3',
                   NOM_CMP='DRZ',
                   VALE_CALC= 0.0000000000000E+00,
                   VALE_REFE=0.0,
                   CRITERE='ABSOLU',
                   PRECISION=1.E-13,),
                _F(NUME_ORDRE=1,
                   REFERENCE='ANALYTIQUE',
                   RESULTAT=MEST3,
                   NOM_CHAM='DEPL',
                   NOEUD='N1',
                   NOM_CMP='GRX',
                   VALE_CALC= 0.0000000000000E+00,
                   VALE_REFE=0.0,
                   CRITERE='ABSOLU',
                   PRECISION=1.E-13,),
                _F(NUME_ORDRE=1,
                   REFERENCE='ANALYTIQUE',
                   RESULTAT=MEST3,
                   NOM_CHAM='DEPL',
                   NOEUD='M1',
                   NOM_CMP='GRX',
                   VALE_CALC= 1.5532083333686E-30,
                   VALE_REFE=0.0,
                   CRITERE='ABSOLU',
                   PRECISION=1.E-13,),
                _F(NUME_ORDRE=1,
                   REFERENCE='ANALYTIQUE',
                   RESULTAT=MEST3,
                   NOM_CHAM='DEPL',
                   NOEUD='N3',
                   NOM_CMP='GRX',
                   VALE_CALC= 0.0000000000000E+00,
                   VALE_REFE=0.0,
                   CRITERE='ABSOLU',
                   PRECISION=1.E-13,),
                _F(NUME_ORDRE=1,
                   REFERENCE='ANALYTIQUE',
                   RESULTAT=MEST3,
                   NOM_CHAM='DEPL',
                   NOEUD='M3',
                   NOM_CMP='GRX',
                   VALE_CALC= 1.34652355E-05,
                   VALE_REFE=1.3465235E-05,
                   CRITERE='RELATIF',
                   PRECISION=9.9999999999999995E-07,),
                ),
          )

#
# ------ TORSION GX : --------------------------------------------------


CHARG4=AFFE_CHAR_MECA(  MODELE=MO,
    DDL_IMPO=_F( GROUP_NO = 'A', DX = 0., DY = 0., DZ = 0., DRX = 0., DRY = 0., DRZ = 0., GRX = 0.),
     FORCE_NODALE=_F( GROUP_NO = 'B',  MX = 1.0E0)   )

MEST4=MECA_STATIQUE(        MODELE=MO,    CHAM_MATER=CHMAT,
            CARA_ELEM=CAREL, EXCIT=_F( CHARGE = CHARG4)   )

TEST_RESU(RESU=(_F(NUME_ORDRE=1,
                   REFERENCE='ANALYTIQUE',
                   RESULTAT=MEST4,
                   NOM_CHAM='DEPL',
                   NOEUD='N3',
                   NOM_CMP='DX',
                   VALE_CALC= 0.0000000000000E+00,
                   VALE_REFE=0.0,
                   CRITERE='ABSOLU',
                   PRECISION=1.E-13,),
                _F(NUME_ORDRE=1,
                   REFERENCE='ANALYTIQUE',
                   RESULTAT=MEST4,
                   NOM_CHAM='DEPL',
                   NOEUD='N3',
                   NOM_CMP='DY',
                   VALE_CALC= 0.0000000000000E+00,
                   VALE_REFE=0.0,
                   CRITERE='ABSOLU',
                   PRECISION=1.E-13,),
                _F(NUME_ORDRE=1,
                   REFERENCE='ANALYTIQUE',
                   RESULTAT=MEST4,
                   NOM_CHAM='DEPL',
                   NOEUD='N3',
                   NOM_CMP='DZ',
                   VALE_CALC= 0.0000000000000E+00,
                   VALE_REFE=0.0,
                   CRITERE='ABSOLU',
                   PRECISION=1.E-13,),
                _F(NUME_ORDRE=1,
                   REFERENCE='ANALYTIQUE',
                   RESULTAT=MEST4,
                   NOM_CHAM='DEPL',
                   NOEUD='N3',
                   NOM_CMP='DRX',
                   VALE_CALC= 5.52001584E-07,
                   VALE_REFE=5.5203040000000002E-07,
                   CRITERE='RELATIF',
                   PRECISION=6.0000000000000002E-05,),
                _F(NUME_ORDRE=1,
                   REFERENCE='ANALYTIQUE',
                   RESULTAT=MEST4,
                   NOM_CHAM='DEPL',
                   NOEUD='N3',
                   NOM_CMP='DRY',
                   VALE_CALC= 0.0000000000000E+00,
                   VALE_REFE=0.0,
                   CRITERE='ABSOLU',
                   PRECISION=1.E-13,),
                _F(NUME_ORDRE=1,
                   REFERENCE='ANALYTIQUE',
                   RESULTAT=MEST4,
                   NOM_CHAM='DEPL',
                   NOEUD='N3',
                   NOM_CMP='DRZ',
                   VALE_CALC= 0.0000000000000E+00,
                   VALE_REFE=0.0,
                   CRITERE='ABSOLU',
                   PRECISION=1.E-13,),
                _F(NUME_ORDRE=1,
                   REFERENCE='ANALYTIQUE',
                   RESULTAT=MEST4,
                   NOM_CHAM='DEPL',
                   NOEUD='M3',
                   NOM_CMP='DX',
                   VALE_CALC= 0.0000000000000E+00,
                   VALE_REFE=0.0,
                   CRITERE='ABSOLU',
                   PRECISION=1.E-13,),
                _F(NUME_ORDRE=1,
                   REFERENCE='ANALYTIQUE',
                   RESULTAT=MEST4,
                   NOM_CHAM='DEPL',
                   NOEUD='M3',
                   NOM_CMP='DY',
                   VALE_CALC= 0.0000000000000E+00,
                   VALE_REFE=0.0,
                   CRITERE='ABSOLU',
                   PRECISION=1.E-13,),
                _F(NUME_ORDRE=1,
                   REFERENCE='ANALYTIQUE',
                   RESULTAT=MEST4,
                   NOM_CHAM='DEPL',
                   NOEUD='M3',
                   NOM_CMP='DZ',
                   VALE_CALC= 2.62020976E-05,
                   VALE_REFE=2.62034178E-05,
                   CRITERE='RELATIF',
                   PRECISION=6.0000000000000002E-05,),
                _F(NUME_ORDRE=1,
                   REFERENCE='ANALYTIQUE',
                   RESULTAT=MEST4,
                   NOM_CHAM='DEPL',
                   NOEUD='M3',
                   NOM_CMP='DRX',
                   VALE_CALC= 6.38888559E-04,
                   VALE_REFE=6.3892075E-4,
                   CRITERE='RELATIF',
                   PRECISION=6.0000000000000002E-05,),
                _F(NUME_ORDRE=1,
                   REFERENCE='ANALYTIQUE',
                   RESULTAT=MEST4,
                   NOM_CHAM='DEPL',
                   NOEUD='M3',
                   NOM_CMP='DRY',
                   VALE_CALC= 1.9615545730673E-20,
                   VALE_REFE=0.0,
                   CRITERE='ABSOLU',
                   PRECISION=1.E-13,),
                _F(NUME_ORDRE=1,
                   REFERENCE='ANALYTIQUE',
                   RESULTAT=MEST4,
                   NOM_CHAM='DEPL',
                   NOEUD='M3',
                   NOM_CMP='DRZ',
                   VALE_CALC= 0.0000000000000E+00,
                   VALE_REFE=0.0,
                   CRITERE='ABSOLU',
                   PRECISION=1.E-13,),
                _F(NUME_ORDRE=1,
                   REFERENCE='ANALYTIQUE',
                   RESULTAT=MEST4,
                   NOM_CHAM='DEPL',
                   NOEUD='N1',
                   NOM_CMP='GRX',
                   VALE_CALC=-8.2830395048206E-29,
                   VALE_REFE=0.0,
                   CRITERE='ABSOLU',
                   PRECISION=1.E-13,),
                _F(NUME_ORDRE=1,
                   REFERENCE='ANALYTIQUE',
                   RESULTAT=MEST4,
                   NOM_CHAM='DEPL',
                   NOEUD='M1',
                   NOM_CMP='GRX',
                   VALE_CALC=-1.1321129913622E-28,
                   VALE_REFE=0.0,
                   CRITERE='ABSOLU',
                   PRECISION=1.E-13,),
                _F(NUME_ORDRE=1,
                   REFERENCE='ANALYTIQUE',
                   RESULTAT=MEST4,
                   NOM_CHAM='DEPL',
                   NOEUD='N3',
                   NOM_CMP='GRX',
                   VALE_CALC= 2.83991611E-07,
                   VALE_REFE=2.8399161000000001E-07,
                   CRITERE='RELATIF',
                   PRECISION=9.9999999999999995E-07,),
                _F(NUME_ORDRE=1,
                   REFERENCE='ANALYTIQUE',
                   RESULTAT=MEST4,
                   NOM_CHAM='DEPL',
                   NOEUD='M3',
                   NOM_CMP='GRX',
                   VALE_CALC= 3.28324283E-04,
                   VALE_REFE=3.2832427999999997E-4,
                   CRITERE='RELATIF',
                   PRECISION=9.9999999999999995E-07,),
                ),
          )

#
# ------ FLEXION GY : --------------------------------------------------


CHARG5=AFFE_CHAR_MECA(  MODELE=MO,
    DDL_IMPO=_F( GROUP_NO = 'A', DX = 0., DY = 0., DZ = 0., DRX = 0., DRY = 0., DRZ = 0., GRX = 0.),
     FORCE_NODALE=_F( GROUP_NO = 'B',  MY = 1.0E0)   )

MEST5=MECA_STATIQUE(        MODELE=MO,    CHAM_MATER=CHMAT,
            CARA_ELEM=CAREL, EXCIT=_F( CHARGE = CHARG5)   )

TEST_RESU(RESU=(_F(NUME_ORDRE=1,
                   REFERENCE='ANALYTIQUE',
                   RESULTAT=MEST5,
                   NOM_CHAM='DEPL',
                   NOEUD='N3',
                   NOM_CMP='DX',
                   VALE_CALC= 0.0000000000000E+00,
                   VALE_REFE=0.0,
                   CRITERE='ABSOLU',
                   PRECISION=1.E-13,),
                _F(NUME_ORDRE=1,
                   REFERENCE='ANALYTIQUE',
                   RESULTAT=MEST5,
                   NOM_CHAM='DEPL',
                   NOEUD='N3',
                   NOM_CMP='DY',
                   VALE_CALC= 0.0000000000000E+00,
                   VALE_REFE=0.0,
                   CRITERE='ABSOLU',
                   PRECISION=1.E-13,),
                _F(NUME_ORDRE=1,
                   REFERENCE='ANALYTIQUE',
                   RESULTAT=MEST5,
                   NOM_CHAM='DEPL',
                   NOEUD='N3',
                   NOM_CMP='DZ',
                   VALE_CALC=-6.00000000E-07,
                   VALE_REFE=-5.9999999999999997E-07,
                   CRITERE='RELATIF',
                   PRECISION=9.9999999999999995E-07,),
                _F(NUME_ORDRE=1,
                   REFERENCE='ANALYTIQUE',
                   RESULTAT=MEST5,
                   NOM_CHAM='DEPL',
                   NOEUD='N3',
                   NOM_CMP='DRX',
                   VALE_CALC= 0.0000000000000E+00,
                   VALE_REFE=0.0,
                   CRITERE='ABSOLU',
                   PRECISION=1.E-13,),
                _F(NUME_ORDRE=1,
                   REFERENCE='ANALYTIQUE',
                   RESULTAT=MEST5,
                   NOM_CHAM='DEPL',
                   NOEUD='N3',
                   NOM_CMP='DRY',
                   VALE_CALC= 6.00000000E-07,
                   VALE_REFE=5.9999999999999997E-07,
                   CRITERE='RELATIF',
                   PRECISION=9.9999999999999995E-07,),
                _F(NUME_ORDRE=1,
                   REFERENCE='ANALYTIQUE',
                   RESULTAT=MEST5,
                   NOM_CHAM='DEPL',
                   NOEUD='N3',
                   NOM_CMP='DRZ',
                   VALE_CALC= 0.0000000000000E+00,
                   VALE_REFE=0.0,
                   CRITERE='ABSOLU',
                   PRECISION=1.E-13,),
                _F(NUME_ORDRE=1,
                   REFERENCE='ANALYTIQUE',
                   RESULTAT=MEST5,
                   NOM_CHAM='DEPL',
                   NOEUD='M3',
                   NOM_CMP='DX',
                   VALE_CALC= 0.0000000000000E+00,
                   VALE_REFE=0.0,
                   CRITERE='ABSOLU',
                   PRECISION=1.E-13,),
                _F(NUME_ORDRE=1,
                   REFERENCE='ANALYTIQUE',
                   RESULTAT=MEST5,
                   NOM_CHAM='DEPL',
                   NOEUD='M3',
                   NOM_CMP='DY',
                   VALE_CALC= 0.0000000000000E+00,
                   VALE_REFE=0.0,
                   CRITERE='ABSOLU',
                   PRECISION=1.E-13,),
                _F(NUME_ORDRE=1,
                   REFERENCE='ANALYTIQUE',
                   RESULTAT=MEST5,
                   NOM_CHAM='DEPL',
                   NOEUD='M3',
                   NOM_CMP='DZ',
                   VALE_CALC=-2.39961280E-08,
                   VALE_REFE=-2.3996126999999999E-08,
                   CRITERE='RELATIF',
                   PRECISION=9.9999999999999995E-07,),
                _F(NUME_ORDRE=1,
                   REFERENCE='ANALYTIQUE',
                   RESULTAT=MEST5,
                   NOM_CHAM='DEPL',
                   NOEUD='M3',
                   NOM_CMP='DRX',
                   VALE_CALC= 1.9615545730673E-20,
                   VALE_REFE=0.0,
                   CRITERE='ABSOLU',
                   PRECISION=1.E-13,),
                _F(NUME_ORDRE=1,
                   REFERENCE='ANALYTIQUE',
                   RESULTAT=MEST5,
                   NOM_CHAM='DEPL',
                   NOEUD='M3',
                   NOM_CMP='DRY',
                   VALE_CALC= 2.39961280E-08,
                   VALE_REFE=2.3996126999999999E-08,
                   CRITERE='RELATIF',
                   PRECISION=9.9999999999999995E-07,),
                _F(NUME_ORDRE=1,
                   REFERENCE='ANALYTIQUE',
                   RESULTAT=MEST5,
                   NOM_CHAM='DEPL',
                   NOEUD='M3',
                   NOM_CMP='DRZ',
                   VALE_CALC= 0.0000000000000E+00,
                   VALE_REFE=0.0,
                   CRITERE='ABSOLU',
                   PRECISION=1.E-13,),
                _F(NUME_ORDRE=1,
                   REFERENCE='ANALYTIQUE',
                   RESULTAT=MEST5,
                   NOM_CHAM='DEPL',
                   NOEUD='N1',
                   NOM_CMP='GRX',
                   VALE_CALC= 0.0000000000000E+00,
                   VALE_REFE=0.0,
                   CRITERE='ABSOLU',
                   PRECISION=1.E-13,),
                _F(NUME_ORDRE=1,
                   REFERENCE='ANALYTIQUE',
                   RESULTAT=MEST5,
                   NOM_CHAM='DEPL',
                   NOEUD='M1',
                   NOM_CMP='GRX',
                   VALE_CALC= 1.0089604365131E-37,
                   VALE_REFE=0.0,
                   CRITERE='ABSOLU',
                   PRECISION=1.E-13,),
                _F(NUME_ORDRE=1,
                   REFERENCE='ANALYTIQUE',
                   RESULTAT=MEST5,
                   NOM_CHAM='DEPL',
                   NOEUD='N3',
                   NOM_CMP='GRX',
                   VALE_CALC= 0.0000000000000E+00,
                   VALE_REFE=0.0,
                   CRITERE='ABSOLU',
                   PRECISION=1.E-13,),
                _F(NUME_ORDRE=1,
                   REFERENCE='ANALYTIQUE',
                   RESULTAT=MEST5,
                   NOM_CHAM='DEPL',
                   NOEUD='M3',
                   NOM_CMP='GRX',
                   VALE_CALC= 2.4619176316692E-23,
                   VALE_REFE=0.0,
                   CRITERE='ABSOLU',
                   PRECISION=1.E-13,),
                ),
          )

#
# ------ FLEXION GZ : --------------------------------------------------


CHARG6=AFFE_CHAR_MECA(  MODELE=MO,
    DDL_IMPO=_F( GROUP_NO = 'A', DX = 0., DY = 0., DZ = 0., DRX = 0., DRY = 0., DRZ = 0., GRX = 0.),
     FORCE_NODALE=_F( GROUP_NO = 'B',  MZ = 1.0E0)   )

MEST6=MECA_STATIQUE(        MODELE=MO,    CHAM_MATER=CHMAT,
            CARA_ELEM=CAREL, EXCIT=_F( CHARGE = CHARG6)   )

TEST_RESU(RESU=(_F(NUME_ORDRE=1,
                   REFERENCE='ANALYTIQUE',
                   RESULTAT=MEST6,
                   NOM_CHAM='DEPL',
                   NOEUD='N3',
                   NOM_CMP='DX',
                   VALE_CALC= 0.0000000000000E+00,
                   VALE_REFE=0.0,
                   CRITERE='ABSOLU',
                   PRECISION=1.E-13,),
                _F(NUME_ORDRE=1,
                   REFERENCE='ANALYTIQUE',
                   RESULTAT=MEST6,
                   NOM_CHAM='DEPL',
                   NOEUD='N3',
                   NOM_CMP='DY',
                   VALE_CALC= 1.50000000E-07,
                   VALE_REFE=1.4999999999999999E-07,
                   CRITERE='RELATIF',
                   PRECISION=9.9999999999999995E-07,),
                _F(NUME_ORDRE=1,
                   REFERENCE='ANALYTIQUE',
                   RESULTAT=MEST6,
                   NOM_CHAM='DEPL',
                   NOEUD='N3',
                   NOM_CMP='DZ',
                   VALE_CALC= 0.0000000000000E+00,
                   VALE_REFE=0.0,
                   CRITERE='ABSOLU',
                   PRECISION=1.E-13,),
                _F(NUME_ORDRE=1,
                   REFERENCE='ANALYTIQUE',
                   RESULTAT=MEST6,
                   NOM_CHAM='DEPL',
                   NOEUD='N3',
                   NOM_CMP='DRX',
                   VALE_CALC= 0.0000000000000E+00,
                   VALE_REFE=0.0,
                   CRITERE='ABSOLU',
                   PRECISION=1.E-13,),
                _F(NUME_ORDRE=1,
                   REFERENCE='ANALYTIQUE',
                   RESULTAT=MEST6,
                   NOM_CHAM='DEPL',
                   NOEUD='N3',
                   NOM_CMP='DRY',
                   VALE_CALC= 0.0000000000000E+00,
                   VALE_REFE=0.0,
                   CRITERE='ABSOLU',
                   PRECISION=1.E-13,),
                _F(NUME_ORDRE=1,
                   REFERENCE='ANALYTIQUE',
                   RESULTAT=MEST6,
                   NOM_CHAM='DEPL',
                   NOEUD='N3',
                   NOM_CMP='DRZ',
                   VALE_CALC= 1.50000000E-07,
                   VALE_REFE=1.4999999999999999E-07,
                   CRITERE='RELATIF',
                   PRECISION=9.9999999999999995E-07,),
                _F(NUME_ORDRE=1,
                   REFERENCE='ANALYTIQUE',
                   RESULTAT=MEST6,
                   NOM_CHAM='DEPL',
                   NOEUD='M3',
                   NOM_CMP='DX',
                   VALE_CALC= 0.0000000000000E+00,
                   VALE_REFE=0.0,
                   CRITERE='ABSOLU',
                   PRECISION=1.E-13,),
                _F(NUME_ORDRE=1,
                   REFERENCE='ANALYTIQUE',
                   RESULTAT=MEST6,
                   NOM_CHAM='DEPL',
                   NOEUD='M3',
                   NOM_CMP='DY',
                   VALE_CALC= 9.56437157E-08,
                   VALE_REFE=9.5643715000000004E-08,
                   CRITERE='RELATIF',
                   PRECISION=9.9999999999999995E-07,),
                _F(NUME_ORDRE=1,
                   REFERENCE='ANALYTIQUE',
                   RESULTAT=MEST6,
                   NOM_CHAM='DEPL',
                   NOEUD='M3',
                   NOM_CMP='DZ',
                   VALE_CALC= 0.0000000000000E+00,
                   VALE_REFE=0.0,
                   CRITERE='ABSOLU',
                   PRECISION=1.E-13,),
                _F(NUME_ORDRE=1,
                   REFERENCE='ANALYTIQUE',
                   RESULTAT=MEST6,
                   NOM_CHAM='DEPL',
                   NOEUD='M3',
                   NOM_CMP='DRX',
                   VALE_CALC= 0.0000000000000E+00,
                   VALE_REFE=0.0,
                   CRITERE='ABSOLU',
                   PRECISION=1.E-13,),
                _F(NUME_ORDRE=1,
                   REFERENCE='ANALYTIQUE',
                   RESULTAT=MEST6,
                   NOM_CHAM='DEPL',
                   NOEUD='M3',
                   NOM_CMP='DRY',
                   VALE_CALC= 0.0000000000000E+00,
                   VALE_REFE=0.0,
                   CRITERE='ABSOLU',
                   PRECISION=1.E-13,),
                _F(NUME_ORDRE=1,
                   REFERENCE='ANALYTIQUE',
                   RESULTAT=MEST6,
                   NOM_CHAM='DEPL',
                   NOEUD='M3',
                   NOM_CMP='DRZ',
                   VALE_CALC= 9.56437157E-08,
                   VALE_REFE=9.5643715000000004E-08,
                   CRITERE='RELATIF',
                   PRECISION=9.9999999999999995E-07,),
                _F(NUME_ORDRE=1,
                   REFERENCE='ANALYTIQUE',
                   RESULTAT=MEST6,
                   NOM_CHAM='DEPL',
                   NOEUD='N1',
                   NOM_CMP='GRX',
                   VALE_CALC= 0.0000000000000E+00,
                   VALE_REFE=0.0,
                   CRITERE='ABSOLU',
                   PRECISION=1.E-13,),
                _F(NUME_ORDRE=1,
                   REFERENCE='ANALYTIQUE',
                   RESULTAT=MEST6,
                   NOM_CHAM='DEPL',
                   NOEUD='M1',
                   NOM_CMP='GRX',
                   VALE_CALC= 0.0000000000000E+00,
                   VALE_REFE=0.0,
                   CRITERE='ABSOLU',
                   PRECISION=1.E-13,),
                _F(NUME_ORDRE=1,
                   REFERENCE='ANALYTIQUE',
                   RESULTAT=MEST6,
                   NOM_CHAM='DEPL',
                   NOEUD='N3',
                   NOM_CMP='GRX',
                   VALE_CALC= 0.0000000000000E+00,
                   VALE_REFE=0.0,
                   CRITERE='ABSOLU',
                   PRECISION=1.E-13,),
                _F(NUME_ORDRE=1,
                   REFERENCE='ANALYTIQUE',
                   RESULTAT=MEST6,
                   NOM_CHAM='DEPL',
                   NOEUD='M3',
                   NOM_CMP='GRX',
                   VALE_CALC= 0.0000000000000E+00,
                   VALE_REFE=0.0,
                   CRITERE='ABSOLU',
                   PRECISION=1.E-13,),
                ),
          )

#
# -- CALCUL DES EFFORTS :
#
MEST1=CALC_CHAMP(reuse=MEST1,CONTRAINTE=('EFGE_ELNO'),RESULTAT=MEST1)


MEST2=CALC_CHAMP(reuse=MEST2,CONTRAINTE=('EFGE_ELNO'),RESULTAT=MEST2)


MEST3=CALC_CHAMP(reuse=MEST3,CONTRAINTE=('EFGE_ELNO'),RESULTAT=MEST3)


MEST4=CALC_CHAMP(reuse=MEST4,CONTRAINTE=('EFGE_ELNO'),RESULTAT=MEST4)


MEST5=CALC_CHAMP(reuse=MEST5,CONTRAINTE=('EFGE_ELNO'),RESULTAT=MEST5)


MEST6=CALC_CHAMP(reuse=MEST6,CONTRAINTE=('EFGE_ELNO'),RESULTAT=MEST6)


#
# ======================================================================
# -- POUR TESTER QUELQUES MOTS CLEFS SUPPLEMENTAIRES :


CHARG71=AFFE_CHAR_MECA(  MODELE=MO,
     FORCE_NODALE=_F( GROUP_NO = 'B',  MZ = 1.0E0)   )

CHARG72=AFFE_CHAR_CINE(  MODELE=MO,MECA_IMPO=(
   _F( GROUP_NO = 'A', DX = 0., DY = 0., DZ = 0., DRX = 0., DRY = 0., DRZ = 0.),
   _F( TOUT = 'OUI',      GRX = 0.))
    )

MEST7=MECA_STATIQUE(        MODELE=MO,    CHAM_MATER=CHMAT,
            CARA_ELEM=CAREL,EXCIT=( _F( CHARGE = CHARG71),
                            _F( CHARGE = CHARG72))   )

TEST_RESU(RESU=(_F(NUME_ORDRE=1,
                   REFERENCE='ANALYTIQUE',
                   RESULTAT=MEST7,
                   NOM_CHAM='DEPL',
                   NOEUD='M3',
                   NOM_CMP='DY',
                   VALE_CALC= 9.56437157E-08,
                   VALE_REFE=9.5643715000000004E-08,
                   CRITERE='RELATIF',
                   PRECISION=9.9999999999999995E-07,),
                _F(NUME_ORDRE=1,
                   REFERENCE='ANALYTIQUE',
                   RESULTAT=MEST7,
                   NOM_CHAM='DEPL',
                   NOEUD='N1',
                   NOM_CMP='GRX',
                   VALE_CALC= 0.0000000000000E+00,
                   VALE_REFE=0.0,
                   CRITERE='ABSOLU',
                   PRECISION=1.E-13,),
                ),
          )

CHARG81=AFFE_CHAR_MECA(  MODELE=MO,
     FORCE_NODALE=_F( GROUP_NO = 'B',  MZ = 1.0E0)   )

C0=DEFI_CONSTANTE(VALE=0.)

CHARG82=AFFE_CHAR_CINE_F(  MODELE=MO,MECA_IMPO=(
   _F( GROUP_NO = 'A', DX = C0, DY = C0, DZ = C0, DRX = C0, DRY = C0, DRZ = C0),
   _F( TOUT = 'OUI', GRX = C0))
    )

MEST8=MECA_STATIQUE(        MODELE=MO,    CHAM_MATER=CHMAT,
            CARA_ELEM=CAREL,EXCIT=( _F( CHARGE = CHARG81),
                            _F( CHARGE = CHARG82))   )

TEST_RESU(RESU=(_F(NUME_ORDRE=1,
                   REFERENCE='ANALYTIQUE',
                   RESULTAT=MEST8,
                   NOM_CHAM='DEPL',
                   NOEUD='M3',
                   NOM_CMP='DY',
                   VALE_CALC= 9.56437157E-08,
                   VALE_REFE=9.5643715000000004E-08,
                   CRITERE='RELATIF',
                   PRECISION=9.9999999999999995E-07,),
                _F(NUME_ORDRE=1,
                   REFERENCE='ANALYTIQUE',
                   RESULTAT=MEST8,
                   NOM_CHAM='DEPL',
                   NOEUD='N1',
                   NOM_CMP='GRX',
                   VALE_CALC= 0.0000000000000E+00,
                   VALE_REFE=0.0,
                   CRITERE='ABSOLU',
                   PRECISION=1.E-13,),
                ),
          )

#
# ------------------------------------------------------
# -- AFFE_CHAR_MECA(_F) FORCE_NODALE ANGLE_NAUT
# -- AFFE_CHAR_MECA_F   DDL_IMPO 'GRX'
#

C05=DEFI_CONSTANTE(VALE=0.5)

C1=DEFI_CONSTANTE(VALE=1. )

C90=DEFI_CONSTANTE(VALE=-90.)

CHARG91=AFFE_CHAR_MECA(  MODELE=MO,
   DDL_IMPO=_F( GROUP_NO = 'A', DX = 0., DY = 0., DZ = 0., DRX = 0., DRY = 0., DRZ = 0.),
#  FORCE_NODALE: (GROUP_NO :B  MZ:1.0D0                  )
    FORCE_NODALE=_F( GROUP_NO = 'B',  MX = 1.0E0, ANGL_NAUT = (37.,-90.,54.,))
   )

CHARG92=AFFE_CHAR_MECA_F(  MODELE=MO,
   DDL_IMPO=_F( TOUT = 'OUI',      GRX = C0),
#  FORCE_NODALE: (GROUP_NO :B  MZ:1.0D0                  )
    FORCE_NODALE=_F( GROUP_NO = 'B',  MX = C1,    ANGL_NAUT = (C0,C90,C0,))
    )

MEST9=MECA_STATIQUE(        MODELE=MO,    CHAM_MATER=CHMAT,
            CARA_ELEM=CAREL,EXCIT=( _F( CHARGE = CHARG91, FONC_MULT = C05),
                            _F( CHARGE = CHARG92, FONC_MULT = C05))  )

TEST_RESU(RESU=(_F(NUME_ORDRE=1,
                   REFERENCE='ANALYTIQUE',
                   RESULTAT=MEST9,
                   NOM_CHAM='DEPL',
                   NOEUD='M3',
                   NOM_CMP='DY',
                   VALE_CALC= 9.56437157E-08,
                   VALE_REFE=9.5643715000000004E-08,
                   CRITERE='RELATIF',
                   PRECISION=9.9999999999999995E-07,),
                _F(NUME_ORDRE=1,
                   REFERENCE='ANALYTIQUE',
                   RESULTAT=MEST9,
                   NOM_CHAM='DEPL',
                   NOEUD='N1',
                   NOM_CMP='GRX',
                   VALE_CALC=-1.3137173103045E-46,
                   VALE_REFE=0.0,
                   CRITERE='ABSOLU',
                   PRECISION=1.E-13,),
                ),
          )

#

FIN()
#
