# TITRE 'FLAMBEMENT' D'UNE CORNIERE ELASTIQUE
#            CONFIGURATION MANAGEMENT OF EDF VERSION
# ======================================================================
# COPYRIGHT (C) 1991 - 2012  EDF R&D                  WWW.CODE-ASTER.ORG
# THIS PROGRAM IS FREE SOFTWARE; YOU CAN REDISTRIBUTE IT AND/OR MODIFY
# IT UNDER THE TERMS OF THE GNU GENERAL PUBLIC LICENSE AS PUBLISHED BY
# THE FREE SOFTWARE FOUNDATION; EITHER VERSION 2 OF THE LICENSE, OR
# (AT YOUR OPTION) ANY LATER VERSION.
#
# THIS PROGRAM IS DISTRIBUTED IN THE HOPE THAT IT WILL BE USEFUL, BUT
# WITHOUT ANY WARRANTY; WITHOUT EVEN THE IMPLIED WARRANTY OF
# MERCHANTABILITY OR FITNESS FOR A PARTICULAR PURPOSE. SEE THE GNU
# GENERAL PUBLIC LICENSE FOR MORE DETAILS.
#
# YOU SHOULD HAVE RECEIVED A COPY OF THE GNU GENERAL PUBLIC LICENSE
# ALONG WITH THIS PROGRAM; IF NOT, WRITE TO EDF R&D CODE_ASTER,
#    1 AVENUE DU GENERAL DE GAULLE, 92141 CLAMART CEDEX, FRANCE.
# ======================================================================
# CORNIERE 120 X 120 X 8 D'UNE LONGUEUR DE 1200
# MODELISATION B : POU_D_T
#=======================================================================

# ************                    ATTENTION                 ************
# LA MATRICE SECOND MEMBRE AYANT DES LIGNES ET COLONNES NULLES EN PLUS
# DE CELLES ASSOCIEES AUX LAGRANGES, LA DIMENSION DU SOUS ESPACE DOIT
# ETRE DIMINUE PAR RAPPORT AU NOMBRE DE DEGRES DE LIBERTE ACTIF
#***********************************************************************


DEBUT(CODE=_F(NOM='SSLL103B', NIV_PUB_WEB='INTERNET'), DEBUG=_F(SDVERI='OUI'))

MA=LIRE_MAILLAGE()

MAT=DEFI_MATERIAU(ELAS=_F( E = 2.1E5,NU = 0.3,))

CHMAT=AFFE_MATERIAU(MAILLAGE=MA, AFFE=_F( TOUT = 'OUI',MATER = MAT,))

MO=AFFE_MODELE( MAILLAGE=MA,   AFFE=_F( TOUT = 'OUI',
       PHENOMENE = 'MECANIQUE',     MODELISATION = 'POU_D_T',))

CARAC=AFFE_CARA_ELEM( MODELE=MO,POUTRE=(
         _F( MAILLE = ( 'S1', 'S2', 'S3', 'S4', ),  SECTION = 'GENERALE',
        CARA = ('A',         'IY',           'IZ',
                'AY',        'AZ',           'EY',
                'EZ',        'JX',           'JG',
                'IYR2',      'IZR2',                          ),
        VALE = (1856.,       4167339.,       1045547.,
                 1.,       1.,             41.012,
               # 0.      , 39595.        , 44398819.         ,
                 0.,       39595.,         0.,
              84948392.,   0.,                                ), ),
         _F( MAILLE = ( 'S5', 'S6', 'S7', 'S8', ),
             SECTION = 'GENERALE', VARI_SECT = 'HOMOTHETIQUE',
        CARA = ('A1',        'IY1',          'IZ1',
                'AY1',       'AZ1',          'EY1',
                'EZ1',       'JX1',          'JG1',
                'IYR21',     'IZR21',
                'A2',        'IY2',          'IZ2',
                'AY2',       'AZ2',          'EY2',
                'EZ2',       'JX2',          'JG2',
                'IYR22',     'IZR22',                         ),
        VALE = (1856.,       4167339.,       1045547.,
                 1.,       1.,             41.012,
               # 0.      , 39595.        , 44398819.         ,
                 0.,       39595.,         0.,
              84948392.,   0.,
              1856.,       4167339.,       1045547.,
                 1.,       1.,             41.012,
               # 0.      , 39595.        , 44398819.         ,
                 0.,       39595.,         0.,
              84948392.,   0.,                                ), ))
      )

BLOQ=AFFE_CHAR_MECA(   MODELE=MO,DDL_IMPO=(
          _F( NOEUD = 'A1',    DX = 0., DY = 0., DZ = 0., DRX = 0.,       ),
          _F( NOEUD = 'A2',          DY = 0., DZ = 0., DRX = 0.,       )) )

RIGEL=CALC_MATR_ELEM(MODELE=MO,    OPTION='RIGI_MECA',
          CHAM_MATER=CHMAT,  CARA_ELEM=CARAC, CHARGE=BLOQ )

NU=NUME_DDL( MATR_RIGI=RIGEL,  METHODE='LDLT',  RENUM='SANS')

RIGAS=ASSE_MATRICE(MATR_ELEM=RIGEL,NUME_DDL=NU)

# 'FLAMBEMENT' CAS 1  (FORCE EN G)
# ------------------------------

CHFORC_1=AFFE_CHAR_MECA(MODELE=MO,
                       FORCE_NODALE=_F( NOEUD = 'A2',   FX = -1.,      ))

STAT1=MECA_STATIQUE(MODELE=MO,
                   CHAM_MATER=CHMAT,
                   CARA_ELEM=CARAC,
                   EXCIT=(_F(CHARGE=BLOQ,),
                          _F(CHARGE=CHFORC_1,),),);

SIGMA_1=CREA_CHAMP( OPERATION='EXTR', TYPE_CHAM='ELGA_SIEF_R',
                    RESULTAT=STAT1, NUME_ORDRE=1,
                    NOM_CHAM='SIEF_ELGA' );

RIGELG_1=CALC_MATR_ELEM( MODELE=MO, OPTION='RIGI_GEOM',
                             CARA_ELEM=CARAC,  SIEF_ELGA=SIGMA_1 )

RIGASG_1=ASSE_MATRICE(MATR_ELEM=RIGELG_1,NUME_DDL=NU)

#
# NE PAS METTRE PLUS DE 39 POUR DIM_SOUS_ESPACE
# CAR LIGNES ET COLONNES NULLES POUR MATRICE SECOND MEMBRE
#

MOD_1=MODE_ITER_SIMULT(   MATR_RIGI=RIGAS,
                              MATR_RIGI_GEOM=RIGASG_1,
                              TYPE_RESU='MODE_FLAMB',
                            CALC_CHAR_CRIT=_F(  NMAX_CHAR_CRIT = 10,

                            DIM_SOUS_ESPACE = 30,   )
                            )

#

TEST_RESU(RESU=(_F(PARA='CHAR_CRIT',
                   NUME_MODE=10,
                   RESULTAT=MOD_1,
                   VALE_CALC=-6.78672582E+05,
                   VALE_REFE=-6.79600E5,
                   REFERENCE='NON_DEFINI',
                   PRECISION=1.E-2,),
                _F(PARA='CHAR_CRIT',
                   NUME_MODE=3,
                   RESULTAT=MOD_1,
                   VALE_CALC=-1.49004790E+06,
                   VALE_REFE=-1.505000E6,
                   REFERENCE='NON_DEFINI',
                   PRECISION=1.E-2,),
                _F(PARA='CHAR_CRIT',
                   NUME_MODE=1,
                   RESULTAT=MOD_1,
                   VALE_CALC=-9.60587544E+06,
                   VALE_REFE=-1.0050000E7,
                   REFERENCE='NON_DEFINI',
                   PRECISION=0.050000000000000003,),
                ),
          )

# 'FLAMBEMENT' CAS 2  (FORCE EN C)
# ------------------------------

CHFORC_2=AFFE_CHAR_MECA(MODELE=MO,FORCE_NODALE=(
                       _F( NOEUD = 'A1',          MZ = +41.012, ),
                       _F( NOEUD = 'A2',   FX = -1., MZ = -41.012, )))

STAT2=MECA_STATIQUE(MODELE=MO,
                   CHAM_MATER=CHMAT,
                   CARA_ELEM=CARAC,
                   EXCIT=(_F(CHARGE=BLOQ,),
                          _F(CHARGE=CHFORC_2,),),);

SIGMA_2=CREA_CHAMP( OPERATION='EXTR', TYPE_CHAM='ELGA_SIEF_R',
                    RESULTAT=STAT2, NUME_ORDRE=1,
                    NOM_CHAM='SIEF_ELGA' );

RIGELG_2=CALC_MATR_ELEM( MODELE=MO, OPTION='RIGI_GEOM',
                             CARA_ELEM=CARAC,  SIEF_ELGA=SIGMA_2 )

RIGASG_2=ASSE_MATRICE(MATR_ELEM=RIGELG_2,NUME_DDL=NU)

#
# NE PAS METTRE PLUS DE 39 POUR DIM_SOUS_ESPACE
# CAR LIGNES ET COLONNES NULLES POUR MATRICE SECOND MEMBRE
#

NB_MODES = INFO_MODE( MATR_RIGI=RIGAS,
                      MATR_RIGI_GEOM=RIGASG_2,
                      TYPE_MODE='MODE_FLAMB',
                      CHAR_CRIT=(-9.97E+6,-1.E+6))
                            
TEST_TABLE(
           VALE_CALC_I=10,
           NOM_PARA='NB_MODE',
           TABLE=NB_MODES,
           )

           
MOD_2=MODE_ITER_SIMULT(   MATR_RIGI=RIGAS,
                              MATR_RIGI_GEOM=RIGASG_2,
                              TYPE_RESU='MODE_FLAMB',
                            CALC_CHAR_CRIT=_F(  NMAX_CHAR_CRIT = 10,
                            DIM_SOUS_ESPACE = 30,   ),
                              VERI_MODE=_F( STOP_ERREUR = 'OUI',  )
                            )

#

TEST_RESU(RESU=(_F(PARA='CHAR_CRIT',
                   NUME_MODE=10,
                   RESULTAT=MOD_2,
                   VALE_CALC=-1.49004790E+06,
                   VALE_REFE=-1.505000E6,
                   REFERENCE='NON_DEFINI',
                   PRECISION=1.E-2,),
                _F(PARA='CHAR_CRIT',
                   NUME_MODE=2,
                   RESULTAT=MOD_2,
                   VALE_CALC=-5.76745490E+06,
                   VALE_REFE=-5.998000E6,
                   REFERENCE='NON_DEFINI',
                   PRECISION=0.040000000000000001,),
                ),
          )

# 'FLAMBEMENT' CAS 3  (FORCE EN A)
# ------------------------------

CHFORC_3=AFFE_CHAR_MECA(MODELE=MO,FORCE_NODALE=(
                       _F( NOEUD = 'A1',          MY = -41.012, ),
                       _F( NOEUD = 'A2',   FX = -1., MY = +41.012, )))

STAT3=MECA_STATIQUE(MODELE=MO,
                   CHAM_MATER=CHMAT,
                   CARA_ELEM=CARAC,
                   EXCIT=(_F(CHARGE=BLOQ,),
                          _F(CHARGE=CHFORC_3,),),);

SIGMA_3=CREA_CHAMP( OPERATION='EXTR', TYPE_CHAM='ELGA_SIEF_R',
                    RESULTAT=STAT3, NUME_ORDRE=1,
                    NOM_CHAM='SIEF_ELGA' );

RIGELG_3=CALC_MATR_ELEM( MODELE=MO, OPTION='RIGI_GEOM',
                             CARA_ELEM=CARAC,  SIEF_ELGA=SIGMA_3 )

RIGASG_3=ASSE_MATRICE(MATR_ELEM=RIGELG_3,NUME_DDL=NU)

#
# NE PAS METTRE PLUS DE 39 POUR DIM_SOUS_ESPACE
# CAR LIGNES ET COLONNES NULLES POUR MATRICE SECOND MEMBRE
#


MOD_3=MODE_ITER_SIMULT(   MATR_RIGI=RIGAS,
                              MATR_RIGI_GEOM=RIGASG_3,
                              TYPE_RESU='MODE_FLAMB',
                            CALC_CHAR_CRIT=_F(  NMAX_CHAR_CRIT = 11,
                            DIM_SOUS_ESPACE = 30,   )
                            )

#

TEST_RESU(RESU=(_F(PARA='CHAR_CRIT',
                   NUME_MODE=10,
                   RESULTAT=MOD_3,
                   VALE_CALC=-6.72524846E+05,
                   VALE_REFE=-5.63800E5,
                   REFERENCE='NON_DEFINI',
                   PRECISION=0.20000000000000001,),
                _F(PARA='CHAR_CRIT',
                   NUME_MODE=1,
                   RESULTAT=MOD_3,
                   VALE_CALC=-1.73417797E+07,
                   VALE_REFE=-1.8525000E7,
                   REFERENCE='NON_DEFINI',
                   PRECISION=0.070000000000000007,),
                ),
          )

# 'FLAMBEMENT' CAS 4  (MOMENT SUIVANT OY)
# -------------------------------------

CHFORC_4=AFFE_CHAR_MECA(MODELE=MO,FORCE_NODALE=(
                       _F( NOEUD = 'A1',   MY = -1.,      ),
                       _F( NOEUD = 'A2',   MY = +1.,      )))

STAT4=MECA_STATIQUE(MODELE=MO,
                   CHAM_MATER=CHMAT,
                   CARA_ELEM=CARAC,
                   EXCIT=(_F(CHARGE=BLOQ,),
                          _F(CHARGE=CHFORC_4,),),);

SIGMA_4=CREA_CHAMP( OPERATION='EXTR', TYPE_CHAM='ELGA_SIEF_R',
                    RESULTAT=STAT4, NUME_ORDRE=1,
                    NOM_CHAM='SIEF_ELGA' )

RIGELG_4=CALC_MATR_ELEM( MODELE=MO, OPTION='RIGI_GEOM',
                             CARA_ELEM=CARAC,  SIEF_ELGA=SIGMA_4 )

RIGASG_4=ASSE_MATRICE(MATR_ELEM=RIGELG_4,NUME_DDL=NU)

#
# NE PAS METTRE PLUS DE 23 POUR DIM_SOUS_ESPACE
# CAR LIGNES ET COLONNES NULLES POUR MATRICE SECOND MEMBRE
#

MOD_4=MODE_ITER_SIMULT(   MATR_RIGI=RIGAS,
                              MATR_RIGI_GEOM=RIGASG_4,
                              TYPE_RESU='MODE_FLAMB',
                            CALC_CHAR_CRIT=_F(  NMAX_CHAR_CRIT = 4,
                            DIM_SOUS_ESPACE = 20,   )
                            )

#

TEST_RESU(RESU=_F(PARA='CHAR_CRIT',
                  NUME_MODE=3,
                  RESULTAT=MOD_4,
                  VALE_CALC= 6.94677211E+07,
                  VALE_REFE=6.9376000E7,
                  REFERENCE='NON_DEFINI',
                  PRECISION=2.E-3,),
          )

# --------------------------------------------------------------------
# TEST DE INFO_MODE POUR TYPE_MODE='GENERAL'

NB_MODE = INFO_MODE( MATR_A=RIGAS,
                      MATR_B=RIGASG_2,
                      TYPE_MODE='GENERAL',
                      CHAR_CRIT=(-9.97E+6,-1.E+6))
                            
TEST_TABLE(TABLE=NB_MODE,
           NOM_PARA='NB_MODE',
           VALE_CALC_I=10,
           )

FIN()
#
