# MODIF  DATE 10/10/2012   AUTEUR COURTOIS M.COURTOIS 
# TITRE UTILISATION DE LA MARCO_CARA_POUTRE
# ssll107j.para = tps_job 60 mem_job 512Mo ncpus 1 liste_test S
#            CONFIGURATION MANAGEMENT OF EDF VERSION
# ======================================================================
# COPYRIGHT (C) 1991 - 2012  EDF R&D                  WWW.CODE-ASTER.ORG
# THIS PROGRAM IS FREE SOFTWARE; YOU CAN REDISTRIBUTE IT AND/OR MODIFY  
# IT UNDER THE TERMS OF THE GNU GENERAL PUBLIC LICENSE AS PUBLISHED BY  
# THE FREE SOFTWARE FOUNDATION; EITHER VERSION 2 OF THE LICENSE, OR     
# (AT YOUR OPTION) ANY LATER VERSION.                                                    
#                                                                       
# THIS PROGRAM IS DISTRIBUTED IN THE HOPE THAT IT WILL BE USEFUL, BUT   
# WITHOUT ANY WARRANTY; WITHOUT EVEN THE IMPLIED WARRANTY OF            
# MERCHANTABILITY OR FITNESS FOR A PARTICULAR PURPOSE. SEE THE GNU      
# GENERAL PUBLIC LICENSE FOR MORE DETAILS.                              
#                                                                       
# YOU SHOULD HAVE RECEIVED A COPY OF THE GNU GENERAL PUBLIC LICENSE     
# ALONG WITH THIS PROGRAM; IF NOT, WRITE TO EDF R&D CODE_ASTER,         
#    1 AVENUE DU GENERAL DE GAULLE, 92141 CLAMART CEDEX, FRANCE.        
# ======================================================================

DEBUT(CODE=_F(NOM='SSLL107J',
              NIV_PUB_WEB='INTERNET'),);

TAB_PL=MACR_CARA_POUTRE(UNITE=20,
                        FORMAT='MED',
                        GROUP_MA_BORD='ext',
                        NOEUD='N1',);

TAB_EP=MACR_CARA_POUTRE(UNITE=21,
                        FORMAT='MED',
                        GROUP_MA_BORD=('int','ext',),
                        NOEUD='N1',);

TAB_FIN=MACR_CARA_POUTRE(UNITE=22,
                         FORMAT='MED',
                         GROUP_MA_BORD=('int','ext',),
                         NOEUD='N1',);

TEST_TABLE(CRITERE='ABSOLU',
           VALE_CALC=1.1666361652374,
           TOLE_MACHINE=1.0000000000000001E-05,
           NOM_PARA='AY',
           TABLE=TAB_PL,
           )

TEST_TABLE(CRITERE='ABSOLU',
           VALE_CALC=1.1666359257114001,
           TOLE_MACHINE=1.0000000000000001E-05,
           NOM_PARA='AZ',
           TABLE=TAB_PL,
           )

TEST_TABLE(CRITERE='ABSOLU',
           VALE_CALC=1.6931360987396999,
           TOLE_MACHINE=1.0000000000000001E-05,
           NOM_PARA='AY',
           TABLE=TAB_EP,
           )

TEST_TABLE(CRITERE='ABSOLU',
           VALE_CALC=1.6931496584961001,
           TOLE_MACHINE=1.0000000000000001E-05,
           NOM_PARA='AZ',
           TABLE=TAB_EP,
           )

TEST_TABLE(CRITERE='ABSOLU',
           VALE_CALC=1.9907221771643,
           TOLE_MACHINE=1.0000000000000001E-05,
           NOM_PARA='AY',
           TABLE=TAB_FIN,
           )

TEST_TABLE(CRITERE='ABSOLU',
           VALE_CALC=1.9907302655931001,
           TOLE_MACHINE=1.0000000000000001E-05,
           NOM_PARA='AZ',
           TABLE=TAB_FIN,
           )

FIN()
