# ======================================================================
# COPYRIGHT (C) 1991 - 2016  EDF R&D                  WWW.CODE-ASTER.ORG
# THIS PROGRAM IS FREE SOFTWARE; YOU CAN REDISTRIBUTE IT AND/OR MODIFY
# IT UNDER THE TERMS OF THE GNU GENERAL PUBLIC LICENSE AS PUBLISHED BY
# THE FREE SOFTWARE FOUNDATION; EITHER VERSION 2 OF THE LICENSE, OR
# (AT YOUR OPTION) ANY LATER VERSION.
#
# THIS PROGRAM IS DISTRIBUTED IN THE HOPE THAT IT WILL BE USEFUL, BUT
# WITHOUT ANY WARRANTY; WITHOUT EVEN THE IMPLIED WARRANTY OF
# MERCHANTABILITY OR FITNESS FOR A PARTICULAR PURPOSE. SEE THE GNU
# GENERAL PUBLIC LICENSE FOR MORE DETAILS.
#
# YOU SHOULD HAVE RECEIVED A COPY OF THE GNU GENERAL PUBLIC LICENSE
# ALONG WITH THIS PROGRAM; IF NOT, WRITE TO EDF R&D CODE_ASTER,
#    1 AVENUE DU GENERAL DE GAULLE, 92141 CLAMART CEDEX, FRANCE.
# ======================================================================
# POUTRE ELANCEE DE SECTION RECTANGULAIRE  (ENCASTREE-LIBRE)
# SOUMISE A UN CHAMP DE DEFORMATIONS INITIALES
# MODELISATION POU_D_E : 10 MAILLES SEG2
# MODELISATION POU_D_T : 10 MAILLES SEG2
# MODELISATION POU_D_TG: 10 MAILLES SEG2
# MODELISATION POU_D_EM: 10 MAILLES SEG2
# POINTS   A=N1     B=N11
# TOUTES LES CARACTERISTIQUES DE LA POUTRE SONT PRISES EGALES A 1
# LA LONGUEUR DE LA POUTRE EST EGALE A 100
#----------------------------------------------------------------------


DEBUT(CODE=_F(NIV_PUB_WEB='INTERNET'),DEBUG=_F(SDVERI='OUI'))

MA=LIRE_MAILLAGE( )

MA=DEFI_GROUP( reuse=MA,   MAILLAGE=MA,
  CREA_GROUP_MA=_F(  NOM = 'TOUT', TOUT = 'OUI'))

PRE_GMSH(UNITE_MAILLAGE=21,);

MASEC=LIRE_MAILLAGE(UNITE=21,);

MO1=AFFE_MODELE(  MAILLAGE=MA,
                  AFFE=_F(  TOUT = 'OUI',    PHENOMENE = 'MECANIQUE',
                         MODELISATION = 'POU_D_E') )

MO2=AFFE_MODELE(  MAILLAGE=MA,
                  AFFE=_F(  TOUT = 'OUI',    PHENOMENE = 'MECANIQUE',
                         MODELISATION = 'POU_D_T') )

MO3=AFFE_MODELE(  MAILLAGE=MA,
                  AFFE=_F(  TOUT = 'OUI',    PHENOMENE = 'MECANIQUE',
                         MODELISATION = 'POU_D_TG') )

MO4=AFFE_MODELE(  MAILLAGE=MA,
                  AFFE=_F(  TOUT = 'OUI',    PHENOMENE = 'MECANIQUE',
                         MODELISATION = 'POU_D_EM') )
MO5=AFFE_MODELE(  MAILLAGE=MA,
                  AFFE=_F(  TOUT = 'OUI',    PHENOMENE = 'MECANIQUE',
                         MODELISATION = 'POU_D_TGM') )

GF=DEFI_GEOM_FIBRE(
           SECTION = _F ( GROUP_FIBRE='SEC1',
                            MAILLAGE_SECT = MASEC , GROUP_MA_SECT = 'GM1000',
                            COOR_AXE_POUTRE = (0., 0.,)),
            )

MAT=DEFI_MATERIAU( ELAS=_F(  E = 1., NU = 0.))

COMPF=DEFI_COMPOR(GEOM_FIBRE=GF,MATER_SECT=MAT,
                  MULTIFIBRE=(_F(GROUP_FIBRE='SEC1',MATER=MAT),))

CHMAT=AFFE_MATERIAU(  MAILLAGE=MA,
                       AFFE=_F(  TOUT = 'OUI',  MATER = MAT),
                       AFFE_COMPOR=_F(GROUP_MA = 'TOUT',COMPOR=COMPF)
                    )

# --------- PB PLAN + NOEUDS 'A ET B' ENCASTRES
#
CL1=AFFE_CHAR_MECA(  MODELE=MO1,
          DDL_IMPO=_F(
                    NOEUD = ( 'N1',),  DX = 0.,  DY = 0.,  DZ = 0.,
                                DRX = 0., DRY = 0., DRZ = 0.),
                    )

CL2=AFFE_CHAR_MECA(  MODELE=MO2,
          DDL_IMPO=_F(
                   NOEUD = ( 'N1',),  DX = 0.,  DY = 0.,  DZ = 0.,
                               DRX = 0., DRY = 0., DRZ = 0.),
                    )

CL3=AFFE_CHAR_MECA(  MODELE=MO3,
          DDL_IMPO=_F(
                   NOEUD = ( 'N1',),  DX = 0.,  DY = 0.,  DZ = 0.,
                               DRX = 0., DRY = 0., DRZ = 0.),
                    )

CL4=AFFE_CHAR_MECA(  MODELE=MO4,
          DDL_IMPO=_F(
                   NOEUD = ( 'N1',),  DX = 0.,  DY = 0.,  DZ = 0.,
                               DRX = 0., DRY = 0., DRZ = 0.),
                    )

CL5=AFFE_CHAR_MECA(  MODELE=MO5,
          DDL_IMPO=_F(
                   NOEUD = ( 'N1',),  DX = 0.,  DY = 0.,  DZ = 0.,
                               DRX = 0., DRY = 0., DRZ = 0.),
                    )

CH1=AFFE_CHAR_MECA(MODELE=MO1,
                   PRE_EPSI=(_F( MAILLE = ('E1','E2'),
                                 EPX = 1.E-3,
                                 KY = 2.E-3,
                                 KZ = 3.E-3,),
                             _F( MAILLE = ('E4','E5'),
                                 EPX = 1.E-3*2,
                                 KY = 2.E-3*2,
                                 KZ = 3.E-3*2,),
                             _F( MAILLE = ('E7','E8'),
                                 EPX = 1.E-3*3,
                                 KY = 2.E-3*3,
                                 KZ = 3.E-3*3,),
                            )
                  )

CH2=AFFE_CHAR_MECA(  MODELE=MO2,
                   PRE_EPSI=(_F( MAILLE = ('E1','E2'),
                                 EPX = 1.E-3,
                                 KY = 2.E-3,
                                 KZ = 3.E-3,),
                             _F( MAILLE = ('E4','E5'),
                                 EPX = 1.E-3*2,
                                 KY = 2.E-3*2,
                                 KZ = 3.E-3*2,),
                             _F( MAILLE = ('E7','E8'),
                                 EPX = 1.E-3*3,
                                 KY = 2.E-3*3,
                                 KZ = 3.E-3*3,),
                            )
                  )

CH3=AFFE_CHAR_MECA(  MODELE=MO3,
                   PRE_EPSI=(_F( MAILLE = ('E1','E2'),
                                 EPX = 1.E-3,
                                 KY = 2.E-3,
                                 KZ = 3.E-3,),
                             _F( MAILLE = ('E4','E5'),
                                 EPX = 1.E-3*2,
                                 KY = 2.E-3*2,
                                 KZ = 3.E-3*2,),
                             _F( MAILLE = ('E7','E8'),
                                 EPX = 1.E-3*3,
                                 KY = 2.E-3*3,
                                 KZ = 3.E-3*3,),
                            )
                  )

CH4=AFFE_CHAR_MECA(  MODELE=MO4,
                   PRE_EPSI=(_F( MAILLE = ('E1','E2'),
                                 EPX = 1.E-3,
                                 KY = 2.E-3,
                                 KZ = 3.E-3,),
                             _F( MAILLE = ('E4','E5'),
                                 EPX = 1.E-3*2,
                                 KY = 2.E-3*2,
                                 KZ = 3.E-3*2,),
                             _F( MAILLE = ('E7','E8'),
                                 EPX = 1.E-3*3,
                                 KY = 2.E-3*3,
                                 KZ = 3.E-3*3,),
                            )
                  )

CH5=AFFE_CHAR_MECA(  MODELE=MO5,
                   PRE_EPSI=(_F( MAILLE = ('E1','E2'),
                                 EPX = 1.E-3,
                                 KY = 2.E-3,
                                 KZ = 3.E-3,),
                             _F( MAILLE = ('E4','E5'),
                                 EPX = 1.E-3*2,
                                 KY = 2.E-3*2,
                                 KZ = 3.E-3*2,),
                             _F( MAILLE = ('E7','E8'),
                                 EPX = 1.E-3*3,
                                 KY = 2.E-3*3,
                                 KZ = 3.E-3*3,),
                            )
                  )



def escalier(x):
    if x< 0.:
        return 0.
    if x<=1.1548E+01:
        return 1.
    elif x<=2.88676E+01:
        return 2.
    elif x<=4.61881E+01:
        return 3
    else:
        return 0.


EPX=FORMULE(NOM_PARA = ('X','INST'),
               VALE     = '1.E-3*escalier(X)*INST',
                       )
KY=FORMULE(NOM_PARA = ('Y','INST'),
               VALE     = '2.E-3*escalier(Y)*INST',
                       )
KZ=FORMULE(NOM_PARA = ('Z','INST'),
               VALE     = '3.E-3*escalier(Z)*INST',
                       )

CHF1=AFFE_CHAR_MECA_F(  MODELE=MO1,
                        PRE_EPSI=_F( MAILLE=('E1','E2','E4','E5','E7','E8'),
                                     EPX = EPX,
                                     KY = KY,
                                     KZ = KZ, 
                                   )
                    )

CHF2=AFFE_CHAR_MECA_F(  MODELE=MO2,
                        PRE_EPSI=_F( MAILLE=('E1','E2','E4','E5','E7','E8'),
                                     EPX = EPX,
                                     KY = KY,
                                     KZ = KZ, 
                                   )
                    )

CHF3=AFFE_CHAR_MECA_F(  MODELE=MO3,
                        PRE_EPSI=_F( MAILLE=('E1','E2','E4','E5','E7','E8'),
                                     EPX = EPX,
                                     KY = KY,
                                     KZ = KZ, 
                                   )
                    )

CHF4=AFFE_CHAR_MECA_F(  MODELE=MO4,
                        PRE_EPSI=_F( MAILLE=('E1','E2','E4','E5','E7','E8'),
                                     EPX = EPX,
                                     KY = KY,
                                     KZ = KZ, 
                                   )
                    )

CHF5=AFFE_CHAR_MECA_F(  MODELE=MO5,
                        PRE_EPSI=_F( MAILLE=('E1','E2','E4','E5','E7','E8'),
                                     EPX = EPX,
                                     KY = KY,
                                     KZ = KZ, 
                                   )
                    )

#  -----------------------------------------------------------------
#  DEFINITION DES SECTIONS
#  -----------------------------------------------------------------


CELEM1=AFFE_CARA_ELEM(   MODELE=MO1,
                         VERIF=( 'MAILLE',  ),
            POUTRE=
               _F(  GROUP_MA = 'TOUT',
                    SECTION = 'GENERALE', VARI_SECT = 'HOMOTHETIQUE',
                    CARA = ( 'A1',   'IZ1',  'A2',   'IZ2',
                             'AY1',  'AZ1',  'AY2',  'AZ2',
                             'IY1',  'JX1',  'IY2',  'JX2', ),
                    VALE = (  1.,     1.,     1.,     1.,
                              1.,     1.,     1.,     1.,
                              1.,     1.,     1.,     1.,   )),
                     )

CELEM2=AFFE_CARA_ELEM(   MODELE=MO2,
                         VERIF=( 'MAILLE', ),
            POUTRE=
               _F(  GROUP_MA = 'TOUT',
                    SECTION = 'GENERALE', VARI_SECT = 'HOMOTHETIQUE',
                    CARA = ( 'A1',   'IZ1',  'A2',   'IZ2',
                             'AY1',  'AZ1',  'AY2',  'AZ2',
                             'IY1',  'JX1',  'IY2',  'JX2', ),
                    VALE = (  1.,     1.,     1.,     1.,
                              1.,     1.,     1.,     1.,
                              1.,     1.,     1.,     1.,   )),
                     )

CELEM3=AFFE_CARA_ELEM(   MODELE=MO3,
                         VERIF=( 'MAILLE',  ),
            POUTRE=
               _F(  GROUP_MA = 'TOUT',
                    SECTION = 'GENERALE', VARI_SECT = 'HOMOTHETIQUE',
                    CARA = ( 'A1',   'IZ1',  'A2',   'IZ2',
                             'AY1',  'AZ1',  'AY2',  'AZ2',
                             'IY1',  'JX1',  'IY2',  'JX2', ),
                    VALE = (  1.,     1.,     1.,     1.,
                              1.,     1.,     1.,     1.,
                              1.,     1.,     1.,     1.,   )),
                     )

CELEM4=AFFE_CARA_ELEM(   MODELE=MO4,
                         VERIF=( 'MAILLE',  ),
            POUTRE=
               _F(  GROUP_MA = 'TOUT',
                    SECTION = 'GENERALE', VARI_SECT = 'HOMOTHETIQUE',
                    CARA = ( 'A1',       'IZ1',    'A2',    'IZ2',
                             'AY1',      'AZ1',    'AY2',   'AZ2',
                             'IY1',      'JX1',    'IY2',   'JX2', ),
                    VALE = (  1.,         0.0833,     1.,     0.0833,
                              1.,         1.,         1.,     1.,
                              0.0833,     1.,     0.0833,     1.,   )),
            GEOM_FIBRE=GF,
            MULTIFIBRE=_F(GROUP_MA='TOUT',
                       GROUP_FIBRE='SEC1'),
                     )

CELEM5=AFFE_CARA_ELEM(   MODELE=MO5,
                         VERIF=( 'MAILLE',  ),
            POUTRE=
               _F(  GROUP_MA = 'TOUT',
                    SECTION = 'GENERALE', VARI_SECT = 'HOMOTHETIQUE',
                    CARA = ( 'A1',       'IZ1',    'A2',    'IZ2',
                             'AY1',      'AZ1',    'AY2',   'AZ2',
                             'IY1',      'JX1',    'IY2',   'JX2', ),
                    VALE = (  1.,         0.0833,     1.,     0.0833,
                              1.,         1.,         1.,     1.,
                              0.0833,     1.,     0.0833,     1.,   )),
            GEOM_FIBRE=GF,
            MULTIFIBRE=_F(GROUP_MA='TOUT',
                       GROUP_FIBRE='SEC1'),
                     )

# ------------------------------------------------------------------

ZLIST=DEFI_LIST_REEL(DEBUT=0.,
                     INTERVALLE=_F( JUSQU_A = 2.0,  NOMBRE = 2, )
                    )

FF=DEFI_FONCTION(NOM_PARA='INST',
                     VALE=(0.0,    0.0,
                           2.,   2.),
                     )


STNL1_R=STAT_NON_LINE(MODELE=MO1,
                    CARA_ELEM=CELEM1,
                    CHAM_MATER=CHMAT,
                    EXCIT=(_F(CHARGE = CL1,),
                           _F(CHARGE = CH1, FONC_MULT=FF 
                            ),
                          ),
                    COMPORTEMENT=_F(RELATION = 'ELAS',),
                    INCREMENT=_F(LIST_INST = ZLIST,),
                   )

STNL1_F=STAT_NON_LINE(MODELE=MO1,
                    CARA_ELEM=CELEM1,
                    CHAM_MATER=CHMAT,
                    EXCIT=(_F(CHARGE = CL1,),
                           _F(CHARGE = CHF1, 
                            ),
                          ),
                    COMPORTEMENT=_F(RELATION = 'ELAS',),
                    INCREMENT=_F(LIST_INST = ZLIST,),
                   )


STNL2_R=STAT_NON_LINE(MODELE=MO2,
                    CARA_ELEM=CELEM2,
                    CHAM_MATER=CHMAT,
                    EXCIT=(_F(CHARGE = CL2,),
                           _F(CHARGE = CH2, FONC_MULT=FF 
                            ),
                          ),
                    COMPORTEMENT=_F(RELATION = 'ELAS',),
                    INCREMENT=_F(LIST_INST = ZLIST,),
                   )

STNL2_F=STAT_NON_LINE(MODELE=MO2,
                    CARA_ELEM=CELEM2,
                    CHAM_MATER=CHMAT,
                    EXCIT=(_F(CHARGE = CL2,),
                           _F(CHARGE = CHF2, 
                            ),
                          ),
                    COMPORTEMENT=_F(RELATION = 'ELAS',),
                    INCREMENT=_F(LIST_INST = ZLIST,),
                   )


STNL3_R=STAT_NON_LINE(MODELE=MO3,
                    CARA_ELEM=CELEM3,
                    CHAM_MATER=CHMAT,
                    EXCIT=(_F(CHARGE = CL3,),
                           _F(CHARGE = CH3, FONC_MULT=FF
                            ),
                          ),
                    COMPORTEMENT=_F(RELATION = 'ELAS',),
                    INCREMENT=_F(LIST_INST = ZLIST,),
                   )

STNL3_F=STAT_NON_LINE(MODELE=MO3,
                    CARA_ELEM=CELEM3,
                    CHAM_MATER=CHMAT,
                    EXCIT=(_F(CHARGE = CL3,),
                           _F(CHARGE = CHF3, 
                            ),
                          ),
                    COMPORTEMENT=_F(RELATION = 'ELAS',),
                    INCREMENT=_F(LIST_INST = ZLIST,),
                   )


STNL4_R=STAT_NON_LINE(MODELE=MO4,
                    CARA_ELEM=CELEM4,
                    CHAM_MATER=CHMAT,
                    EXCIT=(_F(CHARGE = CL4,),
                           _F(CHARGE = CH4, FONC_MULT=FF
                            ),
                          ),
                    COMPORTEMENT=_F(RELATION = 'MULTIFIBRE',),
                    INCREMENT=_F(LIST_INST = ZLIST,),
                   )

STNL4_F=STAT_NON_LINE(MODELE=MO4,
                    CARA_ELEM=CELEM4,
                    CHAM_MATER=CHMAT,
                    EXCIT=(_F(CHARGE = CL4,),
                           _F(CHARGE = CHF4, 
                            ),
                          ),
                    COMPORTEMENT=_F(RELATION = 'MULTIFIBRE',),
                    INCREMENT=_F(LIST_INST = ZLIST,),
                   )


STNL5_R=STAT_NON_LINE(MODELE=MO5,
                    CARA_ELEM=CELEM5,
                    CHAM_MATER=CHMAT,
                    EXCIT=(_F(CHARGE = CL5,),
                           _F(CHARGE = CH5, FONC_MULT=FF 
                            ),
                          ),
                    COMPORTEMENT=_F(RELATION = 'MULTIFIBRE',),
                    INCREMENT=_F(LIST_INST = ZLIST,),
                   )

STNL5_F=STAT_NON_LINE(MODELE=MO5,
                    CARA_ELEM=CELEM5,
                    CHAM_MATER=CHMAT,
                    EXCIT=(_F(CHARGE = CL5,),
                           _F(CHARGE = CHF5, 
                            ),
                          ),
                    COMPORTEMENT=_F(RELATION = 'MULTIFIBRE',),
                    INCREMENT=_F(LIST_INST = ZLIST,),
                   )


TEST_RESU(RESU=(_F(NOEUD='N11',
                   CRITERE='RELATIF',
                   INST = 1.0,
                   NOM_CMP='DX',
                   RESULTAT=STNL1_R,
                   NOM_CHAM='DEPL',
                   VALE_CALC=-7.75966054341,
                   ),
                _F(NOEUD='N11',
                   CRITERE='RELATIF',
                   INST = 2.0,
                   NOM_CMP='DY',
                   RESULTAT=STNL1_R,
                   NOM_CHAM='DEPL',
                   VALE_CALC=35.3923671581,
                   ),
               ),
          )
TEST_RESU(RESU=(_F(NOEUD='N11',
                   CRITERE='RELATIF',
                   INST = 1.0,
                   REFERENCE='AUTRE_ASTER',
                   NOM_CMP='DX',
                   RESULTAT=STNL1_F,
                   NOM_CHAM='DEPL',
                   VALE_CALC=-7.75966054341,
                   VALE_REFE=-7.75966054341,),
                _F(NOEUD='N11',
                   CRITERE='RELATIF',
                   INST = 2.0,
                   REFERENCE='AUTRE_ASTER',
                   NOM_CMP='DY',
                   RESULTAT=STNL1_F,
                   NOM_CHAM='DEPL',
                   VALE_CALC=35.3923671581,
                   VALE_REFE=35.3923671581,),
               ),
          )

TEST_RESU(RESU=(_F(NOEUD='N11',
                   CRITERE='RELATIF',
                   INST = 1.0,
                   NOM_CMP='DX',
                   RESULTAT=STNL2_R,
                   NOM_CHAM='DEPL',
                   VALE_CALC=-7.75966054341,
                   ),
                _F(NOEUD='N11',
                   CRITERE='RELATIF',
                   INST = 2.0,
                   NOM_CMP='DY',
                   RESULTAT=STNL2_R,
                   NOM_CHAM='DEPL',
                   VALE_CALC=35.3923671581,
                   ),
               ),
          )
TEST_RESU(RESU=(_F(NOEUD='N11',
                   CRITERE='RELATIF',
                   INST = 1.0,
                   REFERENCE='AUTRE_ASTER',
                   NOM_CMP='DX',
                   RESULTAT=STNL2_F,
                   NOM_CHAM='DEPL',
                   VALE_CALC=-7.75966054341,
                   VALE_REFE=-7.75966054341,),
                _F(NOEUD='N11',
                   CRITERE='RELATIF',
                   INST = 2.0,
                   REFERENCE='AUTRE_ASTER',
                   NOM_CMP='DY',
                   RESULTAT=STNL2_F,
                   NOM_CHAM='DEPL',
                   VALE_CALC=35.3923671581,
                   VALE_REFE=35.3923671581,),
               ),
          )


TEST_RESU(RESU=(_F(NOEUD='N11',
                   CRITERE='RELATIF',
                   INST = 1.0,
                   NOM_CMP='DX',
                   RESULTAT=STNL3_R,
                   NOM_CHAM='DEPL',
                   VALE_CALC=-7.75966054343,
                   ),
                _F(NOEUD='N11',
                   CRITERE='RELATIF',
                   INST = 2.0,
                   NOM_CMP='DY',
                   RESULTAT=STNL3_R,
                   NOM_CHAM='DEPL',
                   VALE_CALC=35.3923671581,
                   ),
               ),
          )
TEST_RESU(RESU=(_F(NOEUD='N11',
                   CRITERE='RELATIF',
                   INST = 1.0,
                   REFERENCE='AUTRE_ASTER',
                   NOM_CMP='DX',
                   RESULTAT=STNL3_F,
                   NOM_CHAM='DEPL',
                   VALE_CALC=-7.75966054343,
                   VALE_REFE=-7.75966054343,),
                _F(NOEUD='N11',
                   CRITERE='RELATIF',
                   INST = 2.0,
                   REFERENCE='AUTRE_ASTER',
                   NOM_CMP='DY',
                   RESULTAT=STNL3_F,
                   NOM_CHAM='DEPL',
                   VALE_CALC=35.3923671581,
                   VALE_REFE=35.3923671581,),
               ),
          )



TEST_RESU(RESU=(_F(NOEUD='N11',
                   CRITERE='RELATIF',
                   INST = 1.0,
                   NOM_CMP='DX',
                   RESULTAT=STNL4_R,
                   NOM_CHAM='DEPL',
                   VALE_CALC=-7.75966051002,
                   ),
                _F(NOEUD='N11',
                   CRITERE='RELATIF',
                   INST = 2.0,
                   NOM_CMP='DY',
                   RESULTAT=STNL4_R,
                   NOM_CHAM='DEPL',
                   VALE_CALC=35.392366221,
                   ),
               ),
          )
TEST_RESU(RESU=(_F(NOEUD='N11',
                   CRITERE='RELATIF',
                   INST = 1.0,
                   REFERENCE='AUTRE_ASTER',
                   NOM_CMP='DX',
                   RESULTAT=STNL4_F,
                   NOM_CHAM='DEPL',
                   VALE_CALC=-7.75966051002,
                   VALE_REFE=-7.75966051002,),
                _F(NOEUD='N11',
                   CRITERE='RELATIF',
                   INST = 2.0,
                   REFERENCE='AUTRE_ASTER',
                   NOM_CMP='DY',
                   RESULTAT=STNL4_F,
                   NOM_CHAM='DEPL',
                   VALE_CALC=35.392366221,
                   VALE_REFE=35.392366221,),
               ),
          )



TEST_RESU(RESU=(_F(NOEUD='N11',
                   CRITERE='RELATIF',
                   INST = 1.0,
                   NOM_CMP='DX',
                   RESULTAT=STNL5_R,
                   NOM_CHAM='DEPL',
                   VALE_CALC=-7.75966051062,
                   ),
                _F(NOEUD='N11',
                   CRITERE='RELATIF',
                   INST = 2.0,
                   NOM_CMP='DY',
                   RESULTAT=STNL5_R,
                   NOM_CHAM='DEPL',
                   VALE_CALC=35.3923662219,
                   ),
               ),
          )
TEST_RESU(RESU=(_F(NOEUD='N11',
                   CRITERE='RELATIF',
                   INST = 1.0,
                   REFERENCE='AUTRE_ASTER',
                   NOM_CMP='DX',
                   RESULTAT=STNL5_F,
                   NOM_CHAM='DEPL',
                   VALE_CALC=-7.75966051062,
                   VALE_REFE=-7.75966051062,),
                _F(NOEUD='N11',
                   CRITERE='RELATIF',
                   INST = 2.0,
                   REFERENCE='AUTRE_ASTER',
                   NOM_CMP='DY',
                   RESULTAT=STNL5_F,
                   NOM_CHAM='DEPL',
                   VALE_CALC=35.3923662219,
                   VALE_REFE=35.3923662219,),
               ),
          )

# -------------------------------------------------------------------

FIN()
#
