# MODIF  DATE 10/10/2012   AUTEUR COURTOIS M.COURTOIS 
# TITRE VALIDATION DE POST_ELEM MOT CLE FACTEUR CARA_GEOM
# ssll107b.para = tps_job 60 mem_job 256Mo ncpus 1 liste_test S
#            CONFIGURATION MANAGEMENT OF EDF VERSION
# ======================================================================
# COPYRIGHT (C) 1991 - 2012  EDF R&D                  WWW.CODE-ASTER.ORG
# THIS PROGRAM IS FREE SOFTWARE; YOU CAN REDISTRIBUTE IT AND/OR MODIFY
# IT UNDER THE TERMS OF THE GNU GENERAL PUBLIC LICENSE AS PUBLISHED BY
# THE FREE SOFTWARE FOUNDATION; EITHER VERSION 2 OF THE LICENSE, OR
# (AT YOUR OPTION) ANY LATER VERSION.
#
# THIS PROGRAM IS DISTRIBUTED IN THE HOPE THAT IT WILL BE USEFUL, BUT
# WITHOUT ANY WARRANTY; WITHOUT EVEN THE IMPLIED WARRANTY OF
# MERCHANTABILITY OR FITNESS FOR A PARTICULAR PURPOSE. SEE THE GNU
# GENERAL PUBLIC LICENSE FOR MORE DETAILS.
#
# YOU SHOULD HAVE RECEIVED A COPY OF THE GNU GENERAL PUBLIC LICENSE
# ALONG WITH THIS PROGRAM; IF NOT, WRITE TO EDF R&D CODE_ASTER,
#    1 AVENUE DU GENERAL DE GAULLE, 92141 CLAMART CEDEX, FRANCE.
# ======================================================================


DEBUT(CODE=_F(NOM='SSLL107B', NIV_PUB_WEB='INTERNET'), DEBUG=_F(SDVERI='OUI'))

MA=LIRE_MAILLAGE(FORMAT='MED', )

MO=AFFE_MODELE(      MAILLAGE=MA,
                           AFFE=_F(   TOUT = 'OUI',
                                   PHENOMENE = 'MECANIQUE',
                                   MODELISATION = 'D_PLAN')
                       )

# MO_POU_E = AFFE_MODELE( MAILLAGE: MA
#                         AFFE : (  MAILLE        :  MA1
#                                   PHENOMENE     :  'MECANIQUE'
#                                   MODELISATION  :  'POU_D_E'    ))  ;
# CA_POU_E = AFFE_CARA_ELEM( MODELE: MO_POU_E
#                      POUTRE:( MAILLE :  MA1    SECTION:'CERCLE'
#                               CARA : (  'R'      'EP'  )
#                               VALE : ( 2.5D-02  5.D-03 )  )  ) ;


MAT=DEFI_MATERIAU(    ELAS=_F(  E = 1.,   NU = 0.5,  RHO = 1.) )

CHMAT=AFFE_MATERIAU(      MAILLAGE=MA,
                            AFFE=_F(   TOUT = 'OUI',
                                    MATER = MAT)   )

TCARS=POST_ELEM(          MODELE=MO,
                          CHAM_MATER=CHMAT,
                          CARA_GEOM=_F(  TOUT = 'OUI',
                                      SYME_X = 'OUI',
                                      SYME_Y = 'OUI')
                    )

TEST_TABLE(VALE_CALC=1.767145E-4,
           TOLE_MACHINE=1.E-3,
           NOM_PARA='A_M',
           TABLE=TCARS,
           FILTRE=_F(NOM_PARA='LIEU',
                     VALE_K='MA',),
           )

TEST_TABLE(VALE_CALC=0.014382900000000001,
           TOLE_MACHINE=1.E-3,
           NOM_PARA='CDG_Y_M',
           TABLE=TCARS,
           FILTRE=_F(NOM_PARA='LIEU',
                     VALE_K='MA',),
           )

TEST_TABLE(VALE_CALC=0.014382900000000001,
           TOLE_MACHINE=1.E-3,
           NOM_PARA='CDG_Z_M',
           TABLE=TCARS,
           FILTRE=_F(NOM_PARA='LIEU',
                     VALE_K='MA',),
           )

TEST_TABLE(VALE_CALC=8.7265999999999992E-09,
           TOLE_MACHINE=1.E-3,
           NOM_PARA='IY_G_M',
           TABLE=TCARS,
           FILTRE=_F(NOM_PARA='LIEU',
                     VALE_K='MA',),
           )

TEST_TABLE(VALE_CALC=8.7265999999999992E-09,
           TOLE_MACHINE=1.E-3,
           NOM_PARA='IZ_G_M',
           TABLE=TCARS,
           FILTRE=_F(NOM_PARA='LIEU',
                     VALE_K='MA',),
           )

TEST_TABLE(VALE_CALC=-7.7283999999999999E-09,
           TOLE_MACHINE=1.E-3,
           NOM_PARA='IYZ_G_M',
           TABLE=TCARS,
           FILTRE=_F(NOM_PARA='LIEU',
                     VALE_K='MA',),
           )

#
# --- VALEURS DE REFERENCE: OPERATEUR AFFE_CARA_ELEM
#

TEST_TABLE(PRECISION=5.0000000000000001E-3,
           VALE_CALC= 7.06857451E-04,
           VALE_REFE=7.0685799999999999E-4,
           REFERENCE='NON_DEFINI',
           NOM_PARA='A',
           TABLE=TCARS,
           FILTRE=_F(NOM_PARA='LIEU',
                     VALE_K='MA',),
           )

TEST_TABLE(CRITERE='ABSOLU',
           VALE_CALC=0.0,
           TOLE_MACHINE=1.E-3,
           NOM_PARA='CDG_Y',
           TABLE=TCARS,
           FILTRE=_F(NOM_PARA='LIEU',
                     VALE_K='MA',),
           )

TEST_TABLE(CRITERE='ABSOLU',
           VALE_CALC=0.0,
           TOLE_MACHINE=1.E-3,
           NOM_PARA='CDG_Z',
           TABLE=TCARS,
           FILTRE=_F(NOM_PARA='LIEU',
                     VALE_K='MA',),
           )

TEST_TABLE(PRECISION=8.9999999999999993E-3,
           VALE_CALC= 1.81131992E-07,
           VALE_REFE=1.8113200000000001E-07,
           REFERENCE='NON_DEFINI',
           NOM_PARA='IY_G',
           TABLE=TCARS,
           FILTRE=_F(NOM_PARA='LIEU',
                     VALE_K='MA',),
           )

TEST_TABLE(PRECISION=8.9999999999999993E-3,
           VALE_CALC= 1.81131992E-07,
           VALE_REFE=1.8113200000000001E-07,
           REFERENCE='NON_DEFINI',
           NOM_PARA='IZ_G',
           TABLE=TCARS,
           FILTRE=_F(NOM_PARA='LIEU',
                     VALE_K='MA',),
           )

TEST_TABLE(CRITERE='ABSOLU',
           VALE_CALC=0.0,
           TOLE_MACHINE=1.E-3,
           NOM_PARA='IYZ_G',
           TABLE=TCARS,
           FILTRE=_F(NOM_PARA='LIEU',
                     VALE_K='MA',),
           )

TEST_TABLE(PRECISION=8.9999999999999993E-3,
           VALE_CALC= 1.81131992E-07,
           VALE_REFE=1.8113200000000001E-07,
           REFERENCE='NON_DEFINI',
           NOM_PARA='IY',
           TABLE=TCARS,
           FILTRE=_F(NOM_PARA='LIEU',
                     VALE_K='MA',),
           )

TEST_TABLE(PRECISION=8.9999999999999993E-3,
           VALE_CALC= 1.81131992E-07,
           VALE_REFE=1.8113200000000001E-07,
           REFERENCE='NON_DEFINI',
           NOM_PARA='IZ',
           TABLE=TCARS,
           FILTRE=_F(NOM_PARA='LIEU',
                     VALE_K='MA',),
           )

TEST_TABLE(VALE_CALC=-0.025000000000000001,
           TOLE_MACHINE=1.E-3,
           NOM_PARA='Y_MIN',
           TABLE=TCARS,
           FILTRE=_F(NOM_PARA='LIEU',
                     VALE_K='MA',),
           )

TEST_TABLE(VALE_CALC=0.025000000000000001,
           TOLE_MACHINE=1.E-3,
           NOM_PARA='Y_MAX',
           TABLE=TCARS,
           FILTRE=_F(NOM_PARA='LIEU',
                     VALE_K='MA',),
           )

TEST_TABLE(VALE_CALC=-0.025000000000000001,
           TOLE_MACHINE=1.E-3,
           NOM_PARA='Z_MIN',
           TABLE=TCARS,
           FILTRE=_F(NOM_PARA='LIEU',
                     VALE_K='MA',),
           )

TEST_TABLE(VALE_CALC=0.025000000000000001,
           TOLE_MACHINE=1.E-3,
           NOM_PARA='Z_MAX',
           TABLE=TCARS,
           FILTRE=_F(NOM_PARA='LIEU',
                     VALE_K='MA',),
           )

TCARA=POST_ELEM(          MODELE=MO,
                          CHAM_MATER=CHMAT,CARA_GEOM=(
                          _F(  TOUT = 'OUI'),
                                    _F(  MAILLE = 'M7'),
                                    _F(  GROUP_MA = 'SURF1'))
                    )

TEST_TABLE(VALE_CALC=1.767145E-4,
           TOLE_MACHINE=1.E-3,
           NOM_PARA='A',
           TABLE=TCARA,
           FILTRE=_F(NOM_PARA='LIEU',
                     VALE_K='MA',),
           )

TEST_TABLE(VALE_CALC=0.014382900000000001,
           TOLE_MACHINE=1.E-3,
           NOM_PARA='CDG_Y',
           TABLE=TCARA,
           FILTRE=_F(NOM_PARA='LIEU',
                     VALE_K='MA',),
           )

TEST_TABLE(VALE_CALC=0.014382900000000001,
           TOLE_MACHINE=1.E-3,
           NOM_PARA='CDG_Z',
           TABLE=TCARA,
           FILTRE=_F(NOM_PARA='LIEU',
                     VALE_K='MA',),
           )

TEST_TABLE(VALE_CALC=8.7265999999999992E-09,
           TOLE_MACHINE=1.E-3,
           NOM_PARA='IY_G',
           TABLE=TCARA,
           FILTRE=_F(NOM_PARA='LIEU',
                     VALE_K='MA',),
           )

TEST_TABLE(VALE_CALC=8.7265999999999992E-09,
           TOLE_MACHINE=1.E-3,
           NOM_PARA='IZ_G',
           TABLE=TCARA,
           FILTRE=_F(NOM_PARA='LIEU',
                     VALE_K='MA',),
           )

TEST_TABLE(VALE_CALC=-7.7283999999999999E-09,
           TOLE_MACHINE=1.E-3,
           NOM_PARA='IYZ_G',
           TABLE=TCARA,
           FILTRE=_F(NOM_PARA='LIEU',
                     VALE_K='MA',),
           )

TEST_TABLE(VALE_CALC=9.9820500000000007E-10,
           TOLE_MACHINE=1.E-3,
           NOM_PARA='IY',
           TABLE=TCARA,
           FILTRE=_F(NOM_PARA='LIEU',
                     VALE_K='SURF1',),
           )

TEST_TABLE(VALE_CALC=1.6454899999999999E-08,
           TOLE_MACHINE=1.E-3,
           NOM_PARA='IZ',
           TABLE=TCARA,
           FILTRE=_F(NOM_PARA='LIEU',
                     VALE_K='SURF1',),
           )

TEST_TABLE(VALE_CALC=135.0,
           TOLE_MACHINE=1.E-3,
           NOM_PARA='ALPHA',
           TABLE=TCARA,
           FILTRE=_F(NOM_PARA='LIEU',
                     VALE_K='SURF1',),
           )

TEST_TABLE(VALE_CALC=5.3027580000000004E-06,
           TOLE_MACHINE=1.E-3,
           NOM_PARA='A',
           TABLE=TCARA,
           FILTRE=_F(NOM_PARA='LIEU',
                     VALE_K='M7',),
           )

TMASS=POST_ELEM(          MODELE=MO,
                          CHAM_MATER=CHMAT,MASS_INER=(
                          _F(  TOUT = 'OUI'),
                                    _F(  MAILLE = 'M7'),
                                    _F(  GROUP_MA = 'SURF1'))
                    )

TEST_TABLE(VALE_CALC=1.767145E-4,
           TOLE_MACHINE=1.E-3,
           NOM_PARA='MASSE',
           TABLE=TMASS,
           FILTRE=_F(NOM_PARA='LIEU',
                     VALE_K='MA',),
           )

TEST_TABLE(VALE_CALC=0.014382900000000001,
           TOLE_MACHINE=1.E-3,
           NOM_PARA='CDG_X',
           TABLE=TMASS,
           FILTRE=_F(NOM_PARA='LIEU',
                     VALE_K='MA',),
           )

TEST_TABLE(VALE_CALC=0.014382900000000001,
           TOLE_MACHINE=1.E-3,
           NOM_PARA='CDG_Y',
           TABLE=TMASS,
           FILTRE=_F(NOM_PARA='LIEU',
                     VALE_K='MA',),
           )

TEST_TABLE(VALE_CALC=8.7265999999999992E-09,
           TOLE_MACHINE=1.E-3,
           NOM_PARA='IX_G',
           TABLE=TMASS,
           FILTRE=_F(NOM_PARA='LIEU',
                     VALE_K='MA',),
           )

TEST_TABLE(VALE_CALC=8.7265999999999992E-09,
           TOLE_MACHINE=1.E-3,
           NOM_PARA='IY_G',
           TABLE=TMASS,
           FILTRE=_F(NOM_PARA='LIEU',
                     VALE_K='MA',),
           )

TEST_TABLE(VALE_CALC=1.7453199999999998E-08,
           TOLE_MACHINE=1.E-3,
           NOM_PARA='IZ_G',
           TABLE=TMASS,
           FILTRE=_F(NOM_PARA='LIEU',
                     VALE_K='MA',),
           )

TEST_TABLE(VALE_CALC=-7.7283700000000003E-09,
           TOLE_MACHINE=1.E-3,
           NOM_PARA='IXY_G',
           TABLE=TMASS,
           FILTRE=_F(NOM_PARA='LIEU',
                     VALE_K='SURF1',),
           )

TEST_TABLE(VALE_CALC=9.9820500000000007E-10,
           TOLE_MACHINE=1.E-3,
           NOM_PARA='IX_PRIN_G',
           TABLE=TMASS,
           FILTRE=_F(NOM_PARA='LIEU',
                     VALE_K='SURF1',),
           )

TEST_TABLE(VALE_CALC=1.6454899999999999E-08,
           TOLE_MACHINE=1.E-3,
           NOM_PARA='IY_PRIN_G',
           TABLE=TMASS,
           FILTRE=_F(NOM_PARA='LIEU',
                     VALE_K='SURF1',),
           )

TEST_TABLE(VALE_CALC=1.74531E-08,
           TOLE_MACHINE=1.E-3,
           NOM_PARA='IZ_PRIN_G',
           TABLE=TMASS,
           FILTRE=_F(NOM_PARA='LIEU',
                     VALE_K='SURF1',),
           )

TEST_TABLE(VALE_CALC=135.0,
           TOLE_MACHINE=1.E-3,
           NOM_PARA='ALPHA',
           TABLE=TMASS,
           FILTRE=_F(NOM_PARA='LIEU',
                     VALE_K='SURF1',),
           )

FIN( )
