# TITRE TUYAUTERIE (PROBLEME DE HOVGAARD) POU_D_T
# ======================================================================
# COPYRIGHT (C) 1991 - 2012  EDF R&D                  WWW.CODE-ASTER.ORG
# THIS PROGRAM IS FREE SOFTWARE; YOU CAN REDISTRIBUTE IT AND/OR MODIFY
# IT UNDER THE TERMS OF THE GNU GENERAL PUBLIC LICENSE AS PUBLISHED BY
# THE FREE SOFTWARE FOUNDATION; EITHER VERSION 2 OF THE LICENSE, OR
# (AT YOUR OPTION) ANY LATER VERSION.
#
# THIS PROGRAM IS DISTRIBUTED IN THE HOPE THAT IT WILL BE USEFUL, BUT
# WITHOUT ANY WARRANTY; WITHOUT EVEN THE IMPLIED WARRANTY OF
# MERCHANTABILITY OR FITNESS FOR A PARTICULAR PURPOSE. SEE THE GNU
# GENERAL PUBLIC LICENSE FOR MORE DETAILS.
#
# YOU SHOULD HAVE RECEIVED A COPY OF THE GNU GENERAL PUBLIC LICENSE
# ALONG WITH THIS PROGRAM; IF NOT, WRITE TO EDF R&D CODE_ASTER,
#    1 AVENUE DU GENERAL DE GAULLE, 92141 CLAMART CEDEX, FRANCE.
# ======================================================================
# person_in_charge: jean-michel.proix at edf.fr
# ----------------------------------------------------------------------
# PROBLEME DE HOVGAARD
#
# MODELISATION DES ELEMENTS COURBES PAR DES ELEMENTS DROITS.
# ----------------------------------------------------------------------

DEBUT(CODE=_F( NOM = 'SSLL101A',NIV_PUB_WEB='INTERNET'),DEBUG=_F(SDVERI='OUI'))

MAILLAGE=LIRE_MAILLAGE(FORMAT='MED', )

MODELE=AFFE_MODELE(  MAILLAGE=MAILLAGE,
                 AFFE=_F( TOUT = 'OUI',PHENOMENE = 'MECANIQUE',
                                  MODELISATION = 'POU_D_T') )

MAT=DEFI_MATERIAU(ELAS=_F( E = 1.658E+11,NU = 0.3,RHO = 13404.106,
                                 ALPHA = .1288E-4) )

CHAMPMAT=AFFE_MATERIAU(MAILLAGE=MAILLAGE,
                           AFFE=_F( TOUT = 'OUI', MATER = MAT) )

BLOCAGE=AFFE_CHAR_MECA(MODELE=MODELE,
                  DDL_IMPO=_F( GROUP_NO = 'ENCASTRE',
                            DX = 0.,DY = 0.,DZ = 0., DRX = 0.,DRY = 0.,DRZ = 0.)  )

CARA_ELE=AFFE_CARA_ELEM( MODELE=MODELE,
                POUTRE=(_F(  SECTION = 'GENERALE',
                             GROUP_MA = 'POU_D_T',
                             CARA = ('A', 'IZ', 'IY', 'AY', 'AZ', 'JX',
                                     'EZ', 'EY', 'RY', 'RZ', 'RT', ),
                             VALE = ( 3.439E-03, 1.377E-05, 1.377E-05,
                                      2.,        2.,        2.754E-05,
                                      0.,        0.,        9.250E-02,
                                      9.250E-02, 9.250E-02, )),
                         _F(  GROUP_MA = 'POU_C_T',  SECTION = 'GENERALE',
                              VARI_SECT = 'HOMOTHETIQUE',
                              CARA = ('A1', 'IZ1', 'IY1', 'AY1', 'AZ1','JX1',
                                      'EZ1', 'EY1', 'RY1', 'RZ1', 'RT1',
                                      'A2', 'IZ2', 'IY2', 'AY2', 'AZ2','JX2',
                                      'EZ2', 'EY2', 'RY2', 'RZ2', 'RT2',     ),
                              VALE = ( 3.439E-03, 5.887E-06, 5.887E-06,
                                       2.,        2.,        2.754E-05,
                                       0.,        0.,        9.250E-02,
                                       9.250E-02, 9.250E-02,
                                       3.439E-03, 5.887E-06, 5.887E-06,
                                       2.,        2.,        2.754E-05,
                                       0.,        0.,        9.250E-02,
                                       9.250E-02, 9.250E-02, )))
                        )

#
# ----------------------------------------------------------------------
# POIDS PROPRE

GRAVITE=AFFE_CHAR_MECA(MODELE=MODELE,PESANTEUR=_F(GRAVITE=-9.81,
                                                  DIRECTION=(0.,0.,1.,),),)

STAT1=MECA_STATIQUE(MODELE=MODELE,
                   CHAM_MATER=CHAMPMAT,
                   CARA_ELEM=CARA_ELE,
                   EXCIT=(_F(CHARGE=BLOCAGE,),
                          _F(CHARGE=GRAVITE,),),);



TEST_RESU(RESU=(_F(NUME_ORDRE=1,
                   RESULTAT=STAT1,
                   NOM_CHAM='DEPL',
                   NOEUD='N300',
                   NOM_CMP='DX',
                   VALE_CALC=-1.6582431390457E-04,
                   VALE_REFE=-1.6579999999999999E-4,
                   REFERENCE = 'SOURCE_EXTERNE',
                   PRECISION=1.E-3,),
                _F(NUME_ORDRE=1,
                   RESULTAT=STAT1,
                   NOM_CHAM='DEPL',
                   NOEUD='N300',
                   NOM_CMP='DY',
                   VALE_CALC=-2.0395669955557E-05,
                   VALE_REFE=-2.0400000000000001E-05,
                   REFERENCE = 'SOURCE_EXTERNE',
                   PRECISION=1.E-3,),
                _F(NUME_ORDRE=1,
                   RESULTAT=STAT1,
                   NOM_CHAM='DEPL',
                   NOEUD='N300',
                   NOM_CMP='DZ',
                   VALE_CALC=-8.0100391697333E-06,
                   VALE_REFE=-8.0099999999999995E-06,
                   REFERENCE = 'SOURCE_EXTERNE',
                   PRECISION=1.E-3,),
                _F(NUME_ORDRE=1,
                   RESULTAT=STAT1,
                   NOM_CHAM='DEPL',
                   NOEUD='N500',
                   NOM_CMP='DX',
                   VALE_CALC=-2.3970379595088E-04,
                   VALE_REFE=-2.397E-4,
                   REFERENCE = 'SOURCE_EXTERNE',
                   PRECISION=1.E-3,),
                _F(NUME_ORDRE=1,
                   RESULTAT=STAT1,
                   NOM_CHAM='DEPL',
                   NOEUD='N500',
                   NOM_CMP='DY',
                   VALE_CALC=1.7777601320288E-04,
                   VALE_REFE=1.7770000000000001E-4,
                   REFERENCE = 'SOURCE_EXTERNE',
                   PRECISION=1.E-3,),
                _F(NUME_ORDRE=1,
                   RESULTAT=STAT1,
                   NOM_CHAM='DEPL',
                   NOEUD='N500',
                   NOM_CMP='DZ',
                   VALE_CALC=-2.678827463009E-04,
                   VALE_REFE=-2.6810000000000001E-4,
                   REFERENCE = 'SOURCE_EXTERNE',
                   PRECISION=1.E-3,),
                _F(NUME_ORDRE=1,
                   RESULTAT=STAT1,
                   NOM_CHAM='DEPL',
                   NOEUD='N700',
                   NOM_CMP='DX',
                   VALE_CALC=-1.8555073352642E-04,
                   VALE_REFE=-1.8550000000000001E-4,
                   REFERENCE = 'SOURCE_EXTERNE',
                   PRECISION=1.E-3,),
                _F(NUME_ORDRE=1,
                   RESULTAT=STAT1,
                   NOM_CHAM='DEPL',
                   NOEUD='N700',
                   NOM_CMP='DY',
                   VALE_CALC=1.7764792433367E-04,
                   VALE_REFE=1.775E-4,
                   REFERENCE = 'SOURCE_EXTERNE',
                   PRECISION=1.E-3,),
                _F(NUME_ORDRE=1,
                   RESULTAT=STAT1,
                   NOM_CHAM='DEPL',
                   NOEUD='N700',
                   NOM_CMP='DZ',
                   VALE_CALC=-3.9374421504813E-04,
                   VALE_REFE=-3.9399999999999998E-4,
                   REFERENCE = 'SOURCE_EXTERNE',
                   PRECISION=1.E-3,),
                _F(NUME_ORDRE=1,
                   RESULTAT=STAT1,
                   NOM_CHAM='DEPL',
                   NOEUD='N900',
                   NOM_CMP='DX',
                   VALE_CALC=-1.2784299611959E-04,
                   VALE_REFE=-1.2779999999999999E-4,
                   REFERENCE = 'SOURCE_EXTERNE',
                   PRECISION=1.E-3,),
                _F(NUME_ORDRE=1,
                   RESULTAT=STAT1,
                   NOM_CHAM='DEPL',
                   NOEUD='N900',
                   NOM_CMP='DY',
                   VALE_CALC=1.7751983546447E-04,
                   VALE_REFE=1.774E-4,
                   REFERENCE = 'SOURCE_EXTERNE',
                   PRECISION=1.E-3,),
                _F(NUME_ORDRE=1,
                   RESULTAT=STAT1,
                   NOM_CHAM='DEPL',
                   NOEUD='N900',
                   NOM_CMP='DZ',
                   VALE_CALC=-4.9749375000167E-04,
                   VALE_REFE=-4.9770000000000001E-4,
                   REFERENCE = 'SOURCE_EXTERNE',
                   PRECISION=1.E-3,),
                _F(NUME_ORDRE=1,
                   RESULTAT=STAT1,
                   NOM_CHAM='DEPL',
                   NOEUD='N1100',
                   NOM_CMP='DX',
                   VALE_CALC=-1.8300526290709E-08,
                   VALE_REFE=0.0,
                   REFERENCE = 'SOURCE_EXTERNE',
                   PRECISION=1.E-3,
                   CRITERE='ABSOLU',),
                _F(NUME_ORDRE=1,
                   RESULTAT=STAT1,
                   NOM_CHAM='DEPL',
                   NOEUD='N1100',
                   NOM_CMP='DY',
                   VALE_CALC=5.6857554585738E-05,
                   VALE_REFE=5.6820000000000001E-05,
                   REFERENCE = 'SOURCE_EXTERNE',
                   PRECISION=1.E-3,),
                _F(NUME_ORDRE=1,
                   RESULTAT=STAT1,
                   NOM_CHAM='DEPL',
                   NOEUD='N1100',
                   NOM_CMP='DZ',
                   VALE_CALC=-2.2067408981574E-04,
                   VALE_REFE=-2.207E-4,
                   REFERENCE = 'SOURCE_EXTERNE',
                   PRECISION=1.E-3,),
                ),
          )

STAT1=CALC_CHAMP(reuse=STAT1,RESULTAT=STAT1,NUME_ORDRE=1,CONTRAINTE=('EFGE_ELNO'))


TEST_RESU(RESU=(_F(NUME_ORDRE=1,
                   RESULTAT=STAT1,
                   NOM_CHAM='EFGE_ELNO',
                   NOEUD='N100',
                   NOM_CMP='N',
                   VALE_CALC=-2275.8620026779,
                   VALE_REFE=-2276.0,
                   REFERENCE = 'SOURCE_EXTERNE',
                   PRECISION=1.E-3,
                   MAILLE='E101',),
                _F(NUME_ORDRE=1,
                   RESULTAT=STAT1,
                   NOM_CHAM='EFGE_ELNO',
                   NOEUD='N100',
                   NOM_CMP='VY',
                   VALE_CALC=-161.22407416181,
                   VALE_REFE=-161.09999999999999,
                   REFERENCE = 'SOURCE_EXTERNE',
                   PRECISION=1.E-3,
                   MAILLE='E101',),
                _F(NUME_ORDRE=1,
                   RESULTAT=STAT1,
                   NOM_CHAM='EFGE_ELNO',
                   NOEUD='N100',
                   NOM_CMP='VZ',
                   VALE_CALC=-10.052704761806,
                   VALE_REFE=-10.095000000000001,
                   REFERENCE='NON_DEFINI',
                   PRECISION=5.0000000000000001E-3,
                   MAILLE='E101',),
                _F(NUME_ORDRE=1,
                   RESULTAT=STAT1,
                   NOM_CHAM='EFGE_ELNO',
                   NOEUD='N100',
                   NOM_CMP='MT',
                   VALE_CALC=-53.370235438874,
                   VALE_REFE=-53.399999999999999,
                   REFERENCE = 'SOURCE_EXTERNE',
                   PRECISION=1.E-3,
                   MAILLE='E101',),
                _F(NUME_ORDRE=1,
                   RESULTAT=STAT1,
                   NOM_CHAM='EFGE_ELNO',
                   NOEUD='N100',
                   NOM_CMP='MFY',
                   VALE_CALC=-89.700410592993,
                   VALE_REFE=-89.659999999999997,
                   REFERENCE = 'SOURCE_EXTERNE',
                   PRECISION=1.E-3,
                   MAILLE='E101',),
                _F(NUME_ORDRE=1,
                   RESULTAT=STAT1,
                   NOM_CHAM='EFGE_ELNO',
                   NOEUD='N100',
                   NOM_CMP='MFZ',
                   VALE_CALC=-158.48557281693,
                   VALE_REFE=-158.5,
                   REFERENCE = 'SOURCE_EXTERNE',
                   PRECISION=1.E-3,
                   MAILLE='E101',),
                _F(NUME_ORDRE=1,
                   RESULTAT=STAT1,
                   NOM_CHAM='EFGE_ELNO',
                   NOEUD='N1500',
                   NOM_CMP='N',
                   VALE_CALC=10.052704762716,
                   VALE_REFE=10.095000000000001,
                   REFERENCE='NON_DEFINI',
                   PRECISION=5.0000000000000001E-3,
                   MAILLE='E1401',),
                _F(NUME_ORDRE=1,
                   RESULTAT=STAT1,
                   NOM_CHAM='EFGE_ELNO',
                   NOEUD='N1500',
                   NOM_CMP='VY',
                   VALE_CALC=-161.22407416013,
                   VALE_REFE=-161.09999999999999,
                   REFERENCE = 'SOURCE_EXTERNE',
                   PRECISION=1.E-3,
                   MAILLE='E1401',),
                _F(NUME_ORDRE=1,
                   RESULTAT=STAT1,
                   NOM_CHAM='EFGE_ELNO',
                   NOEUD='N1500',
                   NOM_CMP='VZ',
                   VALE_CALC=1164.7629192074,
                   VALE_REFE=1165.0,
                   REFERENCE = 'SOURCE_EXTERNE',
                   PRECISION=1.E-3,
                   MAILLE='E1401',),
                _F(NUME_ORDRE=1,
                   RESULTAT=STAT1,
                   NOM_CHAM='EFGE_ELNO',
                   NOEUD='N1500',
                   NOM_CMP='MT',
                   VALE_CALC=15.638228285226,
                   VALE_REFE=15.6,
                   REFERENCE='NON_DEFINI',
                   PRECISION=5.0000000000000001E-3,
                   MAILLE='E1401',),
                _F(NUME_ORDRE=1,
                   RESULTAT=STAT1,
                   NOM_CHAM='EFGE_ELNO',
                   NOEUD='N1500',
                   NOM_CMP='MFY',
                   VALE_CALC=1260.2945116048,
                   VALE_REFE=1260.5,
                   REFERENCE='NON_DEFINI',
                   PRECISION=5.0000000000000001E-3,
                   MAILLE='E1401',),
                _F(NUME_ORDRE=1,
                   RESULTAT=STAT1,
                   NOM_CHAM='EFGE_ELNO',
                   NOEUD='N1500',
                   NOM_CMP='MFZ',
                   VALE_CALC=290.27388801079,
                   VALE_REFE=290.10000000000002,
                   REFERENCE = 'SOURCE_EXTERNE',
                   PRECISION=1.E-3,
                   MAILLE='E1401',),
                ),
          )

#----------------------------------------------------------------------
# CHARGES PONCTUELLES SELON Z

FORCE_Z=AFFE_CHAR_MECA(MODELE=MODELE,FORCE_NODALE=(
                  _F( NOEUD = 'N200',            FZ = -624.897),
                  _F( NOEUD = 'N300',            FZ = -788.724),
                  _F( NOEUD = ('N400','N1000',),     FZ = -327.654),
                  _F( NOEUD = ('N500','N900',),      FZ = -214.839),
                  _F( NOEUD = ('N600','N700','N800',), FZ = -102.514),
                  _F( NOEUD = 'N1100',           FZ = -222.687),
                  _F( NOEUD = ('N1200','N1300',),    FZ = -117.720),
                  _F( NOEUD = 'N1400',           FZ = -176.580))
                            )

STAT2=MECA_STATIQUE(MODELE=MODELE,
                   CHAM_MATER=CHAMPMAT,
                   CARA_ELEM=CARA_ELE,
                   EXCIT=(_F(CHARGE=BLOCAGE,),
                          _F(CHARGE=FORCE_Z,),
                          ),
                );

TEST_RESU(RESU=(_F(NUME_ORDRE=1,
                   RESULTAT=STAT2,
                   NOM_CHAM='DEPL',
                   NOEUD='N300',
                   NOM_CMP='DX',
                   VALE_CALC=-1.6517263862977E-04,
                   VALE_REFE=-1.651E-4,
                   REFERENCE = 'SOURCE_EXTERNE',
                   PRECISION=1.E-3,),
                _F(NUME_ORDRE=1,
                   RESULTAT=STAT2,
                   NOM_CHAM='DEPL',
                   NOEUD='N300',
                   NOM_CMP='DY',
                   VALE_CALC=-2.0797619675817E-05,
                   VALE_REFE=-2.0800000000000001E-05,
                   REFERENCE = 'SOURCE_EXTERNE',
                   PRECISION=1.E-3,),
                _F(NUME_ORDRE=1,
                   RESULTAT=STAT2,
                   NOM_CHAM='DEPL',
                   NOEUD='N300',
                   NOM_CMP='DZ',
                   VALE_CALC=-9.5163524578105E-06,
                   VALE_REFE=-9.516E-06,
                   REFERENCE = 'SOURCE_EXTERNE',
                   PRECISION=1.E-3,),
                _F(NUME_ORDRE=1,
                   RESULTAT=STAT2,
                   NOM_CHAM='DEPL',
                   NOEUD='N500',
                   NOM_CMP='DX',
                   VALE_CALC=-2.3864435329476E-04,
                   VALE_REFE=-2.386E-4,
                   REFERENCE = 'SOURCE_EXTERNE',
                   PRECISION=1.E-3,),
                _F(NUME_ORDRE=1,
                   RESULTAT=STAT2,
                   NOM_CHAM='DEPL',
                   NOEUD='N500',
                   NOM_CMP='DY',
                   VALE_CALC=1.7728832638001E-04,
                   VALE_REFE=1.773E-4,
                   REFERENCE = 'SOURCE_EXTERNE',
                   PRECISION=1.E-3,),
                _F(NUME_ORDRE=1,
                   RESULTAT=STAT2,
                   NOM_CHAM='DEPL',
                   NOEUD='N500',
                   NOM_CMP='DZ',
                   VALE_CALC=-2.6965400132944E-04,
                   VALE_REFE=-2.697E-4,
                   REFERENCE = 'SOURCE_EXTERNE',
                   PRECISION=1.E-3,),
                _F(NUME_ORDRE=1,
                   RESULTAT=STAT2,
                   NOM_CHAM='DEPL',
                   NOEUD='N700',
                   NOM_CMP='DX',
                   VALE_CALC=-1.8477981061133E-04,
                   VALE_REFE=-1.8479999999999999E-4,
                   REFERENCE = 'SOURCE_EXTERNE',
                   PRECISION=1.E-3,),
                _F(NUME_ORDRE=1,
                   RESULTAT=STAT2,
                   NOM_CHAM='DEPL',
                   NOEUD='N700',
                   NOM_CMP='DY',
                   VALE_CALC=1.7716030795535E-04,
                   VALE_REFE=1.771E-4,
                   REFERENCE = 'SOURCE_EXTERNE',
                   PRECISION=1.E-3,),
                _F(NUME_ORDRE=1,
                   RESULTAT=STAT2,
                   NOM_CHAM='DEPL',
                   NOEUD='N700',
                   NOM_CMP='DZ',
                   VALE_CALC=-3.9479983556391E-04,
                   VALE_REFE=-3.948E-4,
                   REFERENCE = 'SOURCE_EXTERNE',
                   PRECISION=1.E-3,),
                _F(NUME_ORDRE=1,
                   RESULTAT=STAT2,
                   NOM_CHAM='DEPL',
                   NOEUD='N900',
                   NOM_CMP='DX',
                   VALE_CALC=-1.2736113848917E-04,
                   VALE_REFE=-1.2740000000000001E-4,
                   REFERENCE = 'SOURCE_EXTERNE',
                   PRECISION=1.E-3,),
                _F(NUME_ORDRE=1,
                   RESULTAT=STAT2,
                   NOM_CHAM='DEPL',
                   NOEUD='N900',
                   NOM_CMP='DY',
                   VALE_CALC=1.7703228953069E-04,
                   VALE_REFE=1.7699999999999999E-4,
                   REFERENCE = 'SOURCE_EXTERNE',
                   PRECISION=1.E-3,),
                _F(NUME_ORDRE=1,
                   RESULTAT=STAT2,
                   NOM_CHAM='DEPL',
                   NOEUD='N900',
                   NOM_CMP='DZ',
                   VALE_CALC=-4.9634730319326E-04,
                   VALE_REFE=-4.9640000000000003E-4,
                   REFERENCE = 'SOURCE_EXTERNE',
                   PRECISION=1.E-3,),
                _F(NUME_ORDRE=1,
                   RESULTAT=STAT2,
                   NOM_CHAM='DEPL',
                   NOEUD='N1100',
                   NOM_CMP='DX',
                   VALE_CALC=-1.7848295789707E-08,
                   VALE_REFE=0.0,
                   REFERENCE = 'SOURCE_EXTERNE',
                   PRECISION=1.E-3,
                   CRITERE='ABSOLU',),
                _F(NUME_ORDRE=1,
                   RESULTAT=STAT2,
                   NOM_CHAM='DEPL',
                   NOEUD='N1100',
                   NOM_CMP='DY',
                   VALE_CALC=5.6743779883696E-05,
                   VALE_REFE=5.6740000000000002E-05,
                   REFERENCE = 'SOURCE_EXTERNE',
                   PRECISION=1.E-3,),
                _F(NUME_ORDRE=1,
                   RESULTAT=STAT2,
                   NOM_CHAM='DEPL',
                   NOEUD='N1100',
                   NOM_CMP='DZ',
                   VALE_CALC=-2.1858588095624E-04,
                   VALE_REFE=-2.186E-4,
                   REFERENCE = 'SOURCE_EXTERNE',
                   PRECISION=1.E-3,),
                ),
          )

STAT2=CALC_CHAMP(reuse=STAT2,RESULTAT=STAT2,NUME_ORDRE=1,CONTRAINTE=('EFGE_ELNO'))



TEST_RESU(RESU=(_F(NUME_ORDRE=1,
                   RESULTAT=STAT2,
                   NOM_CHAM='EFGE_ELNO',
                   NOEUD='N100',
                   NOM_CMP='N',
                   VALE_CALC=-2272.7421581574,
                   VALE_REFE=-2273.0,
                   REFERENCE = 'SOURCE_EXTERNE',
                   PRECISION=1.E-3,
                   MAILLE='E101',),
                _F(NUME_ORDRE=1,
                   RESULTAT=STAT2,
                   NOM_CHAM='EFGE_ELNO',
                   NOEUD='N100',
                   NOM_CMP='VY',
                   VALE_CALC=-161.13540637775,
                   VALE_REFE=-161.09999999999999,
                   REFERENCE = 'SOURCE_EXTERNE',
                   PRECISION=1.E-3,
                   MAILLE='E101',),
                _F(NUME_ORDRE=1,
                   RESULTAT=STAT2,
                   NOM_CHAM='EFGE_ELNO',
                   NOEUD='N100',
                   NOM_CMP='VZ',
                   VALE_CALC=-9.8042889709729,
                   VALE_REFE=-9.8100000000000005,
                   REFERENCE = 'SOURCE_EXTERNE',
                   PRECISION=1.E-3,
                   MAILLE='E101',),
                _F(NUME_ORDRE=1,
                   RESULTAT=STAT2,
                   NOM_CHAM='EFGE_ELNO',
                   NOEUD='N100',
                   NOM_CMP='MT',
                   VALE_CALC=-53.022594245451,
                   VALE_REFE=-53.020000000000003,
                   REFERENCE = 'SOURCE_EXTERNE',
                   PRECISION=1.E-3,
                   MAILLE='E101',),
                _F(NUME_ORDRE=1,
                   RESULTAT=STAT2,
                   NOM_CHAM='EFGE_ELNO',
                   NOEUD='N100',
                   NOM_CMP='MFY',
                   VALE_CALC=-89.537506683863,
                   VALE_REFE=-89.530000000000001,
                   REFERENCE = 'SOURCE_EXTERNE',
                   PRECISION=1.E-3,
                   MAILLE='E101',),
                _F(NUME_ORDRE=1,
                   RESULTAT=STAT2,
                   NOM_CHAM='EFGE_ELNO',
                   NOEUD='N100',
                   NOM_CMP='MFZ',
                   VALE_CALC=-158.64464144629,
                   VALE_REFE=-158.63,
                   REFERENCE = 'SOURCE_EXTERNE',
                   PRECISION=1.E-3,
                   MAILLE='E101',),
                _F(NUME_ORDRE=1,
                   RESULTAT=STAT2,
                   NOM_CHAM='EFGE_ELNO',
                   NOEUD='N1500',
                   NOM_CMP='N',
                   VALE_CALC=9.8042889718777,
                   VALE_REFE=9.8100000000000005,
                   REFERENCE = 'SOURCE_EXTERNE',
                   PRECISION=1.E-3,
                   MAILLE='E1401',),
                _F(NUME_ORDRE=1,
                   RESULTAT=STAT2,
                   NOM_CHAM='EFGE_ELNO',
                   NOEUD='N1500',
                   NOM_CMP='VY',
                   VALE_CALC=-161.13540637606,
                   VALE_REFE=-161.09999999999999,
                   REFERENCE = 'SOURCE_EXTERNE',
                   PRECISION=1.E-3,
                   MAILLE='E1401',),
                _F(NUME_ORDRE=1,
                   RESULTAT=STAT2,
                   NOM_CHAM='EFGE_ELNO',
                   NOEUD='N1500',
                   NOM_CMP='VZ',
                   VALE_CALC=1168.1138418446,
                   VALE_REFE=1168.0,
                   REFERENCE = 'SOURCE_EXTERNE',
                   PRECISION=1.E-3,
                   MAILLE='E1401',),
                _F(NUME_ORDRE=1,
                   RESULTAT=STAT2,
                   NOM_CHAM='EFGE_ELNO',
                   NOEUD='N1500',
                   NOM_CMP='MT',
                   VALE_CALC=11.91217684402,
                   VALE_REFE=11.9,
                   REFERENCE='NON_DEFINI',
                   PRECISION=5.0000000000000001E-3,
                   MAILLE='E1401',),
                _F(NUME_ORDRE=1,
                   RESULTAT=STAT2,
                   NOM_CHAM='EFGE_ELNO',
                   NOEUD='N1500',
                   NOM_CMP='MFY',
                   VALE_CALC=1261.0088130282,
                   VALE_REFE=1261.0,
                   REFERENCE = 'SOURCE_EXTERNE',
                   PRECISION=1.E-3,
                   MAILLE='E1401',),
                _F(NUME_ORDRE=1,
                   RESULTAT=STAT2,
                   NOM_CHAM='EFGE_ELNO',
                   NOEUD='N1500',
                   NOM_CMP='MFZ',
                   VALE_CALC=289.76459692265,
                   VALE_REFE=289.69999999999999,
                   REFERENCE = 'SOURCE_EXTERNE',
                   PRECISION=1.E-3,
                   MAILLE='E1401',),
                ),
          )

#----------------------------------------------------------------------
# DILATATION THERMIQUE UNIFORME A 472.220


CHTEMP=CREA_CHAMP( OPERATION='AFFE', TYPE_CHAM='NOEU_TEMP_R',
                   MAILLAGE=MAILLAGE,
                   AFFE=_F( TOUT = 'OUI',NOM_CMP = 'TEMP',VALE = 472.22))

TEMPER=CREA_RESU(
               OPERATION='AFFE', TYPE_RESU='EVOL_THER',
                NOM_CHAM='TEMP',
                 AFFE=_F(
               INST = 0.0,
               CHAM_GD = CHTEMP)
             )


MATH=AFFE_MATERIAU(MAILLAGE=MAILLAGE,
                           AFFE=_F( TOUT = 'OUI', MATER = MAT) ,
               AFFE_VARC=_F(TOUT='OUI',EVOL=TEMPER,
               NOM_VARC='TEMP',NOM_CHAM='TEMP',VALE_REF=0.0),)


STAT3=MECA_STATIQUE(MODELE=MODELE,
                   CHAM_MATER=MATH,
                   CARA_ELEM=CARA_ELE,
                   EXCIT=(_F(CHARGE=BLOCAGE,),
                          ),
                );


TEST_RESU(RESU=(_F(NUME_ORDRE=1,
                   RESULTAT=STAT3,
                   NOM_CHAM='DEPL',
                   NOEUD='N300',
                   NOM_CMP='DX',
                   VALE_CALC=-6.1413514438761E-03,
                   VALE_REFE=-6.1418000000000002E-3,
                   REFERENCE = 'SOURCE_EXTERNE',
                   PRECISION=1.E-3,),
                _F(NUME_ORDRE=1,
                   RESULTAT=STAT3,
                   NOM_CHAM='DEPL',
                   NOEUD='N300',
                   NOM_CMP='DY',
                   VALE_CALC=-0.013091602868302,
                   VALE_REFE=-0.013089999999999999,
                   REFERENCE = 'SOURCE_EXTERNE',
                   PRECISION=1.E-3,),
                _F(NUME_ORDRE=1,
                   RESULTAT=STAT3,
                   NOM_CHAM='DEPL',
                   NOEUD='N300',
                   NOM_CMP='DZ',
                   VALE_CALC=0.016799434415452,
                   VALE_REFE=0.016799000000000001,
                   REFERENCE = 'SOURCE_EXTERNE',
                   PRECISION=1.E-3,),
                _F(NUME_ORDRE=1,
                   RESULTAT=STAT3,
                   NOM_CHAM='DEPL',
                   NOEUD='N500',
                   NOM_CMP='DX',
                   VALE_CALC=-0.010302464377139,
                   VALE_REFE=-0.010302,
                   REFERENCE = 'SOURCE_EXTERNE',
                   PRECISION=1.E-3,),
                _F(NUME_ORDRE=1,
                   RESULTAT=STAT3,
                   NOM_CHAM='DEPL',
                   NOEUD='N500',
                   NOM_CMP='DY',
                   VALE_CALC=-8.1317249493182E-03,
                   VALE_REFE=-8.1320000000000003E-3,
                   REFERENCE = 'SOURCE_EXTERNE',
                   PRECISION=1.E-3,),
                _F(NUME_ORDRE=1,
                   RESULTAT=STAT3,
                   NOM_CHAM='DEPL',
                   NOEUD='N500',
                   NOM_CMP='DZ',
                   VALE_CALC=0.019723651140938,
                   VALE_REFE=0.019723000000000001,
                   REFERENCE = 'SOURCE_EXTERNE',
                   PRECISION=1.E-3,),
                _F(NUME_ORDRE=1,
                   RESULTAT=STAT3,
                   NOM_CHAM='DEPL',
                   NOEUD='N700',
                   NOM_CMP='DX',
                   VALE_CALC=-0.011370414058727,
                   VALE_REFE=-0.01137,
                   REFERENCE = 'SOURCE_EXTERNE',
                   PRECISION=1.E-3,),
                _F(NUME_ORDRE=1,
                   RESULTAT=STAT3,
                   NOM_CHAM='DEPL',
                   NOEUD='N700',
                   NOM_CMP='DY',
                   VALE_CALC=-5.3825407905383E-03,
                   VALE_REFE=-5.3829999999999998E-3,
                   REFERENCE = 'SOURCE_EXTERNE',
                   PRECISION=1.E-3,),
                _F(NUME_ORDRE=1,
                   RESULTAT=STAT3,
                   NOM_CHAM='DEPL',
                   NOEUD='N700',
                   NOM_CMP='DZ',
                   VALE_CALC=0.016135230742221,
                   VALE_REFE=0.016135,
                   REFERENCE = 'SOURCE_EXTERNE',
                   PRECISION=1.E-3,),
                _F(NUME_ORDRE=1,
                   RESULTAT=STAT3,
                   NOM_CHAM='DEPL',
                   NOEUD='N900',
                   NOM_CMP='DX',
                   VALE_CALC=-0.012238553889289,
                   VALE_REFE=-0.012238000000000001,
                   REFERENCE = 'SOURCE_EXTERNE',
                   PRECISION=1.E-3,),
                _F(NUME_ORDRE=1,
                   RESULTAT=STAT3,
                   NOM_CHAM='DEPL',
                   NOEUD='N900',
                   NOM_CMP='DY',
                   VALE_CALC=-2.6333566317584E-03,
                   VALE_REFE=-2.6329999999999999E-3,
                   REFERENCE = 'SOURCE_EXTERNE',
                   PRECISION=1.E-3,),
                _F(NUME_ORDRE=1,
                   RESULTAT=STAT3,
                   NOM_CHAM='DEPL',
                   NOEUD='N900',
                   NOM_CMP='DZ',
                   VALE_CALC=0.012262259832135,
                   VALE_REFE=0.012262,
                   REFERENCE = 'SOURCE_EXTERNE',
                   PRECISION=1.E-3,),
                _F(NUME_ORDRE=1,
                   RESULTAT=STAT3,
                   NOM_CHAM='DEPL',
                   NOEUD='N1100',
                   NOM_CMP='DX',
                   VALE_CALC=-6.3082352533153E-03,
                   VALE_REFE=-6.3080000000000002E-3,
                   REFERENCE = 'SOURCE_EXTERNE',
                   PRECISION=1.E-3,),
                _F(NUME_ORDRE=1,
                   RESULTAT=STAT3,
                   NOM_CHAM='DEPL',
                   NOEUD='N1100',
                   NOM_CMP='DY',
                   VALE_CALC=1.5417995786497E-03,
                   VALE_REFE=1.542E-3,
                   REFERENCE = 'SOURCE_EXTERNE',
                   PRECISION=1.E-3,),
                _F(NUME_ORDRE=1,
                   RESULTAT=STAT3,
                   NOM_CHAM='DEPL',
                   NOEUD='N1100',
                   NOM_CMP='DZ',
                   VALE_CALC=1.9316063159195E-03,
                   VALE_REFE=1.931E-3,
                   REFERENCE = 'SOURCE_EXTERNE',
                   PRECISION=1.E-3,),
                ),
          )

STAT3=CALC_CHAMP(reuse=STAT3,RESULTAT=STAT3,NUME_ORDRE=1,CONTRAINTE=('EFGE_ELNO'))


TEST_RESU(RESU=(_F(NUME_ORDRE=1,
                   RESULTAT=STAT3,
                   NOM_CHAM='EFGE_ELNO',
                   NOEUD='N100',
                   NOM_CMP='N',
                   VALE_CALC=-7431.6745495484,
                   VALE_REFE=-7431.0,
                   REFERENCE = 'SOURCE_EXTERNE',
                   PRECISION=1.E-3,
                   MAILLE='E101',),
                _F(NUME_ORDRE=1,
                   RESULTAT=STAT3,
                   NOM_CHAM='EFGE_ELNO',
                   NOEUD='N100',
                   NOM_CMP='VY',
                   VALE_CALC=-7614.4931038918,
                   VALE_REFE=-7613.0,
                   REFERENCE = 'SOURCE_EXTERNE',
                   PRECISION=1.E-3,
                   MAILLE='E101',),
                _F(NUME_ORDRE=1,
                   RESULTAT=STAT3,
                   NOM_CHAM='EFGE_ELNO',
                   NOEUD='N100',
                   NOM_CMP='VZ',
                   VALE_CALC=2791.4423887061,
                   VALE_REFE=2791.0,
                   REFERENCE = 'SOURCE_EXTERNE',
                   PRECISION=1.E-3,
                   MAILLE='E101',),
                _F(NUME_ORDRE=1,
                   RESULTAT=STAT3,
                   NOM_CHAM='EFGE_ELNO',
                   NOEUD='N100',
                   NOM_CMP='MT',
                   VALE_CALC=1615.2358655197,
                   VALE_REFE=1615.0,
                   REFERENCE = 'SOURCE_EXTERNE',
                   PRECISION=1.E-3,
                   MAILLE='E101',),
                _F(NUME_ORDRE=1,
                   RESULTAT=STAT3,
                   NOM_CHAM='EFGE_ELNO',
                   NOEUD='N100',
                   NOM_CMP='MFY',
                   VALE_CALC=-6193.5687224355,
                   VALE_REFE=-6193.0,
                   REFERENCE = 'SOURCE_EXTERNE',
                   PRECISION=1.E-3,
                   MAILLE='E101',),
                _F(NUME_ORDRE=1,
                   RESULTAT=STAT3,
                   NOM_CHAM='EFGE_ELNO',
                   NOEUD='N100',
                   NOM_CMP='MFZ',
                   VALE_CALC=-14713.141932294,
                   VALE_REFE=-1.4712E4,
                   REFERENCE = 'SOURCE_EXTERNE',
                   PRECISION=1.E-3,
                   MAILLE='E101',),
                _F(NUME_ORDRE=1,
                   RESULTAT=STAT3,
                   NOM_CHAM='EFGE_ELNO',
                   NOEUD='N1500',
                   NOM_CMP='N',
                   VALE_CALC=-2791.4423886812,
                   VALE_REFE=-2791.0,
                   REFERENCE = 'SOURCE_EXTERNE',
                   PRECISION=1.E-3,
                   MAILLE='E1401',),
                _F(NUME_ORDRE=1,
                   RESULTAT=STAT3,
                   NOM_CHAM='EFGE_ELNO',
                   NOEUD='N1500',
                   NOM_CMP='VY',
                   VALE_CALC=-7614.4931041907,
                   VALE_REFE=-7613.0,
                   REFERENCE = 'SOURCE_EXTERNE',
                   PRECISION=1.E-3,
                   MAILLE='E1401',),
                _F(NUME_ORDRE=1,
                   RESULTAT=STAT3,
                   NOM_CHAM='EFGE_ELNO',
                   NOEUD='N1500',
                   NOM_CMP='VZ',
                   VALE_CALC=-7431.6745495548,
                   VALE_REFE=-7433.0,
                   REFERENCE = 'SOURCE_EXTERNE',
                   PRECISION=1.E-3,
                   MAILLE='E1401',),
                _F(NUME_ORDRE=1,
                   RESULTAT=STAT3,
                   NOM_CHAM='EFGE_ELNO',
                   NOEUD='N1500',
                   NOM_CMP='MT',
                   VALE_CALC=7052.767390014,
                   VALE_REFE=7052.0,
                   REFERENCE = 'SOURCE_EXTERNE',
                   PRECISION=1.E-3,
                   MAILLE='E1401',),
                _F(NUME_ORDRE=1,
                   RESULTAT=STAT3,
                   NOM_CHAM='EFGE_ELNO',
                   NOEUD='N1500',
                   NOM_CMP='MFY',
                   VALE_CALC=-10459.228425249,
                   VALE_REFE=-1.0460E4,
                   REFERENCE = 'SOURCE_EXTERNE',
                   PRECISION=1.E-3,
                   MAILLE='E1401',),
                _F(NUME_ORDRE=1,
                   RESULTAT=STAT3,
                   NOM_CHAM='EFGE_ELNO',
                   NOEUD='N1500',
                   NOM_CMP='MFZ',
                   VALE_CALC=8863.1757808138,
                   VALE_REFE=8862.0,
                   REFERENCE = 'SOURCE_EXTERNE',
                   PRECISION=1.E-3,
                   MAILLE='E1401',),
                ),
          )

#
FIN()
#
