# TITRE TREILLIS DE BARRES SOUS TROIS SOLLICITATIONS
# ======================================================================
# COPYRIGHT (C) 1991 - 2013  EDF R&D                  WWW.CODE-ASTER.ORG
# THIS PROGRAM IS FREE SOFTWARE; YOU CAN REDISTRIBUTE IT AND/OR MODIFY
# IT UNDER THE TERMS OF THE GNU GENERAL PUBLIC LICENSE AS PUBLISHED BY
# THE FREE SOFTWARE FOUNDATION; EITHER VERSION 2 OF THE LICENSE, OR
# (AT YOUR OPTION) ANY LATER VERSION.
#
# THIS PROGRAM IS DISTRIBUTED IN THE HOPE THAT IT WILL BE USEFUL, BUT
# WITHOUT ANY WARRANTY; WITHOUT EVEN THE IMPLIED WARRANTY OF
# MERCHANTABILITY OR FITNESS FOR A PARTICULAR PURPOSE. SEE THE GNU
# GENERAL PUBLIC LICENSE FOR MORE DETAILS.
#
# YOU SHOULD HAVE RECEIVED A COPY OF THE GNU GENERAL PUBLIC LICENSE
# ALONG WITH THIS PROGRAM; IF NOT, WRITE TO EDF R&D CODE_ASTER,
#    1 AVENUE DU GENERAL DE GAULLE, 92141 CLAMART CEDEX, FRANCE.
# ======================================================================
#=======================================================================
# TREILLIS DE BARRES ARTICULEES SOUS TROIS SOLLICITATIONS
# DEPLACEMENTS IMPOSES, FORCES PONCTUELLES, DILATATION THERMIQUE
#                                                   REF: SFM.VPCS SSLL12
#=======================================================================


DEBUT(CODE=_F(NOM='SSLL12A', NIV_PUB_WEB='INTERNET'), DEBUG=_F(SDVERI='OUI'))

MAILLAGE=LIRE_MAILLAGE(  )

MATERIAU=DEFI_MATERIAU( ELAS=_F(  E = 2.10E+11, ALPHA = 1.E-05,
                                                 NU = 0.3) )

CH_MATER=AFFE_MATERIAU(  MAILLAGE=MAILLAGE,
                             AFFE=_F(  TOUT = 'OUI', MATER = MATERIAU) )

MODELE=AFFE_MODELE(  MAILLAGE=MAILLAGE,
                           AFFE=_F(  TOUT = 'OUI', PHENOMENE = 'MECANIQUE',
                                  MODELISATION = 'BARRE') )

EP=3.58942E-03

H=0.2

CARA_ELE=AFFE_CARA_ELEM(  MODELE=MODELE,BARRE=(
                              _F(  GROUP_MA = 'M_BAR1',
                                      SECTION = 'GENERALE',
                                      CARA = 'A', VALE = 1.41E-03),
                                    _F(  MAILLE = ( 'M11', 'M12', 'M14', 'M16', ),
                                      SECTION = 'RECTANGLE',
                                      CARA = ( 'EPY', 'EPZ', 'HY', 'HZ', ),
                                      VALE = ( EP,    EP,    H,    H,  )),
                                    _F(  MAILLE = ( 'M02', 'M04', 'M06', 'M08', 'M10', ),
                                      SECTION = 'RECTANGLE',
                                      CARA = ( 'EP',  'H',  ),
                                      VALE = (  EP,    H,   )))    )

TEMP_IMP=CREA_CHAMP( OPERATION='AFFE', TYPE_CHAM='NOEU_TEMP_R',
MAILLAGE=MAILLAGE,
                            AFFE=_F(  TOUT = 'OUI',
                                   NOM_CMP = 'TEMP',  VALE = 30.) )

###------------------------------------------------------------------###
###             CHARGEMENT : DILATATION THERMIQUE                    ###
###------------------------------------------------------------------###

CHARGE_1=AFFE_CHAR_MECA(  MODELE=MODELE,DDL_IMPO=(
                        _F(  TOUT = 'OUI', DZ = 0.),
                                 _F(  NOEUD = 'A',  DX = 0.,  DY = 0.),
                                 _F(  NOEUD = 'B',           DY = 0.)),
                        LIAISON_OBLIQUE=_F(  NOEUD = 'C',
                                          ANGL_NAUT = ( 30.,  0.,  0., ),
                                          DY = 0.),
                                            )

CH_MATM=AFFE_MATERIAU(  MAILLAGE=MAILLAGE,
                             AFFE=_F(  TOUT = 'OUI', MATER = MATERIAU),
                             AFFE_VARC=_F( TOUT='OUI',
                                     NOM_VARC='TEMP',VALE_REF=0.,
                                     CHAM_GD=TEMP_IMP,),
                      )

STATIQU1=MECA_STATIQUE(  MODELE=MODELE,
                              EXCIT=_F(   CHARGE = CHARGE_1),
                              CHAM_MATER=CH_MATM,  CARA_ELEM=CARA_ELE)

STATIQU1=CALC_CHAMP(reuse=STATIQU1,CONTRAINTE=('EFGE_ELNO'),RESULTAT=STATIQU1)


###------------------------------------------------------------------###
###             CHARGEMENT : FORCES PONCTUELLES                      ###
###------------------------------------------------------------------###

CHARGE_2=AFFE_CHAR_MECA(  MODELE=MODELE,DDL_IMPO=(
                        _F(  TOUT = 'OUI', DZ = 0.),
                                 _F(  NOEUD = 'A',  DX = 0.,  DY = 0.),
                                 _F(  NOEUD = 'B',           DY = 0.)),
                        LIAISON_OBLIQUE=_F(  NOEUD = 'C',
                                          ANGL_NAUT = ( 30.,  0.,  0., ),
                                          DY = 0.),FORCE_NODALE=(
                        _F(  NOEUD = 'E',  FY = -150.E+03),
                                     _F(  NOEUD = 'F',  FY = -100.E+03))  )

STATIQU2=MECA_STATIQUE(  MODELE=MODELE,
                              EXCIT=_F(   CHARGE = CHARGE_2),
                              CHAM_MATER=CH_MATER,  CARA_ELEM=CARA_ELE)

STATIQU2=CALC_CHAMP(reuse=STATIQU2,CONTRAINTE=('EFGE_ELNO'),RESULTAT=STATIQU2)


STATIQU2=CALC_CHAMP(reuse=STATIQU2,  FORCE='FORC_NODA',
                          RESULTAT=STATIQU2)

###------------------------------------------------------------------###
###             CHARGEMENT : DEPLACEMENTS IMPOSES                    ###
###------------------------------------------------------------------###

CHARGE_3=AFFE_CHAR_MECA(  MODELE=MODELE,DDL_IMPO=(
                        _F(  TOUT = 'OUI', DZ = 0.),
                                 _F(  NOEUD = 'A',  DX = 0., DY = -0.020),
                                 _F(  NOEUD = 'B',          DY = -0.030)),
                        LIAISON_OBLIQUE=_F(  NOEUD = 'C',
                                          ANGL_NAUT = ( 30.,  0.,  0., ),
                                          DY = -0.015)             )

STATIQU3=MECA_STATIQUE(  MODELE=MODELE,
                              EXCIT=_F(   CHARGE = CHARGE_3),
                              CHAM_MATER=CH_MATER,  CARA_ELEM=CARA_ELE)

STATIQU3=CALC_CHAMP(reuse=STATIQU3,CONTRAINTE=('EFGE_ELNO'),RESULTAT=STATIQU3)


###------------------------------------------------------------------###
###             CHARGEMENT : DILATATION, FORCES, DEPLACEMENTS        ###
###------------------------------------------------------------------###

CHARGE_4=AFFE_CHAR_MECA(  MODELE=MODELE,DDL_IMPO=(
                        _F(  TOUT = 'OUI', DZ = 0.),
                                 _F(  NOEUD = 'A',  DX = 0.,  DY = -0.020),
                                 _F(  NOEUD = 'B',           DY = -0.030)),
                        LIAISON_OBLIQUE=_F(  NOEUD = 'C',
                                          ANGL_NAUT = ( 30.,  0.,  0., ),
                                          DY = -0.015),FORCE_NODALE=(
                        _F(  NOEUD = 'E',  FY = -150.E+03),
                                     _F(  NOEUD = 'F',  FY = -100.E+03)),
                                          )

STATIQU4=MECA_STATIQUE(  MODELE=MODELE,
                             EXCIT=_F(   CHARGE = CHARGE_4),
                              CHAM_MATER=CH_MATM,  CARA_ELEM=CARA_ELE)

STATIQU4=CALC_CHAMP(reuse=STATIQU4,CONTRAINTE=('EFGE_ELNO'),RESULTAT=STATIQU4)


#----------------------------------------------------------------------#
IMPR_RESU ( RESU=_F( RESULTAT=STATIQU1, NUME_ORDRE=1,NOEUD='N01',
                     NOM_CHAM=('DEPL','EFGE_ELNO'),
                     NOM_CMP=('DY','N'), ), )
#----------------------------------------------------------------------#

VECAS1 =CREA_CHAMP( OPERATION='EXTR', TYPE_CHAM='NOEU_DEPL_R',
                    RESULTAT=STATIQU1, NUME_ORDRE=1,NOM_CHAM='DEPL' )

EFFOGE1=CREA_CHAMP( OPERATION='EXTR', TYPE_CHAM='ELNO_SIEF_R',
                    RESULTAT=STATIQU1, NUME_ORDRE=1,NOM_CHAM='EFGE_ELNO' )

VECAS2 =CREA_CHAMP( OPERATION='EXTR', TYPE_CHAM='NOEU_DEPL_R',
                    RESULTAT=STATIQU2, NUME_ORDRE=1,NOM_CHAM='DEPL' )

EFFOGE2=CREA_CHAMP( OPERATION='EXTR', TYPE_CHAM='ELNO_SIEF_R',
                    RESULTAT=STATIQU2, NUME_ORDRE=1,NOM_CHAM='EFGE_ELNO' )

FORCNO2=CREA_CHAMP( OPERATION='EXTR', TYPE_CHAM='NOEU_DEPL_R',
                    RESULTAT=STATIQU2, NUME_ORDRE=1,NOM_CHAM='FORC_NODA' )

SIEFGA2=CREA_CHAMP( OPERATION='EXTR', TYPE_CHAM='ELGA_SIEF_R',
                    RESULTAT=STATIQU2, NUME_ORDRE=1,NOM_CHAM='SIEF_ELGA' )

VECAS3 =CREA_CHAMP( OPERATION='EXTR', TYPE_CHAM='NOEU_DEPL_R',
                    RESULTAT=STATIQU3, NUME_ORDRE=1,NOM_CHAM='DEPL'  )

EFFOGE3=CREA_CHAMP( OPERATION='EXTR', TYPE_CHAM='ELNO_SIEF_R',
                    RESULTAT=STATIQU3, NUME_ORDRE=1,NOM_CHAM='EFGE_ELNO'  )

VECAS4 =CREA_CHAMP( OPERATION='EXTR', TYPE_CHAM='NOEU_DEPL_R',
                    RESULTAT=STATIQU4, NUME_ORDRE=1,NOM_CHAM='DEPL' )

EFFOGE4=CREA_CHAMP( OPERATION='EXTR', TYPE_CHAM='ELNO_SIEF_R',
                    RESULTAT=STATIQU4, NUME_ORDRE=1,NOM_CHAM='EFGE_ELNO' )

#----------------------------------------------------------------------#
# --->> TEST_RESU AVEC UNE ELEVATION DE TEMPERATURE DE 30 DEGRES
# --->> REFERENCE : LAREDO
#
# --->> CHARGE : DILATATION THERMIQUE

TEST_RESU(CHAM_ELEM=(_F(NOEUD='N01',
                        CRITERE='RELATIF',
                        NOM_CMP='N',
                        PRECISION=5.0E-3,
                        MAILLE='M01',
                        CHAM_GD=EFFOGE1,
                        VALE_CALC=-4.78250321E+03,
                        VALE_REFE=-4777.1000000000004,
                        REFERENCE='NON_DEFINI',),
                     _F(NOEUD='N02',
                        CRITERE='RELATIF',
                        NOM_CMP='N',
                        PRECISION=5.0E-3,
                        MAILLE='M02',
                        CHAM_GD=EFFOGE1,
                        VALE_CALC=-3.68157269E+03,
                        VALE_REFE=-3676.6999999999998,
                        REFERENCE='NON_DEFINI',),
                     _F(NOEUD='N02',
                        CRITERE='RELATIF',
                        NOM_CMP='N',
                        PRECISION=5.0E-3,
                        MAILLE='M03',
                        CHAM_GD=EFFOGE1,
                        VALE_CALC= 7.65574055E+03,
                        VALE_REFE=7651.1999999999998,
                        REFERENCE='NON_DEFINI',),
                     _F(NOEUD='E',
                        CRITERE='RELATIF',
                        NOM_CMP='N',
                        PRECISION=5.0E-3,
                        MAILLE='M04',
                        CHAM_GD=EFFOGE1,
                        VALE_CALC=-5.97812901E+03,
                        VALE_REFE=-5968.1999999999998,
                        REFERENCE='NON_DEFINI',),
                     _F(NOEUD='E',
                        CRITERE='RELATIF',
                        NOM_CMP='N',
                        PRECISION=5.0E-3,
                        MAILLE='M05',
                        CHAM_GD=EFFOGE1,
                        VALE_CALC=-7.65574055E+03,
                        VALE_REFE=-7651.1999999999998,
                        REFERENCE='NON_DEFINI',),
                     _F(NOEUD='N03',
                        CRITERE='RELATIF',
                        NOM_CMP='N',
                        PRECISION=5.0E-3,
                        MAILLE='M06',
                        CHAM_GD=EFFOGE1,
                        VALE_CALC= 8.27468534E+03,
                        VALE_REFE=8272.6000000000004,
                        REFERENCE='NON_DEFINI',),
                     _F(NOEUD='N03',
                        CRITERE='RELATIF',
                        NOM_CMP='N',
                        PRECISION=5.0E-3,
                        MAILLE='M07',
                        CHAM_GD=EFFOGE1,
                        VALE_CALC= 7.65574055E+03,
                        VALE_REFE=7651.1999999999998,
                        REFERENCE='NON_DEFINI',),
                     _F(NOEUD='N04',
                        CRITERE='RELATIF',
                        NOM_CMP='N',
                        PRECISION=5.0E-3,
                        MAILLE='M08',
                        CHAM_GD=EFFOGE1,
                        VALE_CALC=-1.79343870E+04,
                        VALE_REFE=-1.7918E4,
                        REFERENCE='NON_DEFINI',),
                     _F(NOEUD='N04',
                        CRITERE='RELATIF',
                        NOM_CMP='N',
                        PRECISION=5.0E-3,
                        MAILLE='M09',
                        CHAM_GD=EFFOGE1,
                        VALE_CALC= 5.29838382E+03,
                        VALE_REFE=5295.0,
                        REFERENCE='NON_DEFINI',),
                     _F(NOEUD='B',
                        CRITERE='RELATIF',
                        NOM_CMP='N',
                        PRECISION=5.0E-3,
                        MAILLE='M10',
                        CHAM_GD=EFFOGE1,
                        VALE_CALC= 1.29541244E+04,
                        VALE_REFE=1.2946E4,
                        REFERENCE='NON_DEFINI',),
                     _F(NOEUD='N04',
                        CRITERE='RELATIF',
                        NOM_CMP='N',
                        PRECISION=5.0E-3,
                        MAILLE='M11',
                        CHAM_GD=EFFOGE1,
                        VALE_CALC=-5.02558053E+03,
                        VALE_REFE=-5036.1000000000004,
                        REFERENCE='NON_DEFINI',),
                     _F(NOEUD='D',
                        CRITERE='RELATIF',
                        NOM_CMP='N',
                        PRECISION=5.0E-3,
                        MAILLE='M12',
                        CHAM_GD=EFFOGE1,
                        VALE_CALC= 1.29541244E+04,
                        VALE_REFE=1.2946E4,
                        REFERENCE='NON_DEFINI',),
                     _F(NOEUD='D',
                        CRITERE='RELATIF',
                        NOM_CMP='N',
                        PRECISION=5.0E-3,
                        MAILLE='M13',
                        CHAM_GD=EFFOGE1,
                        VALE_CALC= 2.74647031E+03,
                        VALE_REFE=2757.5,
                        REFERENCE='NON_DEFINI',),
                     _F(NOEUD='F',
                        CRITERE='RELATIF',
                        NOM_CMP='N',
                        PRECISION=5.0E-3,
                        MAILLE='M14',
                        CHAM_GD=EFFOGE1,
                        VALE_CALC=-1.59416774E+04,
                        VALE_REFE=-1.5937E4,
                        REFERENCE='NON_DEFINI',),
                     _F(NOEUD='F',
                        CRITERE='RELATIF',
                        NOM_CMP='N',
                        PRECISION=5.0E-3,
                        MAILLE='M15',
                        CHAM_GD=EFFOGE1,
                        VALE_CALC= 1.02076541E+04,
                        VALE_REFE=1.0189E4,
                        REFERENCE='NON_DEFINI',),
                     _F(NOEUD='C',
                        CRITERE='RELATIF',
                        NOM_CMP='N',
                        PRECISION=5.0E-3,
                        MAILLE='M16',
                        CHAM_GD=EFFOGE1,
                        VALE_CALC= 4.28926599E+03,
                        VALE_REFE=4285.1999999999998,
                        REFERENCE='NON_DEFINI',),
                     _F(NOEUD='C',
                        CRITERE='RELATIF',
                        NOM_CMP='N',
                        PRECISION=5.0E-3,
                        MAILLE='M17',
                        CHAM_GD=EFFOGE1,
                        VALE_CALC=-1.02076541E+04,
                        VALE_REFE=-1.0189E4,
                        REFERENCE='NON_DEFINI',),
                     ),
          )

#
# --->> CHARGE : FORCE PONCTUELLE

TEST_RESU(CHAM_NO=_F(NOEUD='E',
                     NOM_CMP='DY',
                     PRECISION=5.0E-3,
                     CHAM_GD=VECAS2,
                     VALE_CALC=-0.010580049,
                     VALE_REFE=-0.010566000000000001,
                     REFERENCE='NON_DEFINI',),
          )

TEST_RESU(CHAM_ELEM=(_F(NOEUD='N01',
                        NOM_CMP='N',
                        PRECISION=5.0E-3,
                        MAILLE='M01',
                        CHAM_GD=EFFOGE2,
                        VALE_CALC=-5.19378568E+04,
                        VALE_REFE=-5.1947E4,
                        REFERENCE='NON_DEFINI',),
                     _F(NOEUD='N02',
                        NOM_CMP='N',
                        PRECISION=5.0E-3,
                        MAILLE='M02',
                        CHAM_GD=EFFOGE2,
                        VALE_CALC=-2.07367718E+04,
                        VALE_REFE=-2.0753E4,
                        REFERENCE='NON_DEFINI',),
                     _F(NOEUD='N02',
                        NOM_CMP='N',
                        PRECISION=5.0E-3,
                        MAILLE='M03',
                        CHAM_GD=EFFOGE2,
                        VALE_CALC= 8.31411374E+04,
                        VALE_REFE=8.3102E4,
                        REFERENCE='NON_DEFINI',),
                     _F(NOEUD='E',
                        NOM_CMP='N',
                        PRECISION=5.0E-3,
                        MAILLE='M04',
                        CHAM_GD=EFFOGE2,
                        VALE_CALC=-6.49223210E+04,
                        VALE_REFE=-6.4930E4,
                        REFERENCE='NON_DEFINI',),
                     _F(NOEUD='E',
                        NOM_CMP='N',
                        PRECISION=5.0E-3,
                        MAILLE='M05',
                        CHAM_GD=EFFOGE2,
                        VALE_CALC=-8.31411374E+04,
                        VALE_REFE=-8.3102E4,
                        REFERENCE='NON_DEFINI',),
                     _F(NOEUD='N03',
                        NOM_CMP='N',
                        PRECISION=5.0E-3,
                        MAILLE='M06',
                        CHAM_GD=EFFOGE2,
                        VALE_CALC= 1.09107870E+05,
                        VALE_REFE=1.09020E5,
                        REFERENCE='NON_DEFINI',),
                     _F(NOEUD='N03',
                        NOM_CMP='N',
                        PRECISION=5.0E-3,
                        MAILLE='M07',
                        CHAM_GD=EFFOGE2,
                        VALE_CALC=-1.56976021E+05,
                        VALE_REFE=-1.56900E5,
                        REFERENCE='NON_DEFINI',),
                     _F(NOEUD='N04',
                        NOM_CMP='N',
                        PRECISION=5.0E-3,
                        MAILLE='M08',
                        CHAM_GD=EFFOGE2,
                        VALE_CALC=-7.26696304E+03,
                        VALE_REFE=-7303.1000000000004,
                        REFERENCE='NON_DEFINI',),
                     _F(NOEUD='N04',
                        NOM_CMP='N',
                        PRECISION=5.0E-3,
                        MAILLE='M09',
                        CHAM_GD=EFFOGE2,
                        VALE_CALC= 6.98631248E+04,
                        VALE_REFE=6.9761E4,
                        REFERENCE='NON_DEFINI',),
                     _F(NOEUD='B',
                        NOM_CMP='N',
                        PRECISION=5.0E-3,
                        MAILLE='M10',
                        CHAM_GD=EFFOGE2,
                        VALE_CALC=-8.71128967E+04,
                        VALE_REFE=-8.7137E4,
                        REFERENCE='NON_DEFINI',),
                     _F(NOEUD='N04',
                        NOM_CMP='N',
                        PRECISION=5.0E-3,
                        MAILLE='M11',
                        CHAM_GD=EFFOGE2,
                        VALE_CALC=-5.33070105E+04,
                        VALE_REFE=-5.3204E4,
                        REFERENCE='NON_DEFINI',),
                     _F(NOEUD='D',
                        NOM_CMP='N',
                        PRECISION=5.0E-3,
                        MAILLE='M12',
                        CHAM_GD=EFFOGE2,
                        VALE_CALC=-8.71128967E+04,
                        VALE_REFE=-8.7137E4,
                        REFERENCE='NON_DEFINI',),
                     _F(NOEUD='D',
                        NOM_CMP='N',
                        PRECISION=1.E-2,
                        MAILLE='M13',
                        CHAM_GD=EFFOGE2,
                        VALE_CALC= 1.54697280E+04,
                        VALE_REFE=1.5340E4,
                        REFERENCE='NON_DEFINI',),
                     _F(NOEUD='F',
                        NOM_CMP='N',
                        PRECISION=5.0E-3,
                        MAILLE='M14',
                        CHAM_GD=EFFOGE2,
                        VALE_CALC= 3.52071440E+04,
                        VALE_REFE=3.5265E4,
                        REFERENCE='NON_DEFINI',),
                     _F(NOEUD='F',
                        NOM_CMP='N',
                        PRECISION=5.0E-3,
                        MAILLE='M15',
                        CHAM_GD=EFFOGE2,
                        VALE_CALC=-1.02582625E+05,
                        VALE_REFE=-1.02480E5,
                        REFERENCE='NON_DEFINI',),
                     _F(NOEUD='C',
                        NOM_CMP='N',
                        PRECISION=5.0E-3,
                        MAILLE='M16',
                        CHAM_GD=EFFOGE2,
                        VALE_CALC= 2.41596562E+04,
                        VALE_REFE=2.4158E4,
                        REFERENCE='NON_DEFINI',),
                     _F(NOEUD='C',
                        NOM_CMP='N',
                        PRECISION=5.0E-3,
                        MAILLE='M17',
                        CHAM_GD=EFFOGE2,
                        VALE_CALC=-5.74954813E+04,
                        VALE_REFE=-5.7524E4,
                        REFERENCE='NON_DEFINI',),
                     ),
          )

#

TEST_RESU(CHAM_NO=(_F(NOEUD='E',
                      NOM_CMP='DY',
                      PRECISION=5.0E-3,
                      CHAM_GD=FORCNO2,
                      VALE_CALC=-1.50000000E+05,
                      VALE_REFE=-1.50000E5,
                      REFERENCE='NON_DEFINI',),
                   _F(NOEUD='F',
                      NOM_CMP='DY',
                      PRECISION=5.0E-3,
                      CHAM_GD=FORCNO2,
                      VALE_CALC=-1.00000000E+05,
                      VALE_REFE=-1.E5,
                      REFERENCE='NON_DEFINI',),
                   ),
          )

TEST_RESU(CHAM_ELEM=(_F(POINT=1,
                        NOM_CMP='N',
                        PRECISION=5.0E-3,
                        MAILLE='M01',
                        CHAM_GD=SIEFGA2,
                        VALE_CALC=-5.19378568E+04,
                        VALE_REFE=-5.1947E4,
                        REFERENCE='NON_DEFINI',),
                     _F(POINT=1,
                        NOM_CMP='N',
                        PRECISION=5.0E-3,
                        MAILLE='M02',
                        CHAM_GD=SIEFGA2,
                        VALE_CALC=-2.07367718E+04,
                        VALE_REFE=-2.0753E4,
                        REFERENCE='NON_DEFINI',),
                     _F(POINT=1,
                        NOM_CMP='N',
                        PRECISION=5.0E-3,
                        MAILLE='M03',
                        CHAM_GD=SIEFGA2,
                        VALE_CALC= 8.31411374E+04,
                        VALE_REFE=8.3102E4,
                        REFERENCE='NON_DEFINI',),
                     _F(POINT=1,
                        NOM_CMP='N',
                        PRECISION=5.0E-3,
                        MAILLE='M04',
                        CHAM_GD=SIEFGA2,
                        VALE_CALC=-6.49223210E+04,
                        VALE_REFE=-6.4930E4,
                        REFERENCE='NON_DEFINI',),
                     _F(POINT=1,
                        NOM_CMP='N',
                        PRECISION=5.0E-3,
                        MAILLE='M05',
                        CHAM_GD=SIEFGA2,
                        VALE_CALC=-8.31411374E+04,
                        VALE_REFE=-8.3102E4,
                        REFERENCE='NON_DEFINI',),
                     _F(POINT=1,
                        NOM_CMP='N',
                        PRECISION=5.0E-3,
                        MAILLE='M06',
                        CHAM_GD=SIEFGA2,
                        VALE_CALC= 1.09107870E+05,
                        VALE_REFE=1.09020E5,
                        REFERENCE='NON_DEFINI',),
                     _F(POINT=1,
                        NOM_CMP='N',
                        PRECISION=5.0E-3,
                        MAILLE='M07',
                        CHAM_GD=SIEFGA2,
                        VALE_CALC=-1.56976021E+05,
                        VALE_REFE=-1.56900E5,
                        REFERENCE='NON_DEFINI',),
                     _F(POINT=1,
                        NOM_CMP='N',
                        PRECISION=5.0E-3,
                        MAILLE='M08',
                        CHAM_GD=SIEFGA2,
                        VALE_CALC=-7.26696304E+03,
                        VALE_REFE=-7303.1000000000004,
                        REFERENCE='NON_DEFINI',),
                     _F(POINT=1,
                        NOM_CMP='N',
                        PRECISION=5.0E-3,
                        MAILLE='M09',
                        CHAM_GD=SIEFGA2,
                        VALE_CALC= 6.98631248E+04,
                        VALE_REFE=6.9761E4,
                        REFERENCE='NON_DEFINI',),
                     _F(POINT=1,
                        NOM_CMP='N',
                        PRECISION=5.0E-3,
                        MAILLE='M10',
                        CHAM_GD=SIEFGA2,
                        VALE_CALC=-8.71128967E+04,
                        VALE_REFE=-8.7137E4,
                        REFERENCE='NON_DEFINI',),
                     _F(POINT=1,
                        NOM_CMP='N',
                        PRECISION=5.0E-3,
                        MAILLE='M11',
                        CHAM_GD=SIEFGA2,
                        VALE_CALC=-5.33070105E+04,
                        VALE_REFE=-5.3204E4,
                        REFERENCE='NON_DEFINI',),
                     _F(POINT=1,
                        NOM_CMP='N',
                        PRECISION=5.0E-3,
                        MAILLE='M12',
                        CHAM_GD=SIEFGA2,
                        VALE_CALC=-8.71128967E+04,
                        VALE_REFE=-8.7137E4,
                        REFERENCE='NON_DEFINI',),
                     _F(POINT=1,
                        NOM_CMP='N',
                        PRECISION=1.E-2,
                        MAILLE='M13',
                        CHAM_GD=SIEFGA2,
                        VALE_CALC= 1.54697280E+04,
                        VALE_REFE=1.5340E4,
                        REFERENCE='NON_DEFINI',),
                     _F(POINT=1,
                        NOM_CMP='N',
                        PRECISION=5.0E-3,
                        MAILLE='M14',
                        CHAM_GD=SIEFGA2,
                        VALE_CALC= 3.52071440E+04,
                        VALE_REFE=3.5265E4,
                        REFERENCE='NON_DEFINI',),
                     _F(POINT=1,
                        NOM_CMP='N',
                        PRECISION=5.0E-3,
                        MAILLE='M15',
                        CHAM_GD=SIEFGA2,
                        VALE_CALC=-1.02582625E+05,
                        VALE_REFE=-1.02480E5,
                        REFERENCE='NON_DEFINI',),
                     _F(POINT=1,
                        NOM_CMP='N',
                        PRECISION=5.0E-3,
                        MAILLE='M16',
                        CHAM_GD=SIEFGA2,
                        VALE_CALC= 2.41596562E+04,
                        VALE_REFE=2.4158E4,
                        REFERENCE='NON_DEFINI',),
                     _F(POINT=1,
                        NOM_CMP='N',
                        PRECISION=5.0E-3,
                        MAILLE='M17',
                        CHAM_GD=SIEFGA2,
                        VALE_CALC=-5.74954813E+04,
                        VALE_REFE=-5.7524E4,
                        REFERENCE='NON_DEFINI',),
                     ),
          )

# --->> CHARGE : DEPLACEMENTS IMPOSES

TEST_RESU(CHAM_ELEM=(_F(NOEUD='N01',
                        CRITERE='RELATIF',
                        NOM_CMP='N',
                        PRECISION=5.0E-3,
                        MAILLE='M01',
                        CHAM_GD=EFFOGE3,
                        VALE_CALC=-2.43574340E+04,
                        VALE_REFE=-2.4346299999999999E4,
                        REFERENCE='NON_DEFINI',),
                     _F(NOEUD='N02',
                        CRITERE='RELATIF',
                        NOM_CMP='N',
                        PRECISION=5.0E-3,
                        MAILLE='M02',
                        CHAM_GD=EFFOGE3,
                        VALE_CALC=-1.87503614E+04,
                        VALE_REFE=-1.8738099999999999E4,
                        REFERENCE='NON_DEFINI',),
                     _F(NOEUD='N02',
                        CRITERE='RELATIF',
                        NOM_CMP='N',
                        PRECISION=5.0E-3,
                        MAILLE='M03',
                        CHAM_GD=EFFOGE3,
                        VALE_CALC= 3.89909190E+04,
                        VALE_REFE=3.8993699999999997E4,
                        REFERENCE='NON_DEFINI',),
                     _F(NOEUD='E',
                        CRITERE='RELATIF',
                        NOM_CMP='N',
                        PRECISION=5.0E-3,
                        MAILLE='M04',
                        CHAM_GD=EFFOGE3,
                        VALE_CALC=-3.04467925E+04,
                        VALE_REFE=-3.0416400000000001E4,
                        REFERENCE='NON_DEFINI',),
                     _F(NOEUD='E',
                        CRITERE='RELATIF',
                        NOM_CMP='N',
                        PRECISION=5.0E-3,
                        MAILLE='M05',
                        CHAM_GD=EFFOGE3,
                        VALE_CALC=-3.89909190E+04,
                        VALE_REFE=-3.8993699999999997E4,
                        REFERENCE='NON_DEFINI',),
                     _F(NOEUD='N03',
                        CRITERE='RELATIF',
                        NOM_CMP='N',
                        PRECISION=5.0E-3,
                        MAILLE='M06',
                        CHAM_GD=EFFOGE3,
                        VALE_CALC= 4.21432236E+04,
                        VALE_REFE=4.2160699999999997E4,
                        REFERENCE='NON_DEFINI',),
                     _F(NOEUD='N03',
                        CRITERE='RELATIF',
                        NOM_CMP='N',
                        PRECISION=5.0E-3,
                        MAILLE='M07',
                        CHAM_GD=EFFOGE3,
                        VALE_CALC= 3.89909190E+04,
                        VALE_REFE=3.8993699999999997E4,
                        REFERENCE='NON_DEFINI',),
                     _F(NOEUD='N04',
                        CRITERE='RELATIF',
                        NOM_CMP='N',
                        PRECISION=5.0E-3,
                        MAILLE='M08',
                        CHAM_GD=EFFOGE3,
                        VALE_CALC=-9.13403775E+04,
                        VALE_REFE=-9.1315100000000006E4,
                        REFERENCE='NON_DEFINI',),
                     _F(NOEUD='N04',
                        CRITERE='RELATIF',
                        NOM_CMP='N',
                        PRECISION=5.0E-3,
                        MAILLE='M09',
                        CHAM_GD=EFFOGE3,
                        VALE_CALC= 2.69848296E+04,
                        VALE_REFE=2.69855E4,
                        REFERENCE='NON_DEFINI',),
                     _F(NOEUD='B',
                        CRITERE='RELATIF',
                        NOM_CMP='N',
                        PRECISION=5.0E-3,
                        MAILLE='M10',
                        CHAM_GD=EFFOGE3,
                        VALE_CALC= 6.59757486E+04,
                        VALE_REFE=6.5979100000000006E4,
                        REFERENCE='NON_DEFINI',),
                     _F(NOEUD='N04',
                        CRITERE='RELATIF',
                        NOM_CMP='N',
                        PRECISION=5.0E-3,
                        MAILLE='M11',
                        CHAM_GD=EFFOGE3,
                        VALE_CALC=-2.55954342E+04,
                        VALE_REFE=-2.5665900000000001E4,
                        REFERENCE='NON_DEFINI',),
                     _F(NOEUD='D',
                        CRITERE='RELATIF',
                        NOM_CMP='N',
                        PRECISION=5.0E-3,
                        MAILLE='M12',
                        CHAM_GD=EFFOGE3,
                        VALE_CALC= 6.59757486E+04,
                        VALE_REFE=6.5979100000000006E4,
                        REFERENCE='NON_DEFINI',),
                     _F(NOEUD='D',
                        CRITERE='RELATIF',
                        NOM_CMP='N',
                        PRECISION=5.0E-3,
                        MAILLE='M13',
                        CHAM_GD=EFFOGE3,
                        VALE_CALC= 1.39878566E+04,
                        VALE_REFE=1.40536E4,
                        REFERENCE='NON_DEFINI',),
                     _F(NOEUD='F',
                        CRITERE='RELATIF',
                        NOM_CMP='N',
                        PRECISION=5.0E-3,
                        MAILLE='M14',
                        CHAM_GD=EFFOGE3,
                        VALE_CALC=-8.11914466E+04,
                        VALE_REFE=-8.1220300000000003E4,
                        REFERENCE='NON_DEFINI',),
                     _F(NOEUD='F',
                        CRITERE='RELATIF',
                        NOM_CMP='N',
                        PRECISION=5.0E-3,
                        MAILLE='M15',
                        CHAM_GD=EFFOGE3,
                        VALE_CALC= 5.19878920E+04,
                        VALE_REFE=5.1925599999999999E4,
                        REFERENCE='NON_DEFINI',),
                     _F(NOEUD='C',
                        CRITERE='RELATIF',
                        NOM_CMP='N',
                        PRECISION=5.0E-3,
                        MAILLE='M16',
                        CHAM_GD=EFFOGE3,
                        VALE_CALC= 2.18453619E+04,
                        VALE_REFE=2.1839099999999999E4,
                        REFERENCE='NON_DEFINI',),
                     _F(NOEUD='C',
                        CRITERE='RELATIF',
                        NOM_CMP='N',
                        PRECISION=5.0E-3,
                        MAILLE='M17',
                        CHAM_GD=EFFOGE3,
                        VALE_CALC=-5.19878920E+04,
                        VALE_REFE=-5.1925599999999999E4,
                        REFERENCE='NON_DEFINI',),
                     ),
          )

#
# --->> CHARGE : DILATATION, FORCES, DEPLACEMENTS

TEST_RESU(CHAM_ELEM=(_F(NOEUD='N01',
                        CRITERE='RELATIF',
                        NOM_CMP='N',
                        PRECISION=5.0E-3,
                        MAILLE='M01',
                        CHAM_GD=EFFOGE4,
                        VALE_CALC=-8.10777940E+04,
                        VALE_REFE=-8.1070E4,
                        REFERENCE='NON_DEFINI',),
                     _F(NOEUD='N02',
                        CRITERE='RELATIF',
                        NOM_CMP='N',
                        PRECISION=5.0E-3,
                        MAILLE='M02',
                        CHAM_GD=EFFOGE4,
                        VALE_CALC=-4.31687060E+04,
                        VALE_REFE=-4.3168E4,
                        REFERENCE='NON_DEFINI',),
                     _F(NOEUD='N02',
                        CRITERE='RELATIF',
                        NOM_CMP='N',
                        PRECISION=5.0E-3,
                        MAILLE='M03',
                        CHAM_GD=EFFOGE4,
                        VALE_CALC= 1.29787797E+05,
                        VALE_REFE=1.29750E5,
                        REFERENCE='NON_DEFINI',),
                     _F(NOEUD='E',
                        CRITERE='RELATIF',
                        NOM_CMP='N',
                        PRECISION=5.0E-3,
                        MAILLE='M04',
                        CHAM_GD=EFFOGE4,
                        VALE_CALC=-1.01347243E+05,
                        VALE_REFE=-1.01310E5,
                        REFERENCE='NON_DEFINI',),
                     _F(NOEUD='E',
                        CRITERE='RELATIF',
                        NOM_CMP='N',
                        PRECISION=5.0E-3,
                        MAILLE='M05',
                        CHAM_GD=EFFOGE4,
                        VALE_CALC=-1.29787797E+05,
                        VALE_REFE=-1.29750E5,
                        REFERENCE='NON_DEFINI',),
                     _F(NOEUD='N03',
                        CRITERE='RELATIF',
                        NOM_CMP='N',
                        PRECISION=5.0E-3,
                        MAILLE='M06',
                        CHAM_GD=EFFOGE4,
                        VALE_CALC= 1.59525779E+05,
                        VALE_REFE=1.59450E5,
                        REFERENCE='NON_DEFINI',),
                     _F(NOEUD='N03',
                        CRITERE='RELATIF',
                        NOM_CMP='N',
                        PRECISION=5.0E-3,
                        MAILLE='M07',
                        CHAM_GD=EFFOGE4,
                        VALE_CALC=-1.10329362E+05,
                        VALE_REFE=-1.10250E5,
                        REFERENCE='NON_DEFINI',),
                     _F(NOEUD='N04',
                        CRITERE='RELATIF',
                        NOM_CMP='N',
                        PRECISION=5.0E-3,
                        MAILLE='M08',
                        CHAM_GD=EFFOGE4,
                        VALE_CALC=-1.16541728E+05,
                        VALE_REFE=-1.16540E5,
                        REFERENCE='NON_DEFINI',),
                     _F(NOEUD='N04',
                        CRITERE='RELATIF',
                        NOM_CMP='N',
                        PRECISION=5.0E-3,
                        MAILLE='M09',
                        CHAM_GD=EFFOGE4,
                        VALE_CALC= 1.02146338E+05,
                        VALE_REFE=1.02040E5,
                        REFERENCE='NON_DEFINI',),
                     _F(NOEUD='B',
                        CRITERE='RELATIF',
                        NOM_CMP='N',
                        PRECISION=5.0E-3,
                        MAILLE='M10',
                        CHAM_GD=EFFOGE4,
                        VALE_CALC=-8.18302366E+03,
                        VALE_REFE=-8211.2000000000007,
                        REFERENCE='NON_DEFINI',),
                     _F(NOEUD='N04',
                        CRITERE='RELATIF',
                        NOM_CMP='N',
                        PRECISION=5.0E-3,
                        MAILLE='M11',
                        CHAM_GD=EFFOGE4,
                        VALE_CALC=-8.39280253E+04,
                        VALE_REFE=-8.3906E4,
                        REFERENCE='NON_DEFINI',),
                     _F(NOEUD='D',
                        CRITERE='RELATIF',
                        NOM_CMP='N',
                        PRECISION=5.0E-3,
                        MAILLE='M12',
                        CHAM_GD=EFFOGE4,
                        VALE_CALC=-8.18302366E+03,
                        VALE_REFE=-8211.2000000000007,
                        REFERENCE='NON_DEFINI',),
                     _F(NOEUD='D',
                        CRITERE='RELATIF',
                        NOM_CMP='N',
                        PRECISION=5.0E-3,
                        MAILLE='M13',
                        CHAM_GD=EFFOGE4,
                        VALE_CALC= 3.22040549E+04,
                        VALE_REFE=3.2151E4,
                        REFERENCE='NON_DEFINI',),
                     _F(NOEUD='F',
                        CRITERE='RELATIF',
                        NOM_CMP='N',
                        PRECISION=5.0E-3,
                        MAILLE='M14',
                        CHAM_GD=EFFOGE4,
                        VALE_CALC=-6.19259800E+04,
                        VALE_REFE=-6.1892E4,
                        REFERENCE='NON_DEFINI',),
                     _F(NOEUD='F',
                        CRITERE='RELATIF',
                        NOM_CMP='N',
                        PRECISION=5.0E-3,
                        MAILLE='M15',
                        CHAM_GD=EFFOGE4,
                        VALE_CALC=-4.03870786E+04,
                        VALE_REFE=-4.0362E4,
                        REFERENCE='NON_DEFINI',),
                     _F(NOEUD='C',
                        CRITERE='RELATIF',
                        NOM_CMP='N',
                        PRECISION=5.0E-3,
                        MAILLE='M16',
                        CHAM_GD=EFFOGE4,
                        VALE_CALC= 5.02942841E+04,
                        VALE_REFE=5.0282E4,
                        REFERENCE='NON_DEFINI',),
                     _F(NOEUD='C',
                        CRITERE='RELATIF',
                        NOM_CMP='N',
                        PRECISION=5.0E-3,
                        MAILLE='M17',
                        CHAM_GD=EFFOGE4,
                        VALE_CALC=-1.19691027E+05,
                        VALE_REFE=-1.19640E5,
                        REFERENCE='NON_DEFINI',),
                     ),
          )

#----------------------------------------------------------------------#
#   EXEMPLE D'UTILISATION DE TYPE_TEST AVEC DEFINITION D'UN NOM_CMP    #
#----------------------------------------------------------------------#

TEST_RESU(CHAM_NO=(_F(NOM_CMP='DY',
                      TYPE_TEST='SOMM_ABS',
                      CHAM_GD=VECAS2,
                      VALE_CALC=0.026587821782634,
                      ),
                   _F(NOM_CMP='DY',
                      TYPE_TEST='SOMM',
                      CHAM_GD=VECAS2,
                      VALE_CALC=-0.022526457489882,
                      ),
                   _F(NOM_CMP='DY',
                      TYPE_TEST='MAX',
                      CHAM_GD=VECAS2,
                      VALE_CALC=1.5165533422029E-3,
                      ),
                   _F(NOM_CMP='DY',
                      TYPE_TEST='MIN',
                      CHAM_GD=VECAS2,
                      VALE_CALC=-0.010580049399825,
                      ),
                   ),
          )

#
TEST_RESU(CHAM_ELEM=(_F(NOM_CMP='N',
                        TYPE_TEST='SOMM_ABS',
                        CHAM_GD=EFFOGE2,
                        VALE_CALC=2.2190812839388E6,
                        ),
                     _F(NOM_CMP='N',
                        TYPE_TEST='SOMM',
                        CHAM_GD=EFFOGE2,
                        VALE_CALC=-8.712866416119E5,
                        ),
                     _F(NOM_CMP='N',
                        TYPE_TEST='MAX',
                        CHAM_GD=EFFOGE2,
                        VALE_CALC=1.0910787018427E5,
                        ),
                     _F(NOM_CMP='N',
                        TYPE_TEST='MIN',
                        CHAM_GD=EFFOGE2,
                        VALE_CALC=-1.569760214585E5,
                        ),
                     ),
          )

#
FIN( )
#
