# MODIF  DATE 25/02/2013   AUTEUR CHANSARD F.CHANSARD 
# TITRE CALCUL DES MOMENTS CRITIQUES D'UNE ARCHE
# ssll404a.para = tps_job 60 mem_job 512Mo ncpus 1 liste_test R
#            CONFIGURATION MANAGEMENT OF EDF VERSION
# ======================================================================
# COPYRIGHT (C) 1991 - 2013  EDF R&D                  WWW.CODE-ASTER.ORG
# THIS PROGRAM IS FREE SOFTWARE; YOU CAN REDISTRIBUTE IT AND/OR MODIFY
# IT UNDER THE TERMS OF THE GNU GENERAL PUBLIC LICENSE AS PUBLISHED BY
# THE FREE SOFTWARE FOUNDATION; EITHER VERSION 2 OF THE LICENSE, OR
# (AT YOUR OPTION) ANY LATER VERSION.
#
# THIS PROGRAM IS DISTRIBUTED IN THE HOPE THAT IT WILL BE USEFUL, BUT
# WITHOUT ANY WARRANTY; WITHOUT EVEN THE IMPLIED WARRANTY OF
# MERCHANTABILITY OR FITNESS FOR A PARTICULAR PURPOSE. SEE THE GNU
# GENERAL PUBLIC LICENSE FOR MORE DETAILS.
#
# YOU SHOULD HAVE RECEIVED A COPY OF THE GNU GENERAL PUBLIC LICENSE
# ALONG WITH THIS PROGRAM; IF NOT, WRITE TO EDF R&D CODE_ASTER,
#    1 AVENUE DU GENERAL DE GAULLE, 92141 CLAMART CEDEX, FRANCE.
# ======================================================================
# ELEMENTS  : MEPOUDE


DEBUT(CODE=_F(NOM='SSLL404A', NIV_PUB_WEB='INTERNET'), DEBUG=_F(SDVERI='OUI'))

ACIER=DEFI_MATERIAU(
                         ELAS=_F(  NU = 0.3,
                           E = 7.E10,            ))

MAYA=LIRE_MAILLAGE( )

MATER=AFFE_MATERIAU(    MAILLAGE=MAYA,
                                 AFFE=_F(  TOUT = 'OUI',
                                        MATER = ACIER,   ))

STRUCTUR=AFFE_MODELE(    MAILLAGE=MAYA,
                               AFFE=_F(  TOUT = 'OUI',
                                      MODELISATION = 'POU_D_E',
                                      PHENOMENE = 'MECANIQUE',     ))

CARA=AFFE_CARA_ELEM(     MODELE=STRUCTUR,
                               POUTRE=_F(
                            GROUP_MA = 'TOUT',
                            SECTION = 'RECTANGLE',
                            CARA = ( 'HY',  'HZ', ),
                            VALE = ( 0.015,  0.002, ),     )
                          )

# CONDITIONS AUX LIMITES

FIXA=AFFE_CHAR_MECA(      MODELE=STRUCTUR,DDL_IMPO=(
                              _F(  GROUP_NO = 'POINT_A',
                                               DX = 0.,
                                               DY = 0.,
                                               DZ = 0.,
                                               DRY = 0.,  ),
                                       _F(  GROUP_NO = 'POINT_B',
                                               DY = 0.,
                                               DZ = 0.,
                                               DRX = 0.,  ))
                          )

CHARGE=AFFE_CHAR_MECA(      MODELE=STRUCTUR,FORCE_NODALE=(
                          _F(  GROUP_NO = 'POINT_A',
                                               MZ = 1.,    ),
                                       _F(  GROUP_NO = 'POINT_B',
                                               MZ = -1.,   ))
                          )

# CALCUL STATIQUE

STATIQ=MECA_STATIQUE(         MODELE=STRUCTUR,
                                 CARA_ELEM=CARA,
                                CHAM_MATER=MATER,EXCIT=(
                                     _F(  CHARGE = FIXA,     ),
                                           _F(  CHARGE = CHARGE,   ))
                            )

# RECUPERATION DU CHAMP DE DEPLACEMENT

DEPLA=CREA_CHAMP(  OPERATION='EXTR', TYPE_CHAM='NOEU_DEPL_R',
NOM_CHAM='DEPL', RESULTAT=STATIQ,
                              NUME_ORDRE=1
                               )

# CALCUL DES CONTRAINTES ELEMENTAIRES A PARTIR DES DEPLACEMENTS


SIGMA=CREA_CHAMP( OPERATION='EXTR', TYPE_CHAM='ELGA_SIEF_R',
                    RESULTAT=STATIQ, NUME_ORDRE=1,
                    NOM_CHAM='SIEF_ELGA' ),


# CALCUL DES MATRICES ELEMENTAIRES ET ASSEMBLAGE


K_ELEM=CALC_MATR_ELEM(        MODELE=STRUCTUR,
                                 CARA_ELEM=CARA,
                                CHAM_MATER=MATER,
                                    CHARGE=FIXA,
                                   OPTION='RIGI_MECA' )

KS_ELEM=CALC_MATR_ELEM(        MODELE=STRUCTUR,
                                 OPTION='RIGI_GEOM',
                               CARA_ELEM=CARA,
                               SIEF_ELGA=SIGMA )

NUMERO=NUME_DDL(    MATR_RIGI=K_ELEM )

K_ASSE=ASSE_MATRICE(    MATR_ELEM=K_ELEM,
                             NUME_DDL=NUMERO  )

KS_ASSE=ASSE_MATRICE(    MATR_ELEM=KS_ELEM,
                             NUME_DDL=NUMERO  )

# CALCUL DES MODES PAR SORENSEN

MODE1=MODE_ITER_SIMULT(       MATR_RIGI=K_ASSE,
                                   MATR_RIGI_GEOM=KS_ASSE,
                                TYPE_RESU='MODE_FLAMB',
                               CALC_CHAR_CRIT=_F(  OPTION = 'PLUS_PETITE',
                                           NMAX_CHAR_CRIT = 5,   ))


TEST_RESU(RESU=(_F(PARA='CHAR_CRIT',
                   NUME_MODE=1,
                   REFERENCE='ANALYTIQUE',
                   RESULTAT=MODE1,
                   VALE_CALC=-13.932163995,
                   VALE_REFE=-14.4147,
                   CRITERE='RELATIF',
                   PRECISION=0.035000000000000003,),
                _F(PARA='CHAR_CRIT',
                   NUME_MODE=2,
                   REFERENCE='ANALYTIQUE',
                   RESULTAT=MODE1,
                   VALE_CALC=-8.306132479,
                   VALE_REFE=-8.6320700000000006,
                   CRITERE='RELATIF',
                   PRECISION=0.037999999999999999,),
                _F(PARA='CHAR_CRIT',
                   NUME_MODE=3,
                   REFERENCE='ANALYTIQUE',
                   RESULTAT=MODE1,
                   VALE_CALC=-2.751372218,
                   VALE_REFE=-2.8607399999999998,
                   CRITERE='RELATIF',
                   PRECISION=0.039,),
                _F(PARA='CHAR_CRIT',
                   NUME_MODE=4,
                   REFERENCE='ANALYTIQUE',
                   RESULTAT=MODE1,
                   VALE_CALC=8.395545951,
                   VALE_REFE=8.7838200000000004,
                   CRITERE='RELATIF',
                   PRECISION=0.044999999999999998,),
                _F(PARA='CHAR_CRIT',
                   NUME_MODE=5,
                   REFERENCE='ANALYTIQUE',
                   RESULTAT=MODE1,
                   VALE_CALC=14.011043612,
                   VALE_REFE=14.555099999999999,
                   CRITERE='RELATIF',
                   PRECISION=0.037999999999999999,),
                ),
          )

MODE2=MODE_ITER_INV(       MATR_RIGI=K_ASSE,
                                MATR_RIGI_GEOM=KS_ASSE,
                             TYPE_RESU='MODE_FLAMB',
                            CALC_CHAR_CRIT=_F(  OPTION = 'PROCHE',
                                        CHAR_CRIT = ( -13.7, -8.35,
                                            -2.88, 8.35, 13.7,),
                                       ),
                            CALC_MODE=_F(  OPTION = 'RAYLEIGH',     )
                         )


TEST_RESU(RESU=(_F(NUME_ORDRE=1,
                   PARA='CHAR_CRIT',
                   REFERENCE='ANALYTIQUE',
                   RESULTAT=MODE2,
                   VALE_CALC=-13.932163821,
                   VALE_REFE=-14.4147,
                   CRITERE='RELATIF',
                   PRECISION=0.034000000000000002,),
                _F(NUME_ORDRE=2,
                   PARA='CHAR_CRIT',
                   REFERENCE='ANALYTIQUE',
                   RESULTAT=MODE2,
                   VALE_CALC=-8.306132481,
                   VALE_REFE=-8.6320700000000006,
                   CRITERE='RELATIF',
                   PRECISION=0.037999999999999999,),
                _F(NUME_ORDRE=3,
                   PARA='CHAR_CRIT',
                   REFERENCE='ANALYTIQUE',
                   RESULTAT=MODE2,
                   VALE_CALC=-2.751372938,
                   VALE_REFE=-2.8607399999999998,
                   CRITERE='RELATIF',
                   PRECISION=0.039,),
                _F(NUME_ORDRE=4,
                   PARA='CHAR_CRIT',
                   REFERENCE='ANALYTIQUE',
                   RESULTAT=MODE2,
                   VALE_CALC=8.395545951,
                   VALE_REFE=8.7838200000000004,
                   CRITERE='RELATIF',
                   PRECISION=0.044999999999999998,),
                _F(NUME_ORDRE=5,
                   PARA='CHAR_CRIT',
                   REFERENCE='ANALYTIQUE',
                   RESULTAT=MODE2,
                   VALE_CALC=14.011043612,
                   VALE_REFE=14.555099999999999,
                   CRITERE='RELATIF',
                   PRECISION=0.037999999999999999,),
                ),
          )

MODE3=MODE_ITER_INV(       MATR_RIGI=K_ASSE,
                                MATR_RIGI_GEOM=KS_ASSE,
                             TYPE_RESU='MODE_FLAMB',
                            CALC_CHAR_CRIT=_F(  OPTION = 'SEPARE',
                                        CHAR_CRIT = ( -16., -10.,
                                            -5., 2., 10.,15.),
                                       ),
                            CALC_MODE=_F(  OPTION = 'RAYLEIGH',     )
                         )

TEST_RESU(RESU=(_F(NUME_ORDRE=1,
                   PARA='CHAR_CRIT',
                   REFERENCE='ANALYTIQUE',
                   RESULTAT=MODE3,
                   VALE_CALC=-13.932163821,
                   VALE_REFE=-14.4147,
                   CRITERE='RELATIF',
                   PRECISION=0.034000000000000002,),
                _F(NUME_ORDRE=2,
                   PARA='CHAR_CRIT',
                   REFERENCE='ANALYTIQUE',
                   RESULTAT=MODE3,
                   VALE_CALC=-8.306132481,
                   VALE_REFE=-8.6320700000000006,
                   CRITERE='RELATIF',
                   PRECISION=0.037999999999999999,),
                _F(NUME_ORDRE=3,
                   PARA='CHAR_CRIT',
                   REFERENCE='ANALYTIQUE',
                   RESULTAT=MODE3,
                   VALE_CALC=-2.751372938,
                   VALE_REFE=-2.8607399999999998,
                   CRITERE='RELATIF',
                   PRECISION=0.039,),
                _F(NUME_ORDRE=4,
                   PARA='CHAR_CRIT',
                   REFERENCE='ANALYTIQUE',
                   RESULTAT=MODE3,
                   VALE_CALC=8.395545951,
                   VALE_REFE=8.7838200000000004,
                   CRITERE='RELATIF',
                   PRECISION=0.044999999999999998,),
                _F(NUME_ORDRE=5,
                   PARA='CHAR_CRIT',
                   REFERENCE='ANALYTIQUE',
                   RESULTAT=MODE3,
                   VALE_CALC=14.011043612,
                   VALE_REFE=14.555099999999999,
                   CRITERE='RELATIF',
                   PRECISION=0.037999999999999999,),
                ),
          )

MODE4=MODE_ITER_INV(       MATR_RIGI=K_ASSE,
                                MATR_RIGI_GEOM=KS_ASSE,
                             TYPE_RESU='MODE_FLAMB',
                            CALC_CHAR_CRIT=_F(  OPTION = 'AJUSTE',
                                        CHAR_CRIT = ( -16., -10.,
                                            -5., 2., 10.,15.),
                                       ),
                            CALC_MODE=_F(  OPTION = 'RAYLEIGH',     )
                         )
                         
TEST_RESU(RESU=(_F(NUME_ORDRE=1,
                   PARA='CHAR_CRIT',
                   REFERENCE='ANALYTIQUE',
                   RESULTAT=MODE4,
                   VALE_CALC=-13.932163821,
                   VALE_REFE=-14.4147,
                   CRITERE='RELATIF',
                   PRECISION=0.034000000000000002,),
                _F(NUME_ORDRE=2,
                   PARA='CHAR_CRIT',
                   REFERENCE='ANALYTIQUE',
                   RESULTAT=MODE4,
                   VALE_CALC=-8.306132481,
                   VALE_REFE=-8.6320700000000006,
                   CRITERE='RELATIF',
                   PRECISION=0.037999999999999999,),
                _F(NUME_ORDRE=3,
                   PARA='CHAR_CRIT',
                   REFERENCE='ANALYTIQUE',
                   RESULTAT=MODE4,
                   VALE_CALC=-2.751372938,
                   VALE_REFE=-2.8607399999999998,
                   CRITERE='RELATIF',
                   PRECISION=0.039,),
                _F(NUME_ORDRE=4,
                   PARA='CHAR_CRIT',
                   REFERENCE='ANALYTIQUE',
                   RESULTAT=MODE4,
                   VALE_CALC=8.395545951,
                   VALE_REFE=8.7838200000000004,
                   CRITERE='RELATIF',
                   PRECISION=0.044999999999999998,),
                _F(NUME_ORDRE=5,
                   PARA='CHAR_CRIT',
                   REFERENCE='ANALYTIQUE',
                   RESULTAT=MODE4,
                   VALE_CALC=14.011043612,
                   VALE_REFE=14.555099999999999,
                   CRITERE='RELATIF',
                   PRECISION=0.037999999999999999,),
                ),
          )
          
FIN()
#






