# MODIF  DATE 27/06/2001   AUTEUR CIBHHPD D.NUNEZ 
# TITRE TREILLIS DE BARRES SOUS TROIS SOLLICITATIONS
#            CONFIGURATION MANAGEMENT OF EDF VERSION
# ======================================================================
# COPYRIGHT (C) 1991 - 2001  EDF R&D                  WWW.CODE-ASTER.ORG
# THIS PROGRAM IS FREE SOFTWARE; YOU CAN REDISTRIBUTE IT AND/OR MODIFY
# IT UNDER THE TERMS OF THE GNU GENERAL PUBLIC LICENSE AS PUBLISHED BY
# THE FREE SOFTWARE FOUNDATION; EITHER VERSION 2 OF THE LICENSE, OR   
# (AT YOUR OPTION) ANY LATER VERSION.                                 
#
# THIS PROGRAM IS DISTRIBUTED IN THE HOPE THAT IT WILL BE USEFUL, BUT 
# WITHOUT ANY WARRANTY; WITHOUT EVEN THE IMPLIED WARRANTY OF          
# MERCHANTABILITY OR FITNESS FOR A PARTICULAR PURPOSE. SEE THE GNU    
# GENERAL PUBLIC LICENSE FOR MORE DETAILS.                            
#
# YOU SHOULD HAVE RECEIVED A COPY OF THE GNU GENERAL PUBLIC LICENSE   
# ALONG WITH THIS PROGRAM; IF NOT, WRITE TO EDF R&D CODE_ASTER,       
#    1 AVENUE DU GENERAL DE GAULLE, 92141 CLAMART CEDEX, FRANCE.      
# ======================================================================
#=======================================================================
# TREILLIS DE BARRES ARTICULEES SOUS TROIS SOLLICITATIONS
# DEPLACEMENTS IMPOSES, FORCES PONCTUELLES, DILATATION THERMIQUE
#                                                   REF: SFM.VPCS SSLL12
#=======================================================================


DEBUT( CODE=_F(  NOM = 'SSLL12B',NIV_PUB_WEB='INTERNET') )

MAILLAGE=LIRE_MAILLAGE(  )

MATERIAU=DEFI_MATERIAU( ELAS=_F(  E = 2.10E+11, ALPHA = 1.E-05,
                                                 NU = 0.3) )

CH_MATER=AFFE_MATERIAU(  MAILLAGE=MAILLAGE,
                             AFFE=_F(  TOUT = 'OUI', MATER = MATERIAU) )

MODELE=AFFE_MODELE(  MAILLAGE=MAILLAGE,
                           AFFE=_F(  TOUT = 'OUI', PHENOMENE = 'MECANIQUE',
                                  MODELISATION = '2D_BARRE') )

EP=3.58942E-03

H=0.2

CARA_ELE=AFFE_CARA_ELEM(  MODELE=MODELE,BARRE=(
                              _F(  GROUP_MA = 'M_BAR1',
                                      SECTION = 'GENERALE',
                                      CARA = 'A', VALE = 1.41E-03),
                                    _F(  MAILLE = ( 'M11', 'M12', 'M14', 'M16', ),
                                      SECTION = 'RECTANGLE',
                                      CARA = ( 'EPY', 'EPZ', 'HY', 'HZ', ),
                                      VALE = ( EP,    EP,    H,    H,  )),
                                    _F(  MAILLE = ( 'M02', 'M04', 'M06', 'M08', 'M10', ),
                                      SECTION = 'RECTANGLE',
                                      CARA = ( 'EP',  'H',  ),
                                      VALE = (  EP,    H,   )))    )

TEMP_IMP=CREA_CHAMP( OPERATION='AFFE', TYPE_CHAM='NOEU_TEMP_R',
MAILLAGE=MAILLAGE,
                            AFFE=_F(  TOUT = 'OUI',
                                   NOM_CMP = 'TEMP',  VALE = 30.) )

###------------------------------------------------------------------###
###             CHARGEMENT : DILATATION THERMIQUE                    ###
###------------------------------------------------------------------###

CHARGE_1=AFFE_CHAR_MECA(  MODELE=MODELE,DDL_IMPO=(
                                 _F(  NOEUD = 'A',  DX = 0.,  DY = 0.),
                                 _F(  NOEUD = 'B',           DY = 0.)),
                        LIAISON_OBLIQUE=_F(  NOEUD = 'C',
                                          ANGL_NAUT = ( 30.,  0.,  0., ),
                                          DY = 0.),
                         TEMP_CALCULEE=TEMP_IMP                     )

STATIQU1=MECA_STATIQUE(  MODELE=MODELE,
                              EXCIT=_F(   CHARGE = CHARGE_1),
                              CHAM_MATER=CH_MATER,  CARA_ELEM=CARA_ELE)

STATIQU1=CALC_ELEM(reuse=STATIQU1,  MODELE=MODELE,  OPTION='EFGE_ELNO_DEPL',
                          CHAM_MATER=CH_MATER,  CARA_ELEM=CARA_ELE,
                         EXCIT=_F( CHARGE = CHARGE_1),  RESULTAT=STATIQU1)

###------------------------------------------------------------------###
###             CHARGEMENT : FORCES PONCTUELLES                      ###
###------------------------------------------------------------------###

CHARGE_2=AFFE_CHAR_MECA(  MODELE=MODELE,DDL_IMPO=(
                                 _F(  NOEUD = 'A',  DX = 0.,  DY = 0.),
                                 _F(  NOEUD = 'B',           DY = 0.)),
                        LIAISON_OBLIQUE=_F(  NOEUD = 'C',
                                          ANGL_NAUT = ( 30.,  0.,  0., ),
                                          DY = 0.),FORCE_NODALE=(
                        _F(  NOEUD = 'E',  FY = -150.E+03),
                                     _F(  NOEUD = 'F',  FY = -100.E+03))  )

STATIQU2=MECA_STATIQUE(  MODELE=MODELE,
                              EXCIT=_F(   CHARGE = CHARGE_2),
                              CHAM_MATER=CH_MATER,  CARA_ELEM=CARA_ELE)

STATIQU2=CALC_ELEM(reuse=STATIQU2,  MODELE=MODELE,  OPTION='EFGE_ELNO_DEPL',
                          CHAM_MATER=CH_MATER,  CARA_ELEM=CARA_ELE,
                         EXCIT=_F( CHARGE = CHARGE_2),  RESULTAT=STATIQU2)

STATIQU2=CALC_ELEM(reuse=STATIQU2,  MODELE=MODELE,  OPTION='SIEF_ELGA_DEPL',
                          CHAM_MATER=CH_MATER,  CARA_ELEM=CARA_ELE,
                         EXCIT=_F( CHARGE = CHARGE_2),  RESULTAT=STATIQU2)

STATIQU2=CALC_NO(reuse=STATIQU2,  OPTION='FORC_NODA',  MODELE=MODELE,
                          CHAM_MATER=CH_MATER,  CARA_ELEM=CARA_ELE,
                          RESULTAT=STATIQU2)

###------------------------------------------------------------------###
###             CHARGEMENT : DEPLACEMENTS IMPOSES                    ###
###------------------------------------------------------------------###

CHARGE_3=AFFE_CHAR_MECA(  MODELE=MODELE,DDL_IMPO=(
                                 _F(  NOEUD = 'A',  DX = 0., DY = -0.020),
                                 _F(  NOEUD = 'B',          DY = -0.030)),
                        LIAISON_OBLIQUE=_F(  NOEUD = 'C',
                                          ANGL_NAUT = ( 30.,  0.,  0., ),
                                          DY = -0.015)             )

STATIQU3=MECA_STATIQUE(  MODELE=MODELE,
                              EXCIT=_F(   CHARGE = CHARGE_3),
                              CHAM_MATER=CH_MATER,  CARA_ELEM=CARA_ELE)

STATIQU3=CALC_ELEM(reuse=STATIQU3,  MODELE=MODELE,  OPTION='EFGE_ELNO_DEPL',
                          CHAM_MATER=CH_MATER,  CARA_ELEM=CARA_ELE,
                         EXCIT=_F( CHARGE = CHARGE_3),  RESULTAT=STATIQU3)

###------------------------------------------------------------------###
###             CHARGEMENT : DILATATION, FORCES, DEPLACEMENTS        ###
###------------------------------------------------------------------###

CHARGE_4=AFFE_CHAR_MECA(  MODELE=MODELE,DDL_IMPO=(
                                 _F(  NOEUD = 'A',  DX = 0.,  DY = -0.020),
                                 _F(  NOEUD = 'B',           DY = -0.030)),
                        LIAISON_OBLIQUE=_F(  NOEUD = 'C',
                                          ANGL_NAUT = ( 30.,  0.,  0., ),
                                          DY = -0.015),FORCE_NODALE=(
                        _F(  NOEUD = 'E',  FY = -150.E+03),
                                     _F(  NOEUD = 'F',  FY = -100.E+03)),
                         TEMP_CALCULEE=TEMP_IMP                     )

STATIQU4=MECA_STATIQUE(  MODELE=MODELE,
                             EXCIT=_F(   CHARGE = CHARGE_4),
                              CHAM_MATER=CH_MATER,  CARA_ELEM=CARA_ELE)

STATIQU4=CALC_ELEM( reuse=STATIQU4,  MODELE=MODELE,  OPTION='EFGE_ELNO_DEPL',
                           CHAM_MATER=CH_MATER,  CARA_ELEM=CARA_ELE,
                          EXCIT=_F( CHARGE = CHARGE_4),  RESULTAT=STATIQU4)

#----------------------------------------------------------------------#

VECAS1=CREA_CHAMP( OPERATION='EXTR', TYPE_CHAM='NOEU_DEPL_R',
RESULTAT=STATIQU1, NUME_ORDRE=1,
                          NOM_CHAM='DEPL'                     )

EFFOGE1=CREA_CHAMP( OPERATION='EXTR', TYPE_CHAM='ELNO_SIEF_R',
RESULTAT=STATIQU1, NUME_ORDRE=1,
                          NOM_CHAM='EFGE_ELNO_DEPL'           )

VECAS2=CREA_CHAMP( OPERATION='EXTR', TYPE_CHAM='NOEU_DEPL_R',
RESULTAT=STATIQU2, NUME_ORDRE=1,
                          NOM_CHAM='DEPL'                     )

EFFOGE2=CREA_CHAMP( OPERATION='EXTR', TYPE_CHAM='ELNO_SIEF_R',
RESULTAT=STATIQU2, NUME_ORDRE=1,
                          NOM_CHAM='EFGE_ELNO_DEPL'           )

FORCNO2=CREA_CHAMP( OPERATION='EXTR', TYPE_CHAM='NOEU_DEPL_R',
RESULTAT=STATIQU2, NUME_ORDRE=1,
                          NOM_CHAM='FORC_NODA'           )

SIEFGA2=CREA_CHAMP( OPERATION='EXTR', TYPE_CHAM='ELGA_SIEF_R',
RESULTAT=STATIQU2, NUME_ORDRE=1,
                          NOM_CHAM='SIEF_ELGA_DEPL'           )

VECAS3=CREA_CHAMP( OPERATION='EXTR', TYPE_CHAM='NOEU_DEPL_R',
RESULTAT=STATIQU3, NUME_ORDRE=1,
                          NOM_CHAM='DEPL'                     )

EFFOGE3=CREA_CHAMP( OPERATION='EXTR', TYPE_CHAM='ELNO_SIEF_R',
RESULTAT=STATIQU3, NUME_ORDRE=1,
                          NOM_CHAM='EFGE_ELNO_DEPL'           )

VECAS4=CREA_CHAMP( OPERATION='EXTR', TYPE_CHAM='NOEU_DEPL_R',
RESULTAT=STATIQU4, NUME_ORDRE=1,
                          NOM_CHAM='DEPL'                     )

EFFOGE4=CREA_CHAMP( OPERATION='EXTR', TYPE_CHAM='ELNO_SIEF_R',
RESULTAT=STATIQU4, NUME_ORDRE=1,
                          NOM_CHAM='EFGE_ELNO_DEPL'           )

#----------------------------------------------------------------------#
# --->> TEST_RESU AVEC UNE ELEVATION DE TEMPERATURE DE 30 DEGRES
# --->> REFERENCE : LAREDO
#
# --->> CHARGE : DILATATION THERMIQUE

TEST_RESU(CHAM_ELEM=( 
           _F(  CHAM_GD = EFFOGE1, CRITERE = 'RELATIF',  PRECISION = 0.005,
             MAILLE = 'M01',
             NOEUD = 'N01',      NOM_CMP = 'N',             VALE = -4777.1),
           _F(  CHAM_GD = EFFOGE1, CRITERE = 'RELATIF',  PRECISION = 0.005,
             MAILLE = 'M02',
             NOEUD = 'N02',      NOM_CMP = 'N',             VALE = -3676.7),
           _F(  CHAM_GD = EFFOGE1, CRITERE = 'RELATIF',  PRECISION = 0.005,
             MAILLE = 'M03',
             NOEUD = 'N02',      NOM_CMP = 'N',             VALE = 7651.2),
           _F(  CHAM_GD = EFFOGE1, CRITERE = 'RELATIF',  PRECISION = 0.005,
             MAILLE = 'M04',
             NOEUD = 'E',        NOM_CMP = 'N',             VALE = -5968.2),
           _F(  CHAM_GD = EFFOGE1, CRITERE = 'RELATIF',  PRECISION = 0.005,
             MAILLE = 'M05',
             NOEUD = 'E',        NOM_CMP = 'N',             VALE = -7651.2),
           _F(  CHAM_GD = EFFOGE1, CRITERE = 'RELATIF',  PRECISION = 0.005,
             MAILLE = 'M06',
             NOEUD = 'N03',      NOM_CMP = 'N',             VALE = 8272.6),
           _F(  CHAM_GD = EFFOGE1, CRITERE = 'RELATIF',  PRECISION = 0.005,
             MAILLE = 'M07',
             NOEUD = 'N03',      NOM_CMP = 'N',             VALE = 7651.2),
           _F(  CHAM_GD = EFFOGE1, CRITERE = 'RELATIF',  PRECISION = 0.005,
             MAILLE = 'M08',
             NOEUD = 'N04',      NOM_CMP = 'N',             VALE = -17918.),
           _F(  CHAM_GD = EFFOGE1, CRITERE = 'RELATIF',  PRECISION = 0.005,
             MAILLE = 'M09',
             NOEUD = 'N04',      NOM_CMP = 'N',             VALE = 5295.0),
           _F(  CHAM_GD = EFFOGE1, CRITERE = 'RELATIF',  PRECISION = 0.005,
             MAILLE = 'M10',
             NOEUD = 'B',        NOM_CMP = 'N',             VALE = 12946.),
           _F(  CHAM_GD = EFFOGE1, CRITERE = 'RELATIF',  PRECISION = 0.005,
             MAILLE = 'M11',
             NOEUD = 'N04',      NOM_CMP = 'N',             VALE = -5036.1),
           _F(  CHAM_GD = EFFOGE1, CRITERE = 'RELATIF',  PRECISION = 0.005,
             MAILLE = 'M12',
             NOEUD = 'D',        NOM_CMP = 'N',             VALE = 12946.),
           _F(  CHAM_GD = EFFOGE1, CRITERE = 'RELATIF',  PRECISION = 0.005,
             MAILLE = 'M13',
             NOEUD = 'D',        NOM_CMP = 'N',             VALE = 2757.5),
           _F(  CHAM_GD = EFFOGE1, CRITERE = 'RELATIF',  PRECISION = 0.005,
             MAILLE = 'M14',
             NOEUD = 'F',        NOM_CMP = 'N',             VALE = -15937.),
           _F(  CHAM_GD = EFFOGE1, CRITERE = 'RELATIF',  PRECISION = 0.005,
             MAILLE = 'M15',
             NOEUD = 'F',        NOM_CMP = 'N',             VALE = 10189.),
           _F(  CHAM_GD = EFFOGE1, CRITERE = 'RELATIF',  PRECISION = 0.005,
             MAILLE = 'M16',
             NOEUD = 'C',        NOM_CMP = 'N',             VALE = 4285.2),
           _F(  CHAM_GD = EFFOGE1, CRITERE = 'RELATIF',  PRECISION = 0.005,
             MAILLE = 'M17',
             NOEUD = 'C',        NOM_CMP = 'N',             VALE = -10189.))
          )

#
# --->> CHARGE : FORCE PONCTUELLE

TEST_RESU( 
           CHAM_NO=_F(  CHAM_GD = VECAS2,  PRECISION = 0.005,
                           NOEUD = 'E',  NOM_CMP = 'DY',  VALE = -1.0566E-02)
           )

TEST_RESU(CHAM_ELEM=( 
         _F(  CHAM_GD = EFFOGE2,  PRECISION = 0.005,
           MAILLE = 'M01',  NOEUD = 'N01',  NOM_CMP = 'N',  VALE = -51947.),
         _F(  CHAM_GD = EFFOGE2,  PRECISION = 0.005,
           MAILLE = 'M02',  NOEUD = 'N02',  NOM_CMP = 'N',  VALE = -20753.),
         _F(  CHAM_GD = EFFOGE2,  PRECISION = 0.005,
           MAILLE = 'M03',  NOEUD = 'N02',  NOM_CMP = 'N',  VALE = 83102.),
         _F(  CHAM_GD = EFFOGE2,  PRECISION = 0.005,
           MAILLE = 'M04',  NOEUD = 'E',    NOM_CMP = 'N',  VALE = -64930.),
         _F(  CHAM_GD = EFFOGE2,  PRECISION = 0.005,
           MAILLE = 'M05',  NOEUD = 'E',    NOM_CMP = 'N',  VALE = -83102.),
         _F(  CHAM_GD = EFFOGE2,  PRECISION = 0.005,
           MAILLE = 'M06',  NOEUD = 'N03',  NOM_CMP = 'N',  VALE = 1.0902E+05),
         _F(  CHAM_GD = EFFOGE2,  PRECISION = 0.005,
           MAILLE = 'M07',  NOEUD = 'N03',  NOM_CMP = 'N',  VALE = -1.5690E+05),
#

         _F(  CHAM_GD = EFFOGE2,  PRECISION = 0.005,
           MAILLE = 'M08',  NOEUD = 'N04',  NOM_CMP = 'N',  VALE = -7303.1),
         _F(  CHAM_GD = EFFOGE2,  PRECISION = 0.005,
           MAILLE = 'M09',  NOEUD = 'N04',  NOM_CMP = 'N',  VALE = 69761.),
         _F(  CHAM_GD = EFFOGE2,  PRECISION = 0.005,
           MAILLE = 'M10',  NOEUD = 'B',    NOM_CMP = 'N',  VALE = -87137.),
         _F(  CHAM_GD = EFFOGE2,  PRECISION = 0.005,
           MAILLE = 'M11',  NOEUD = 'N04',  NOM_CMP = 'N',  VALE = -53204.),
         _F(  CHAM_GD = EFFOGE2,  PRECISION = 0.005,
           MAILLE = 'M12',  NOEUD = 'D',    NOM_CMP = 'N',  VALE = -87137.),
         _F(  CHAM_GD = EFFOGE2,  PRECISION = 0.010,
           MAILLE = 'M13',  NOEUD = 'D',    NOM_CMP = 'N',  VALE = 15340.),
         _F(  CHAM_GD = EFFOGE2,  PRECISION = 0.005,
           MAILLE = 'M14',  NOEUD = 'F',    NOM_CMP = 'N',  VALE = 35265.),
         _F(  CHAM_GD = EFFOGE2,  PRECISION = 0.005,
           MAILLE = 'M15',  NOEUD = 'F',    NOM_CMP = 'N',  VALE = -1.0248E+05),
         _F(  CHAM_GD = EFFOGE2,  PRECISION = 0.005,
           MAILLE = 'M16',  NOEUD = 'C',    NOM_CMP = 'N',  VALE = 24158.),
         _F(  CHAM_GD = EFFOGE2,  PRECISION = 0.005,
           MAILLE = 'M17',  NOEUD = 'C',    NOM_CMP = 'N',  VALE = -57524.))
          )

#

TEST_RESU(CHAM_NO=(  
         _F(  CHAM_GD = FORCNO2,  PRECISION = 0.005,
           NOEUD = 'E',  NOM_CMP = 'DY',  VALE = -150000.),
         _F(  CHAM_GD = FORCNO2,  PRECISION = 0.005,
           NOEUD = 'F',  NOM_CMP = 'DY',  VALE = -100000.))
           )

TEST_RESU(CHAM_ELEM=( 
         _F(  CHAM_GD = SIEFGA2,  PRECISION = 0.005,
           MAILLE = 'M01',  POINT = 1,  NOM_CMP = 'N',  VALE = -51947.),
         _F(  CHAM_GD = SIEFGA2,  PRECISION = 0.005,
           MAILLE = 'M02',  POINT = 1,  NOM_CMP = 'N',  VALE = -20753.),
         _F(  CHAM_GD = SIEFGA2,  PRECISION = 0.005,
           MAILLE = 'M03',  POINT = 1,  NOM_CMP = 'N',  VALE = 83102.),
         _F(  CHAM_GD = SIEFGA2,  PRECISION = 0.005,
           MAILLE = 'M04',  POINT = 1,    NOM_CMP = 'N',  VALE = -64930.),
         _F(  CHAM_GD = SIEFGA2,  PRECISION = 0.005,
           MAILLE = 'M05',  POINT = 1,    NOM_CMP = 'N',  VALE = -83102.),
         _F(  CHAM_GD = SIEFGA2,  PRECISION = 0.005,
           MAILLE = 'M06',  POINT = 1,  NOM_CMP = 'N',  VALE = 1.0902E+05),
         _F(  CHAM_GD = SIEFGA2,  PRECISION = 0.005,
           MAILLE = 'M07',  POINT = 1,  NOM_CMP = 'N',  VALE = -1.5690E+05),
         _F(  CHAM_GD = SIEFGA2,  PRECISION = 0.005,
           MAILLE = 'M08',  POINT = 1,  NOM_CMP = 'N',  VALE = -7303.1),
         _F(  CHAM_GD = SIEFGA2,  PRECISION = 0.005,
           MAILLE = 'M09',  POINT = 1,  NOM_CMP = 'N',  VALE = 69761.),
         _F(  CHAM_GD = SIEFGA2,  PRECISION = 0.005,
           MAILLE = 'M10',  POINT = 1,   NOM_CMP = 'N',  VALE = -87137.),
         _F(  CHAM_GD = SIEFGA2,  PRECISION = 0.005,
           MAILLE = 'M11',  POINT = 1,  NOM_CMP = 'N',  VALE = -53204.),
         _F(  CHAM_GD = SIEFGA2,  PRECISION = 0.005,
           MAILLE = 'M12',  POINT = 1,    NOM_CMP = 'N',  VALE = -87137.),
         _F(  CHAM_GD = SIEFGA2,  PRECISION = 0.010,
           MAILLE = 'M13',  POINT = 1,    NOM_CMP = 'N',  VALE = 15340.),
         _F(  CHAM_GD = SIEFGA2,  PRECISION = 0.005,
           MAILLE = 'M14',  POINT = 1,    NOM_CMP = 'N',  VALE = 35265.),
         _F(  CHAM_GD = SIEFGA2,  PRECISION = 0.005,
           MAILLE = 'M15',  POINT = 1,  NOM_CMP = 'N',  VALE = -1.0248E+05),
         _F(  CHAM_GD = SIEFGA2,  PRECISION = 0.005,
           MAILLE = 'M16',  POINT = 1,   NOM_CMP = 'N',  VALE = 24158.),
         _F(  CHAM_GD = SIEFGA2,  PRECISION = 0.005,
           MAILLE = 'M17',  POINT = 1,    NOM_CMP = 'N',  VALE = -57524.))
          )

# --->> CHARGE : DEPLACEMENTS IMPOSES

TEST_RESU(CHAM_ELEM=( 
           _F(  CHAM_GD = EFFOGE3, CRITERE = 'RELATIF',  PRECISION = 0.005,
             MAILLE = 'M01',
             NOEUD = 'N01',      NOM_CMP = 'N',             VALE = -24346.3),
           _F(  CHAM_GD = EFFOGE3, CRITERE = 'RELATIF',  PRECISION = 0.005,
             MAILLE = 'M02',
             NOEUD = 'N02',      NOM_CMP = 'N',             VALE = -18738.1),
           _F(  CHAM_GD = EFFOGE3, CRITERE = 'RELATIF',  PRECISION = 0.005,
             MAILLE = 'M03',
             NOEUD = 'N02',      NOM_CMP = 'N',             VALE = 38993.7),
           _F(  CHAM_GD = EFFOGE3, CRITERE = 'RELATIF',  PRECISION = 0.005,
             MAILLE = 'M04',
             NOEUD = 'E',        NOM_CMP = 'N',             VALE = -30416.4),
           _F(  CHAM_GD = EFFOGE3, CRITERE = 'RELATIF',  PRECISION = 0.005,
             MAILLE = 'M05',
             NOEUD = 'E',        NOM_CMP = 'N',             VALE = -38993.7),
           _F(  CHAM_GD = EFFOGE3, CRITERE = 'RELATIF',  PRECISION = 0.005,
             MAILLE = 'M06',
             NOEUD = 'N03',      NOM_CMP = 'N',             VALE = 42160.7),
           _F(  CHAM_GD = EFFOGE3, CRITERE = 'RELATIF',  PRECISION = 0.005,
             MAILLE = 'M07',
             NOEUD = 'N03',      NOM_CMP = 'N',             VALE = 38993.7),
           _F(  CHAM_GD = EFFOGE3, CRITERE = 'RELATIF',  PRECISION = 0.005,
             MAILLE = 'M08',
             NOEUD = 'N04',      NOM_CMP = 'N',             VALE = -91315.1),
           _F(  CHAM_GD = EFFOGE3, CRITERE = 'RELATIF',  PRECISION = 0.005,
             MAILLE = 'M09',
             NOEUD = 'N04',      NOM_CMP = 'N',             VALE = 26985.5),
           _F(  CHAM_GD = EFFOGE3, CRITERE = 'RELATIF',  PRECISION = 0.005,
             MAILLE = 'M10',
             NOEUD = 'B',        NOM_CMP = 'N',             VALE = 65979.1),
           _F(  CHAM_GD = EFFOGE3, CRITERE = 'RELATIF',  PRECISION = 0.005,
             MAILLE = 'M11',
             NOEUD = 'N04',      NOM_CMP = 'N',             VALE = -25665.9),
           _F(  CHAM_GD = EFFOGE3, CRITERE = 'RELATIF',  PRECISION = 0.005,
             MAILLE = 'M12',
             NOEUD = 'D',        NOM_CMP = 'N',             VALE = 65979.1),
           _F(  CHAM_GD = EFFOGE3, CRITERE = 'RELATIF',  PRECISION = 0.005,
             MAILLE = 'M13',
             NOEUD = 'D',        NOM_CMP = 'N',             VALE = 14053.6),
           _F(  CHAM_GD = EFFOGE3, CRITERE = 'RELATIF',  PRECISION = 0.005,
             MAILLE = 'M14',
             NOEUD = 'F',        NOM_CMP = 'N',             VALE = -81220.3),
           _F(  CHAM_GD = EFFOGE3, CRITERE = 'RELATIF',  PRECISION = 0.005,
             MAILLE = 'M15',
             NOEUD = 'F',        NOM_CMP = 'N',             VALE = 51925.6),
           _F(  CHAM_GD = EFFOGE3, CRITERE = 'RELATIF',  PRECISION = 0.005,
             MAILLE = 'M16',
             NOEUD = 'C',        NOM_CMP = 'N',             VALE = 21839.1),
           _F(  CHAM_GD = EFFOGE3, CRITERE = 'RELATIF',  PRECISION = 0.005,
             MAILLE = 'M17',
             NOEUD = 'C',        NOM_CMP = 'N',             VALE = -51925.6))
             )

#
# --->> CHARGE : DILATATION, FORCES, DEPLACEMENTS

TEST_RESU(CHAM_ELEM=( 
           _F(  CHAM_GD = EFFOGE4, CRITERE = 'RELATIF',  PRECISION = 0.005,
             MAILLE = 'M01',
             NOEUD = 'N01',      NOM_CMP = 'N',             VALE = -81070.),
           _F(  CHAM_GD = EFFOGE4, CRITERE = 'RELATIF',  PRECISION = 0.005,
             MAILLE = 'M02',
             NOEUD = 'N02',      NOM_CMP = 'N',             VALE = -43168.),
           _F(  CHAM_GD = EFFOGE4, CRITERE = 'RELATIF',  PRECISION = 0.005,
             MAILLE = 'M03',
             NOEUD = 'N02',      NOM_CMP = 'N',             VALE = 1.2975E+05),
           _F(  CHAM_GD = EFFOGE4, CRITERE = 'RELATIF',  PRECISION = 0.005,
             MAILLE = 'M04',
             NOEUD = 'E',        NOM_CMP = 'N',             VALE = -1.0131E+05),
           _F(  CHAM_GD = EFFOGE4, CRITERE = 'RELATIF',  PRECISION = 0.005,
             MAILLE = 'M05',
             NOEUD = 'E',        NOM_CMP = 'N',             VALE = -1.2975E+05),
           _F(  CHAM_GD = EFFOGE4, CRITERE = 'RELATIF',  PRECISION = 0.005,
             MAILLE = 'M06',
             NOEUD = 'N03',      NOM_CMP = 'N',             VALE = 1.5945E+05),
           _F(  CHAM_GD = EFFOGE4, CRITERE = 'RELATIF',  PRECISION = 0.005,
             MAILLE = 'M07',
             NOEUD = 'N03',      NOM_CMP = 'N',             VALE = -1.1025E+05),
           _F(  CHAM_GD = EFFOGE4, CRITERE = 'RELATIF',  PRECISION = 0.005,
             MAILLE = 'M08',
             NOEUD = 'N04',      NOM_CMP = 'N',             VALE = -1.1654E+05),
           _F(  CHAM_GD = EFFOGE4, CRITERE = 'RELATIF',  PRECISION = 0.005,
             MAILLE = 'M09',
             NOEUD = 'N04',      NOM_CMP = 'N',             VALE = 1.0204E+05),
           _F(  CHAM_GD = EFFOGE4, CRITERE = 'RELATIF',  PRECISION = 0.005,
             MAILLE = 'M10',
             NOEUD = 'B',        NOM_CMP = 'N',             VALE = -8211.2),
           _F(  CHAM_GD = EFFOGE4, CRITERE = 'RELATIF',  PRECISION = 0.005,
             MAILLE = 'M11',
             NOEUD = 'N04',      NOM_CMP = 'N',             VALE = -83906.),
           _F(  CHAM_GD = EFFOGE4, CRITERE = 'RELATIF',  PRECISION = 0.005,
             MAILLE = 'M12',
             NOEUD = 'D',        NOM_CMP = 'N',             VALE = -8211.2),
           _F(  CHAM_GD = EFFOGE4, CRITERE = 'RELATIF',  PRECISION = 0.005,
             MAILLE = 'M13',
             NOEUD = 'D',        NOM_CMP = 'N',             VALE = 32151.),
           _F(  CHAM_GD = EFFOGE4, CRITERE = 'RELATIF',  PRECISION = 0.005,
             MAILLE = 'M14',
             NOEUD = 'F',        NOM_CMP = 'N',             VALE = -61892.),
           _F(  CHAM_GD = EFFOGE4, CRITERE = 'RELATIF',  PRECISION = 0.005,
             MAILLE = 'M15',
             NOEUD = 'F',        NOM_CMP = 'N',             VALE = -40362.),
           _F(  CHAM_GD = EFFOGE4, CRITERE = 'RELATIF',  PRECISION = 0.005,
             MAILLE = 'M16',
             NOEUD = 'C',        NOM_CMP = 'N',             VALE = 50282.),
           _F(  CHAM_GD = EFFOGE4, CRITERE = 'RELATIF',  PRECISION = 0.005,
             MAILLE = 'M17',
             NOEUD = 'C',        NOM_CMP = 'N',             VALE = -1.1964E+05))
           )

#----------------------------------------------------------------------#

FIN( )
#
##----------------------------------------------------------------------#
## --->> TEST_RESU AVEC UNE ELEVATION DE TEMPERATURE DE 150 DEGRES
## --->> REFERENCE : GUIDE VPCS -- LAREDO
##
## --->> CHARGE : DILATATION THERMIQUE
#  TEST_RESU( CHAM_ELEM:
#           ( CHAM_GD: EFFOGE1 CRITERE:'RELATIF'  PRECISION: 0.005
#             MAILLE: M01
#             NOEUD: N01      NOM_CMP:'N'             VALE: -23886.    )
#           ( CHAM_GD: EFFOGE1 CRITERE:'RELATIF'  PRECISION: 0.005
#             MAILLE: M02
#             NOEUD: N02      NOM_CMP:'N'             VALE: -18384.    )
#           ( CHAM_GD: EFFOGE1 CRITERE:'RELATIF'  PRECISION: 0.005
#             MAILLE: M03
#             NOEUD: N02      NOM_CMP:'N'             VALE: 38256.     )
#           ( CHAM_GD: EFFOGE1 CRITERE:'RELATIF'  PRECISION: 0.005
#             MAILLE: M04
#             NOEUD: E        NOM_CMP:'N'             VALE: -29841.    )
#           ( CHAM_GD: EFFOGE1 CRITERE:'RELATIF'  PRECISION: 0.005
#             MAILLE: M05
#             NOEUD: E        NOM_CMP:'N'             VALE: -38256.    )
#           ( CHAM_GD: EFFOGE1 CRITERE:'RELATIF'  PRECISION: 0.005
#             MAILLE: M06
#             NOEUD: N03      NOM_CMP:'N'             VALE: 41363.     )
#           ( CHAM_GD: EFFOGE1 CRITERE:'RELATIF'  PRECISION: 0.005
#             MAILLE: M07
#             NOEUD: N03      NOM_CMP:'N'             VALE: 38256.     )
#           ( CHAM_GD: EFFOGE1 CRITERE:'RELATIF'  PRECISION: 0.005
#             MAILLE: M08
#             NOEUD: N04      NOM_CMP:'N'             VALE: -89588.    )
#           ( CHAM_GD: EFFOGE1 CRITERE:'RELATIF'  PRECISION: 0.005
#             MAILLE: M09
#             NOEUD: N04      NOM_CMP:'N'             VALE: 26475.     )
#           ( CHAM_GD: EFFOGE1 CRITERE:'RELATIF'  PRECISION: 0.005
#             MAILLE: M10
#             NOEUD: B        NOM_CMP:'N'             VALE: 64731.     )
#           ( CHAM_GD: EFFOGE1 CRITERE:'RELATIF'  PRECISION: 0.005
#             MAILLE: M11
#             NOEUD: N04      NOM_CMP:'N'             VALE: -25180.    )
#           ( CHAM_GD: EFFOGE1 CRITERE:'RELATIF'  PRECISION: 0.005
#             MAILLE: M12
#             NOEUD: D        NOM_CMP:'N'             VALE: 64731.     )
#           ( CHAM_GD: EFFOGE1 CRITERE:'RELATIF'  PRECISION: 0.005
#             MAILLE: M13
#             NOEUD: D        NOM_CMP:'N'             VALE: 13788.     )
#           ( CHAM_GD: EFFOGE1 CRITERE:'RELATIF'  PRECISION: 0.005
#             MAILLE: M14
#             NOEUD: F        NOM_CMP:'N'             VALE: -79684.    )
#           ( CHAM_GD: EFFOGE1 CRITERE:'RELATIF'  PRECISION: 0.005
#             MAILLE: M15
#             NOEUD: F        NOM_CMP:'N'             VALE: 50943.     )
#           ( CHAM_GD: EFFOGE1 CRITERE:'RELATIF'  PRECISION: 0.005
#             MAILLE: M16
#             NOEUD: C        NOM_CMP:'N'             VALE: 21426.     )
#           ( CHAM_GD: EFFOGE1 CRITERE:'RELATIF'  PRECISION: 0.005
#             MAILLE: M17
#             NOEUD: C        NOM_CMP:'N'             VALE: -50943.    )
#           ) ;
##
## --->> CHARGE : FORCE PONCTUELLE
#  TEST_RESU( CHAM_NO:
#           ( CHAM_GD: VECAS2 CRITERE:'RELATIF'   PRECISION: 0.005
#             NOEUD: E        NOM_CMP:'DY'           VALE: -1.0566E-02 )
#            ) ;
#  TEST_RESU( CHAM_ELEM:
#           ( CHAM_GD: EFFOGE2 CRITERE:'RELATIF'  PRECISION: 0.005
#             MAILLE: M01
#             NOEUD: N01      NOM_CMP:'N'             VALE: -51947.    )
#           ( CHAM_GD: EFFOGE2 CRITERE:'RELATIF'  PRECISION: 0.005
#             MAILLE: M02
#             NOEUD: N02      NOM_CMP:'N'             VALE: -20753.    )
#           ( CHAM_GD: EFFOGE2 CRITERE:'RELATIF'  PRECISION: 0.005
#             MAILLE: M03
#             NOEUD: N02      NOM_CMP:'N'             VALE: 83102.     )
#           ( CHAM_GD: EFFOGE2 CRITERE:'RELATIF'  PRECISION: 0.005
#             MAILLE: M04
#             NOEUD: E        NOM_CMP:'N'             VALE: -64930.    )
#           ( CHAM_GD: EFFOGE2 CRITERE:'RELATIF'  PRECISION: 0.005
#             MAILLE: M05
#             NOEUD: E        NOM_CMP:'N'             VALE: -83102.    )
#           ( CHAM_GD: EFFOGE2 CRITERE:'RELATIF'  PRECISION: 0.005
#             MAILLE: M06
#             NOEUD: N03      NOM_CMP:'N'             VALE: 1.0902E+05 )
#           ( CHAM_GD: EFFOGE2 CRITERE:'RELATIF'  PRECISION: 0.005
#             MAILLE: M07
#             NOEUD: N03      NOM_CMP:'N'             VALE: -1.5690E+05 )
#           ( CHAM_GD: EFFOGE2 CRITERE:'RELATIF'  PRECISION: 0.005
#             MAILLE: M08
#             NOEUD: N04      NOM_CMP:'N'             VALE: -7303.1    )
#           ( CHAM_GD: EFFOGE2 CRITERE:'RELATIF'  PRECISION: 0.005
#             MAILLE: M09
#             NOEUD: N04      NOM_CMP:'N'             VALE: 69761.     )
#           ( CHAM_GD: EFFOGE2 CRITERE:'RELATIF'  PRECISION: 0.005
#             MAILLE: M10
#             NOEUD: B        NOM_CMP:'N'             VALE: -87137.    )
#           ( CHAM_GD: EFFOGE2 CRITERE:'RELATIF'  PRECISION: 0.005
#             MAILLE: M11
#             NOEUD: N04      NOM_CMP:'N'             VALE: -53204.    )
#           ( CHAM_GD: EFFOGE2 CRITERE:'RELATIF'  PRECISION: 0.005
#             MAILLE: M12
#             NOEUD: D        NOM_CMP:'N'             VALE: -87137.    )
#           ( CHAM_GD: EFFOGE2 CRITERE:'RELATIF'  PRECISION: 0.005
#             MAILLE: M13
#             NOEUD: D        NOM_CMP:'N'             VALE: 15340.     )
#           ( CHAM_GD: EFFOGE2 CRITERE:'RELATIF'  PRECISION: 0.005
#             MAILLE: M14
#             NOEUD: F        NOM_CMP:'N'             VALE: 35265.     )
#           ( CHAM_GD: EFFOGE2 CRITERE:'RELATIF'  PRECISION: 0.005
#             MAILLE: M15
#             NOEUD: F        NOM_CMP:'N'             VALE: -1.0248E+05 )
#           ( CHAM_GD: EFFOGE2 CRITERE:'RELATIF'  PRECISION: 0.005
#             MAILLE: M16
#             NOEUD: C        NOM_CMP:'N'             VALE: 24158.     )
#           ( CHAM_GD: EFFOGE2 CRITERE:'RELATIF'  PRECISION: 0.005
#             MAILLE: M17
#             NOEUD: C        NOM_CMP:'N'             VALE: -57524.    )
#) ;
##
## --->> CHARGE : DEPLACEMENTS IMPOSES
#  TEST_RESU( CHAM_ELEM:
#           ( CHAM_GD: EFFOGE3 CRITERE:'RELATIF'  PRECISION: 0.005
#             MAILLE: M01
#             NOEUD: N01      NOM_CMP:'N'             VALE: -24346.3   )
#           ( CHAM_GD: EFFOGE3 CRITERE:'RELATIF'  PRECISION: 0.005
#             MAILLE: M02
#             NOEUD: N02      NOM_CMP:'N'             VALE: -18738.1   )
#           ( CHAM_GD: EFFOGE3 CRITERE:'RELATIF'  PRECISION: 0.005
#             MAILLE: M03
#             NOEUD: N02      NOM_CMP:'N'             VALE: 38993.7    )
#           ( CHAM_GD: EFFOGE3 CRITERE:'RELATIF'  PRECISION: 0.005
#             MAILLE: M04
#             NOEUD: E        NOM_CMP:'N'             VALE: -30416.4   )
#           ( CHAM_GD: EFFOGE3 CRITERE:'RELATIF'  PRECISION: 0.005
#             MAILLE: M05
#             NOEUD: E        NOM_CMP:'N'             VALE: -38993.7   )
#           ( CHAM_GD: EFFOGE3 CRITERE:'RELATIF'  PRECISION: 0.005
#             MAILLE: M06
#             NOEUD: N03      NOM_CMP:'N'             VALE: 42160.7    )
#           ( CHAM_GD: EFFOGE3 CRITERE:'RELATIF'  PRECISION: 0.005
#             MAILLE: M07
#             NOEUD: N03      NOM_CMP:'N'             VALE: 38993.7    )
#           ( CHAM_GD: EFFOGE3 CRITERE:'RELATIF'  PRECISION: 0.005
#             MAILLE: M08
#             NOEUD: N04      NOM_CMP:'N'             VALE: -91315.1   )
#           ( CHAM_GD: EFFOGE3 CRITERE:'RELATIF'  PRECISION: 0.005
#             MAILLE: M09
#             NOEUD: N04      NOM_CMP:'N'             VALE: 26985.5    )
#           ( CHAM_GD: EFFOGE3 CRITERE:'RELATIF'  PRECISION: 0.005
#             MAILLE: M10
#             NOEUD: B        NOM_CMP:'N'             VALE: 65979.1    )
#           ( CHAM_GD: EFFOGE3 CRITERE:'RELATIF'  PRECISION: 0.005
#             MAILLE: M11
#             NOEUD: N04      NOM_CMP:'N'             VALE: -25665.9   )
#           ( CHAM_GD: EFFOGE3 CRITERE:'RELATIF'  PRECISION: 0.005
#             MAILLE: M12
#             NOEUD: D        NOM_CMP:'N'             VALE: 65979.1    )
#           ( CHAM_GD: EFFOGE3 CRITERE:'RELATIF'  PRECISION: 0.005
#             MAILLE: M13
#             NOEUD: D        NOM_CMP:'N'             VALE: 14053.6    )
#           ( CHAM_GD: EFFOGE3 CRITERE:'RELATIF'  PRECISION: 0.005
#             MAILLE: M14
#             NOEUD: F        NOM_CMP:'N'             VALE: -81220.3   )
#           ( CHAM_GD: EFFOGE3 CRITERE:'RELATIF'  PRECISION: 0.005
#             MAILLE: M15
#             NOEUD: F        NOM_CMP:'N'             VALE: 51925.6    )
#           ( CHAM_GD: EFFOGE3 CRITERE:'RELATIF'  PRECISION: 0.005
#             MAILLE: M16
#             NOEUD: C        NOM_CMP:'N'             VALE: 21839.1    )
#           ( CHAM_GD: EFFOGE3 CRITERE:'RELATIF'  PRECISION: 0.005
#             MAILLE: M17
#             NOEUD: C        NOM_CMP:'N'             VALE: -51925.6   )
#            ) ;
##
## --->> CHARGE : DILATATION, FORCES, DEPLACEMENTS
#  TEST_RESU( CHAM_NO:
#           ( CHAM_GD: VECAS4 CRITERE:'RELATIF'   PRECISION: 0.005
#             NOEUD: D        NOM_CMP:'DY'            VALE: -1.618E-02 )
#           ) ;
#  TEST_RESU( CHAM_ELEM:
#           ( CHAM_GD: EFFOGE4 CRITERE:'RELATIF'  PRECISION: 0.005
#             MAILLE: M01
#             NOEUD: N01      NOM_CMP:'N'             VALE: -1.0018E+05 )
#           ( CHAM_GD: EFFOGE4 CRITERE:'RELATIF'  PRECISION: 0.005
#             MAILLE: M02
#             NOEUD: N02      NOM_CMP:'N'             VALE: -57875.    )
#           ( CHAM_GD: EFFOGE4 CRITERE:'RELATIF'  PRECISION: 0.005
#             MAILLE: M03
#             NOEUD: N02      NOM_CMP:'N'             VALE: 1.6035E+05 )
#           ( CHAM_GD: EFFOGE4 CRITERE:'RELATIF'  PRECISION: 0.005
#             MAILLE: M04
#             NOEUD: E        NOM_CMP:'N'             VALE: -1.2519E+05 )
#           ( CHAM_GD: EFFOGE4 CRITERE:'RELATIF'  PRECISION: 0.005
#             MAILLE: M05
#             NOEUD: E        NOM_CMP:'N'             VALE: -1.6035E+05 )
#           ( CHAM_GD: EFFOGE4 CRITERE:'RELATIF'  PRECISION: 0.005
#             MAILLE: M06
#             NOEUD: N03      NOM_CMP:'N'             VALE: 1.9254E+05 )
#           ( CHAM_GD: EFFOGE4 CRITERE:'RELATIF'  PRECISION: 0.005
#             MAILLE: M07
#             NOEUD: N03      NOM_CMP:'N'             VALE: -79648.    )
#           ( CHAM_GD: EFFOGE4 CRITERE:'RELATIF'  PRECISION: 0.005
#             MAILLE: M08
#             NOEUD: N04      NOM_CMP:'N'             VALE: -1.8821E+05 )
#           ( CHAM_GD: EFFOGE4 CRITERE:'RELATIF'  PRECISION: 0.005
#             MAILLE: M09
#             NOEUD: N04      NOM_CMP:'N'             VALE: 1.2322E+05 )
#           ( CHAM_GD: EFFOGE4 CRITERE:'RELATIF'  PRECISION: 0.005
#             MAILLE: M10
#             NOEUD: B        NOM_CMP:'N'             VALE: 43574.     )
#           ( CHAM_GD: EFFOGE4 CRITERE:'RELATIF'  PRECISION: 0.005
#             MAILLE: M11
#             NOEUD: N04      NOM_CMP:'N'             VALE: -1.0405E+05 )
#           ( CHAM_GD: EFFOGE4 CRITERE:'RELATIF'  PRECISION: 0.005
#             MAILLE: M12
#             NOEUD: D        NOM_CMP:'N'             VALE: 43574.     )
#           ( CHAM_GD: EFFOGE4 CRITERE:'RELATIF'  PRECISION: 0.005
#             MAILLE: M13
#             NOEUD: D        NOM_CMP:'N'             VALE: 43181.     )
#           ( CHAM_GD: EFFOGE4 CRITERE:'RELATIF'  PRECISION: 0.005
#             MAILLE: M14
#             NOEUD: F        NOM_CMP:'N'             VALE: -1.2564E+05 )
#           ( CHAM_GD: EFFOGE4 CRITERE:'RELATIF'  PRECISION: 0.005
#             MAILLE: M15
#             NOEUD: F        NOM_CMP:'N'             VALE: 392.39     )
#           ( CHAM_GD: EFFOGE4 CRITERE:'RELATIF'  PRECISION: 10.001
#             MAILLE: M16
#             NOEUD: C        NOM_CMP:'N'             VALE: 67423.     )
#           ( CHAM_GD: EFFOGE4 CRITERE:'RELATIF'  PRECISION: 0.005
#             MAILLE: M17
#             NOEUD: C        NOM_CMP:'N'             VALE: -1.6039E+05 )
#            ) ;
##----------------------------------------------------------------------#
# FIN( ) ;
##----------------------------------------------------------------------#
