# MODIF  DATE 16/10/2012   AUTEUR ALARCON A.ALARCON 
# RESPONSABLE PROIX J.M.PROIX
# TITRE TUBE DROIT SOUMIS A PLUSIEURS CHARGEMENTS (ELEMENT TUYAU_3M 3 NOEUDS) MACRO_ELAS_MULT
# ssll106a.para = tps_job 60 mem_job 512Mo ncpus 1 liste_test S
#            CONFIGURATION MANAGEMENT OF EDF VERSION
# ======================================================================
# COPYRIGHT (C) 1991 - 2012  EDF R&D                  WWW.CODE-ASTER.ORG
# THIS PROGRAM IS FREE SOFTWARE; YOU CAN REDISTRIBUTE IT AND/OR MODIFY
# IT UNDER THE TERMS OF THE GNU GENERAL PUBLIC LICENSE AS PUBLISHED BY
# THE FREE SOFTWARE FOUNDATION; EITHER VERSION 2 OF THE LICENSE, OR
# (AT YOUR OPTION) ANY LATER VERSION.
#
# THIS PROGRAM IS DISTRIBUTED IN THE HOPE THAT IT WILL BE USEFUL, BUT
# WITHOUT ANY WARRANTY; WITHOUT EVEN THE IMPLIED WARRANTY OF
# MERCHANTABILITY OR FITNESS FOR A PARTICULAR PURPOSE. SEE THE GNU
# GENERAL PUBLIC LICENSE FOR MORE DETAILS.
#
# YOU SHOULD HAVE RECEIVED A COPY OF THE GNU GENERAL PUBLIC LICENSE
# ALONG WITH THIS PROGRAM; IF NOT, WRITE TO EDF R&D CODE_ASTER,
#    1 AVENUE DU GENERAL DE GAULLE, 92141 CLAMART CEDEX, FRANCE.
# ======================================================================

DEBUT(CODE=_F(NOM='SSLL106A',NIV_PUB_WEB='INTERNET',VISU_EFICAS='NON'),DEBUG=_F(SDVERI='OUI'))

MA=LIRE_MAILLAGE(FORMAT='MED', )

DEFI_GROUP( reuse=MA,   MAILLAGE=MA,
  CREA_GROUP_MA=_F(  NOM = 'TOUT', TOUT = 'OUI'))

MO=AFFE_MODELE(        MAILLAGE=MA,
     AFFE=_F( TOUT = 'OUI', PHENOMENE = 'MECANIQUE', MODELISATION = 'TUYAU_3M')
                        )

#------CARACTERISTIQUES ELEMENTAIRES----------------------


CAREL=AFFE_CARA_ELEM(   MODELE=MO,
                ### INFO:2
                 #VERIF:'MAILLE'
                 POUTRE=_F(
       GROUP_MA = 'TOUT', SECTION = 'CERCLE',
                 CARA = ('R', 'EP',),
                 VALE = (0.04, 0.008,),
MODI_METRIQUE = 'OUI'),
 ORIENTATION=_F( GROUP_NO = 'A', CARA = 'GENE_TUYAU', VALE = (0., 0., -1.,))
                             )

#-------CARACTERISTIQUES DU MATERIAUX----------------------



MAT=DEFI_MATERIAU(   ELAS=_F( E = 2.E11, NU = 0.3, RHO = 7800.,
                                ALPHA = 1.E-5)
                       )

CHMAT=AFFE_MATERIAU(   MAILLAGE=MA,
                           AFFE=_F( TOUT = 'OUI', MATER = MAT))

MASSIN=POST_ELEM(  MODELE=MO,
                         CHAM_MATER=CHMAT,   CARA_ELEM=CAREL,
                        MASS_INER=_F(  TOUT = 'OUI')
                    )

TEST_TABLE(VALE_CALC=70.572699999999998,
           TOLE_MACHINE=1.E-3,
           NOM_PARA='MASSE',
           TABLE=MASSIN,
           FILTRE=_F(NOM_PARA='LIEU',
                     VALE_K='MA',),
           )

TEST_TABLE(VALE_CALC=2.0,
           TOLE_MACHINE=1.E-3,
           NOM_PARA='CDG_X',
           TABLE=MASSIN,
           FILTRE=_F(NOM_PARA='LIEU',
                     VALE_K='MA',),
           )

TEST_TABLE(VALE_CALC=1.5,
           TOLE_MACHINE=1.E-3,
           NOM_PARA='CDG_Y',
           TABLE=MASSIN,
           FILTRE=_F(NOM_PARA='LIEU',
                     VALE_K='MA',),
           )

TEST_TABLE(CRITERE='ABSOLU',
           VALE_CALC=0.0,
           TOLE_MACHINE=1.E-3,
           NOM_PARA='CDG_Z',
           TABLE=MASSIN,
           FILTRE=_F(NOM_PARA='LIEU',
                     VALE_K='MA',),
           )

CHAR0=AFFE_CHAR_MECA(   MODELE=MO,

          DDL_IMPO=_F( GROUP_NO = 'A', DX = 0., DY = 0., DZ = 0.,
                      DRX = 0., DRY = 0., DRZ = 0.)
                      )

# FX LOCAL

CHAR1=AFFE_CHAR_MECA(   MODELE=MO,
          FORCE_NODALE=_F( GROUP_NO = 'B', FX = 4.E2, FY = 3.E2)
            )

# FY LOCAL

CHAR2=AFFE_CHAR_MECA(   MODELE=MO,
          FORCE_NODALE=_F( GROUP_NO = 'B', FX = -3.E2, FY = 4.E2)
            )

# FZ LOCAL

CHAR3=AFFE_CHAR_MECA(   MODELE=MO,
          FORCE_NODALE=_F( GROUP_NO = 'B', FZ = 5.E2)
            )

# MX LOCAL


CHAR4=AFFE_CHAR_MECA(   MODELE=MO,
           FORCE_NODALE=_F( GROUP_NO = 'B', MX = 4.E2, MY = 3.E2)
            )

# MY LOCAL


CHAR5=AFFE_CHAR_MECA(   MODELE=MO,
           FORCE_NODALE=_F( GROUP_NO = 'B', MX = -3.E2, MY = 4.E2)
            )

# MZ LOCAL


CHAR6=AFFE_CHAR_MECA(   MODELE=MO,
          FORCE_NODALE=_F( GROUP_NO = 'B', MZ = 5.E2)
            )

# PRESSION
CHAR7=AFFE_CHAR_MECA(   MODELE=MO,
                FORCE_TUYAU=_F(  TOUT = 'OUI',
                           PRES = 1.E7)
            )

# GRAVITE

CHAR8=AFFE_CHAR_MECA(   MODELE=MO,
           PESANTEUR=_F(GRAVITE=10.0,
                        DIRECTION=( 0.,  0.,  -1., ),),
          FORCE_NODALE=_F( GROUP_NO = 'B', FX = 4.E2, FY = 3.E2)
            )

# FORCE LINEIQUE

CHAR9=AFFE_CHAR_MECA(   MODELE=MO,
           FORCE_POUTRE=_F(
       GROUP_MA = 'TOUT',
 FZ = -141.146),
          FORCE_NODALE=_F( GROUP_NO = 'B', FX = 4.E2, FY = 3.E2)
            )
# FORCE LINEIQUE FONCTION

F1=DEFI_FONCTION(  NOM_PARA='X',  VALE=(-0.1, -141.146,  10.1, -141.146,),
                 PROL_GAUCHE='CONSTANT',PROL_DROITE='CONSTANT', )

F2=DEFI_FONCTION(  NOM_PARA='X',  VALE=(-0.1,  4.E2,  10.1,  4.E2,),
                 PROL_GAUCHE='CONSTANT',PROL_DROITE='CONSTANT', )

F3=DEFI_FONCTION(  NOM_PARA='X',  VALE=(-0.1, 3.E2,  10.1, 3.E2,),
                 PROL_GAUCHE='CONSTANT',PROL_DROITE='CONSTANT', )


CHAR9B=AFFE_CHAR_MECA_F(   MODELE=MO,
                           FORCE_POUTRE=_F(GROUP_MA = 'TOUT', FZ = F1),
                           FORCE_NODALE=_F( GROUP_NO = 'B', FX = F2, FY = F3)
            )

RESU=MACRO_ELAS_MULT(MODELE=MO,
                     CHAM_MATER=CHMAT,
                     CARA_ELEM=CAREL,
                     CHAR_MECA_GLOBAL=CHAR0,
                     CAS_CHARGE=(_F(NOM_CAS = 'CHARGE NUMERO 1 ',
                                    CHAR_MECA = CHAR1,
                                    SOUS_TITRE = 'FX LOCAL',),
                                 _F(NOM_CAS = 'CHARGE NUMERO 2',
                                    CHAR_MECA = CHAR2,
                                    SOUS_TITRE = 'FY LOCAL ',),
                                 _F(NOM_CAS = 'CHARGE NUMERO 3',
                                    CHAR_MECA = CHAR3,
                                    SOUS_TITRE = 'FZ LOCAL ',),
                                 _F(NOM_CAS = 'CHARGE NUMERO 4 ',
                                    CHAR_MECA = CHAR4,
                                    SOUS_TITRE = 'MX LOCAL',),
                                 _F(NOM_CAS = 'CHARGE NUMERO 5',
                                    CHAR_MECA = CHAR5,
                                    SOUS_TITRE = 'MY LOCAL ',),
                                 _F(NOM_CAS = 'CHARGE NUMERO 6',
                                    CHAR_MECA = CHAR6,
                                    SOUS_TITRE = 'MZ LOCAL ',),
                                 _F(NOM_CAS = 'CHARGE NUMERO 7',
                                    CHAR_MECA = CHAR7,
                                    SOUS_TITRE = 'PRESSION',),
                                 _F(NOM_CAS = 'CHARGE NUMERO 8',
                                    CHAR_MECA = CHAR8,
                                    SOUS_TITRE = 'GRAVITE',),
                                 _F(NOM_CAS = 'CHARGE NUMERO 9',
                                    CHAR_MECA = CHAR9,
                                    SOUS_TITRE = 'LINEIQUE',),),);

RESU=CALC_CHAMP(reuse =RESU,
                RESULTAT=RESU,
                CONTRAINTE=('EFGE_ELNO',),
                DEFORMATION=('EPSI_ELGA','DEGE_ELNO'),);

RESU=MACRO_ELAS_MULT(reuse =RESU,
                     MODELE=MO,
                     CHAM_MATER=CHMAT,
                     CARA_ELEM=CAREL,
                     CHAR_MECA_GLOBAL=CHAR0,
                     CAS_CHARGE=(_F(NOM_CAS = 'CHARGE NUMERO91',
                                    CHAR_MECA = CHAR9B,
                                    SOUS_TITRE = 'LINEIQUE',),),);

RESU=CALC_CHAMP(reuse =RESU,
                RESULTAT=RESU,
                NOM_CAS = 'CHARGE NUMERO91',
                CONTRAINTE=('EFGE_ELNO',),
                DEFORMATION=('EPSI_ELGA','DEGE_ELNO'),);

TEST_RESU(RESU=(_F(GROUP_NO='B',
                   REFERENCE='ANALYTIQUE',
                   RESULTAT=RESU,
                   NOM_CHAM='DEPL',
                   NOM_CMP='DX',
                   VALE_CALC= 5.52397822E-06,
                   VALE_REFE=5.5262100000000004E-06,
                   PRECISION=1.E-2,
                   NOM_CAS='CHARGE NUMERO 1 ',),
                _F(GROUP_NO='B',
                   REFERENCE='ANALYTIQUE',
                   RESULTAT=RESU,
                   NOM_CHAM='DEPL',
                   NOM_CMP='DY',
                   VALE_CALC= 4.14298367E-06,
                   VALE_REFE=4.1446600000000001E-06,
                   PRECISION=1.E-2,
                   NOM_CAS='CHARGE NUMERO 1 ',),
                _F(REFERENCE='ANALYTIQUE',
                   POINT=1,
                   SOUS_POINT=1,
                   RESULTAT=RESU,
                   NOM_CHAM='SIEF_ELGA',
                   NOM_CMP='SIXX',
                   VALE_CALC= 2.73108393E+05,
                   VALE_REFE=2.76311E5,
                   PRECISION=0.02,
                   MAILLE='M18',
                   NOM_CAS='CHARGE NUMERO 1 ',),
                _F(REFERENCE='ANALYTIQUE',
                   POINT=1,
                   SOUS_POINT=1,
                   RESULTAT=RESU,
                   NOM_CHAM='EPSI_ELGA',
                   NOM_CMP='EPXX',
                   VALE_CALC= 1.38112218E-06,
                   VALE_REFE=1.3815499999999999E-06,
                   PRECISION=1.E-2,
                   MAILLE='M18',
                   NOM_CAS='CHARGE NUMERO 1 ',),
                _F(REFERENCE='ANALYTIQUE',
                   POINT=1,
                   RESULTAT=RESU,
                   NOM_CHAM='EFGE_ELNO',
                   NOM_CMP='N',
                   VALE_CALC=500.679940482,
                   VALE_REFE=500.0,
                   PRECISION=1.E-2,
                   MAILLE='M18',
                   NOM_CAS='CHARGE NUMERO 1 ',),
                ),
          )

TEST_RESU(RESU=(_F(GROUP_NO='B',
                   REFERENCE='ANALYTIQUE',
                   RESULTAT=RESU,
                   NOM_CHAM='DEPL',
                   NOM_CMP='DX',
                   VALE_CALC=-0.052621258,
                   VALE_REFE=-0.052650700000000002,
                   PRECISION=1.E-2,
                   NOM_CAS='CHARGE NUMERO 2 ',),
                _F(GROUP_NO='B',
                   REFERENCE='ANALYTIQUE',
                   RESULTAT=RESU,
                   NOM_CHAM='DEPL',
                   NOM_CMP='DY',
                   VALE_CALC=0.070161678,
                   VALE_REFE=0.070200899999999997,
                   PRECISION=1.E-2,
                   NOM_CAS='CHARGE NUMERO 2 ',),
                _F(GROUP_NO='B',
                   REFERENCE='ANALYTIQUE',
                   RESULTAT=RESU,
                   NOM_CHAM='DEPL',
                   NOM_CMP='DRZ',
                   VALE_CALC=0.026314880,
                   VALE_REFE=0.026325299999999999,
                   PRECISION=1.E-2,
                   NOM_CAS='CHARGE NUMERO 2 ',),
                ),
          )

TEST_RESU(RESU=(_F(GROUP_NO='B',
                   REFERENCE='ANALYTIQUE',
                   RESULTAT=RESU,
                   NOM_CHAM='DEPL',
                   NOM_CMP='DZ',
                   VALE_CALC=0.087702097,
                   VALE_REFE=0.087751099999999999,
                   PRECISION=1.E-2,
                   NOM_CAS='CHARGE NUMERO 3 ',),
                _F(GROUP_NO='B',
                   REFERENCE='ANALYTIQUE',
                   RESULTAT=RESU,
                   NOM_CHAM='DEPL',
                   NOM_CMP='DRX',
                   VALE_CALC=0.015788928,
                   VALE_REFE=0.015795199999999999,
                   PRECISION=1.E-2,
                   NOM_CAS='CHARGE NUMERO 3 ',),
                _F(GROUP_NO='B',
                   REFERENCE='ANALYTIQUE',
                   RESULTAT=RESU,
                   NOM_CHAM='DEPL',
                   NOM_CMP='DRY',
                   VALE_CALC=-0.021051904,
                   VALE_REFE=-0.021060200000000001,
                   PRECISION=1.E-2,
                   NOM_CAS='CHARGE NUMERO 3 ',),
                ),
          )

TEST_RESU(RESU=(_F(GROUP_NO='B',
                   REFERENCE='ANALYTIQUE',
                   RESULTAT=RESU,
                   NOM_CHAM='DEPL',
                   NOM_CMP='DRX',
                   VALE_CALC=0.010951337,
                   VALE_REFE=0.01095134,
                   PRECISION=1.E-2,
                   NOM_CAS='CHARGE NUMERO 4 ',),
                _F(GROUP_NO='B',
                   REFERENCE='ANALYTIQUE',
                   RESULTAT=RESU,
                   NOM_CHAM='DEPL',
                   NOM_CMP='DRY',
                   VALE_CALC= 8.21350300E-03,
                   VALE_REFE=8.2135000000000003E-3,
                   PRECISION=0.029999999999999999,
                   NOM_CAS='CHARGE NUMERO 4 ',),
                _F(REFERENCE='ANALYTIQUE',
                   POINT=1,
                   SOUS_POINT=1,
                   RESULTAT=RESU,
                   NOM_CHAM='SIEF_ELGA',
                   NOM_CMP='SIXY',
                   VALE_CALC=-6.73928451E+06,
                   VALE_REFE=-6.750000E6,
                   PRECISION=1.E-2,
                   MAILLE='M18',
                   NOM_CAS='CHARGE NUMERO 4 ',),
                _F(REFERENCE='ANALYTIQUE',
                   POINT=1,
                   SOUS_POINT=1,
                   RESULTAT=RESU,
                   NOM_CHAM='EPSI_ELGA',
                   NOM_CMP='EPXY',
                   VALE_CALC=-8.76106987E-05,
                   VALE_REFE=-8.7700000000000004E-05,
                   PRECISION=1.E-2,
                   MAILLE='M18',
                   NOM_CAS='CHARGE NUMERO 4 ',),
                _F(REFERENCE='ANALYTIQUE',
                   POINT=3,
                   SOUS_POINT=231,
                   RESULTAT=RESU,
                   NOM_CHAM='SIEF_ELGA',
                   NOM_CMP='SIXY',
                   VALE_CALC=-8.42410564E+06,
                   VALE_REFE=-8.420000E6,
                   PRECISION=1.E-2,
                   MAILLE='M18',
                   NOM_CAS='CHARGE NUMERO 4 ',),
                _F(REFERENCE='ANALYTIQUE',
                   POINT=3,
                   SOUS_POINT=231,
                   RESULTAT=RESU,
                   NOM_CHAM='EPSI_ELGA',
                   NOM_CMP='EPXY',
                   VALE_CALC=-1.09513373E-04,
                   VALE_REFE=-1.0946E-4,
                   PRECISION=1.E-2,
                   MAILLE='M18',
                   NOM_CAS='CHARGE NUMERO 4 ',),
                _F(REFERENCE='ANALYTIQUE',
                   POINT=1,
                   RESULTAT=RESU,
                   NOM_CHAM='EFGE_ELNO',
                   NOM_CMP='MT',
                   VALE_CALC=500.000000000,
                   VALE_REFE=500.0,
                   PRECISION=1.E-2,
                   MAILLE='M18',
                   NOM_CAS='CHARGE NUMERO 4 ',),
                ),
          )

TEST_RESU(RESU=(_F(GROUP_NO='B',
                   REFERENCE='ANALYTIQUE',
                   RESULTAT=RESU,
                   NOM_CHAM='DEPL',
                   NOM_CMP='DZ',
                   VALE_CALC=-0.026314880,
                   VALE_REFE=-0.026325299999999999,
                   PRECISION=1.E-2,
                   NOM_CAS='CHARGE NUMERO 5 ',),
                _F(GROUP_NO='B',
                   REFERENCE='ANALYTIQUE',
                   RESULTAT=RESU,
                   NOM_CHAM='DEPL',
                   NOM_CMP='DRX',
                   VALE_CALC=-6.31557110E-03,
                   VALE_REFE=-6.3180800000000002E-3,
                   PRECISION=1.E-2,
                   NOM_CAS='CHARGE NUMERO 5 ',),
                _F(GROUP_NO='B',
                   REFERENCE='ANALYTIQUE',
                   RESULTAT=RESU,
                   NOM_CHAM='DEPL',
                   NOM_CMP='DRY',
                   VALE_CALC= 8.42076147E-03,
                   VALE_REFE=8.4241100000000003E-3,
                   PRECISION=1.E-2,
                   NOM_CAS='CHARGE NUMERO 5 ',),
                _F(GROUP_NO='B',
                   REFERENCE='ANALYTIQUE',
                   RESULTAT=RESU,
                   NOM_CHAM='DEPL',
                   NOM_CMP='WI1',
                   VALE_CALC= 4.05779531E-07,
                   VALE_REFE=4.094E-07,
                   PRECISION=0.02,
                   NOM_CAS='CHARGE NUMERO 5 ',),
                _F(REFERENCE='ANALYTIQUE',
                   POINT=3,
                   SOUS_POINT=17,
                   RESULTAT=RESU,
                   NOM_CHAM='SIEF_ELGA',
                   NOM_CMP='SIXX',
                   VALE_CALC= 1.33087418E+07,
                   VALE_REFE=1.3482400E7,
                   PRECISION=0.02,
                   MAILLE='M18',
                   NOM_CAS='CHARGE NUMERO 5 ',),
                _F(REFERENCE='ANALYTIQUE',
                   POINT=3,
                   SOUS_POINT=17,
                   RESULTAT=RESU,
                   NOM_CHAM='EPSI_ELGA',
                   NOM_CMP='EPXX',
                   VALE_CALC= 6.73692973E-05,
                   VALE_REFE=6.7399999999999998E-05,
                   PRECISION=1.E-2,
                   MAILLE='M18',
                   NOM_CAS='CHARGE NUMERO 5 ',),
                _F(REFERENCE='ANALYTIQUE',
                   POINT=1,
                   RESULTAT=RESU,
                   NOM_CHAM='EFGE_ELNO',
                   NOM_CMP='MFY',
                   VALE_CALC=500.617340524,
                   VALE_REFE=500.0,
                   PRECISION=1.E-2,
                   MAILLE='M18',
                   NOM_CAS='CHARGE NUMERO 5 ',),
                ),
          )

TEST_RESU(RESU=(_F(GROUP_NO='B',
                   REFERENCE='ANALYTIQUE',
                   RESULTAT=RESU,
                   NOM_CHAM='DEPL',
                   NOM_CMP='DX',
                   VALE_CALC=-0.015788928,
                   VALE_REFE=-0.015795199999999999,
                   PRECISION=1.E-2,
                   NOM_CAS='CHARGE NUMERO 6 ',),
                _F(GROUP_NO='B',
                   REFERENCE='ANALYTIQUE',
                   RESULTAT=RESU,
                   NOM_CHAM='DEPL',
                   NOM_CMP='DY',
                   VALE_CALC=0.021051904,
                   VALE_REFE=0.021060200000000001,
                   PRECISION=1.E-2,
                   NOM_CAS='CHARGE NUMERO 6 ',),
                _F(GROUP_NO='B',
                   REFERENCE='ANALYTIQUE',
                   RESULTAT=RESU,
                   NOM_CHAM='DEPL',
                   NOM_CMP='DRZ',
                   VALE_CALC=0.010525952,
                   VALE_REFE=0.010530100000000001,
                   PRECISION=1.E-2,
                   NOM_CAS='CHARGE NUMERO 6 ',),
                _F(GROUP_NO='B',
                   REFERENCE='ANALYTIQUE',
                   RESULTAT=RESU,
                   NOM_CHAM='DEPL',
                   NOM_CMP='WO1',
                   VALE_CALC=-4.05779531E-07,
                   VALE_REFE=-4.094E-07,
                   PRECISION=0.02,
                   NOM_CAS='CHARGE NUMERO 6 ',),
                _F(REFERENCE='ANALYTIQUE',
                   POINT=3,
                   SOUS_POINT=9,
                   RESULTAT=RESU,
                   NOM_CHAM='SIEF_ELGA',
                   NOM_CMP='SIXX',
                   VALE_CALC= 1.33087418E+07,
                   VALE_REFE=1.3482400E7,
                   PRECISION=0.02,
                   MAILLE='M18',
                   NOM_CAS='CHARGE NUMERO 6 ',),
                _F(REFERENCE='ANALYTIQUE',
                   POINT=3,
                   SOUS_POINT=9,
                   RESULTAT=RESU,
                   NOM_CHAM='EPSI_ELGA',
                   NOM_CMP='EPXX',
                   VALE_CALC= 6.73692973E-05,
                   VALE_REFE=6.7399999999999998E-05,
                   PRECISION=1.E-2,
                   MAILLE='M18',
                   NOM_CAS='CHARGE NUMERO 6 ',),
                _F(REFERENCE='ANALYTIQUE',
                   POINT=1,
                   RESULTAT=RESU,
                   NOM_CHAM='EFGE_ELNO',
                   NOM_CMP='MFZ',
                   VALE_CALC=500.617340525,
                   VALE_REFE=500.0,
                   PRECISION=1.E-2,
                   MAILLE='M18',
                   NOM_CAS='CHARGE NUMERO 6 ',),
                ),
          )

TEST_RESU(RESU=(_F(GROUP_NO='B',
                   REFERENCE='ANALYTIQUE',
                   RESULTAT=RESU,
                   NOM_CHAM='DEPL',
                   NOM_CMP='WO',
                   VALE_CALC= 7.15847259E-06,
                   VALE_REFE=7.3757999999999998E-06,
                   PRECISION=0.040000000000000001,
                   NOM_CAS='CHARGE NUMERO 7 ',),
                _F(REFERENCE='ANALYTIQUE',
                   POINT=1,
                   SOUS_POINT=1,
                   RESULTAT=RESU,
                   NOM_CHAM='SIEF_ELGA',
                   NOM_CMP='SIYY',
                   VALE_CALC= 4.52634194E+07,
                   VALE_REFE=4.5555600E7,
                   PRECISION=1.E-2,
                   MAILLE='M18',
                   NOM_CAS='CHARGE NUMERO 7 ',),
                _F(REFERENCE='ANALYTIQUE',
                   POINT=1,
                   SOUS_POINT=1,
                   RESULTAT=RESU,
                   NOM_CHAM='EPSI_ELGA',
                   NOM_CMP='EPYY',
                   VALE_CALC= 2.23868640E-04,
                   VALE_REFE=2.2777799999999999E-4,
                   PRECISION=0.02,
                   MAILLE='M18',
                   NOM_CAS='CHARGE NUMERO 7 ',),
                _F(REFERENCE='ANALYTIQUE',
                   POINT=3,
                   SOUS_POINT=231,
                   RESULTAT=RESU,
                   NOM_CHAM='SIEF_ELGA',
                   NOM_CMP='SIYY',
                   VALE_CALC= 3.54237675E+07,
                   VALE_REFE=3.5555600E7,
                   PRECISION=1.E-2,
                   MAILLE='M18',
                   NOM_CAS='CHARGE NUMERO 7 ',),
                _F(REFERENCE='ANALYTIQUE',
                   POINT=3,
                   SOUS_POINT=231,
                   RESULTAT=RESU,
                   NOM_CHAM='EPSI_ELGA',
                   NOM_CMP='EPYY',
                   VALE_CALC= 1.79094912E-04,
                   VALE_REFE=1.7777799999999999E-4,
                   PRECISION=1.E-2,
                   MAILLE='M18',
                   NOM_CAS='CHARGE NUMERO 7 ',),
                ),
          )

TEST_RESU(RESU=(_F(GROUP_NO='B',
                   REFERENCE='ANALYTIQUE',
                   RESULTAT=RESU,
                   NOM_CHAM='DEPL',
                   NOM_CMP='DX',
                   VALE_CALC= 5.52397804E-06,
                   VALE_REFE=5.5262100000000004E-06,
                   PRECISION=1.E-2,
                   NOM_CAS='CHARGE NUMERO 8 ',),
                _F(GROUP_NO='B',
                   REFERENCE='ANALYTIQUE',
                   RESULTAT=RESU,
                   NOM_CHAM='DEPL',
                   NOM_CMP='DY',
                   VALE_CALC= 4.14298392E-06,
                   VALE_REFE=4.1446600000000001E-06,
                   PRECISION=1.E-2,
                   NOM_CAS='CHARGE NUMERO 8 ',),
                _F(GROUP_NO='B',
                   REFERENCE='ANALYTIQUE',
                   RESULTAT=RESU,
                   NOM_CHAM='DEPL',
                   NOM_CMP='DZ',
                   VALE_CALC=-0.046417837,
                   VALE_REFE=-0.046460000000000001,
                   PRECISION=1.E-2,
                   NOM_CAS='CHARGE NUMERO 8 ',),
                _F(REFERENCE='ANALYTIQUE',
                   POINT=1,
                   RESULTAT=RESU,
                   NOM_CHAM='EFGE_ELNO',
                   NOM_CMP='N',
                   VALE_CALC=500.679940482,
                   VALE_REFE=500.0,
                   PRECISION=1.E-2,
                   MAILLE='M18',
                   NOM_CAS='CHARGE NUMERO 8 ',),
                _F(REFERENCE='ANALYTIQUE',
                   POINT=1,
                   RESULTAT=RESU,
                   NOM_CHAM='EFGE_ELNO',
                   NOM_CMP='MFY',
                   VALE_CALC= 1.72770644E+03,
                   VALE_REFE=1764.3,
                   PRECISION=0.029999999999999999,
                   MAILLE='M1',
                   NOM_CAS='CHARGE NUMERO 8 ',),
                ),
          )

TEST_RESU(RESU=(_F(GROUP_NO='B',
                   REFERENCE='ANALYTIQUE',
                   RESULTAT=RESU,
                   NOM_CHAM='DEPL',
                   NOM_CMP='DX',
                   VALE_CALC= 5.52397804E-06,
                   VALE_REFE=5.5262100000000004E-06,
                   PRECISION=1.E-2,
                   NOM_CAS='CHARGE NUMERO 9 ',),
                _F(GROUP_NO='B',
                   REFERENCE='ANALYTIQUE',
                   RESULTAT=RESU,
                   NOM_CHAM='DEPL',
                   NOM_CMP='DY',
                   VALE_CALC= 4.14298392E-06,
                   VALE_REFE=4.1446600000000001E-06,
                   PRECISION=1.E-2,
                   NOM_CAS='CHARGE NUMERO 9 ',),
                _F(GROUP_NO='B',
                   REFERENCE='ANALYTIQUE',
                   RESULTAT=RESU,
                   NOM_CHAM='DEPL',
                   NOM_CMP='DZ',
                   VALE_CALC=-0.046418010,
                   VALE_REFE=-0.046460000000000001,
                   PRECISION=1.E-2,
                   NOM_CAS='CHARGE NUMERO 9 ',),
                _F(REFERENCE='ANALYTIQUE',
                   POINT=1,
                   RESULTAT=RESU,
                   NOM_CHAM='EFGE_ELNO',
                   NOM_CMP='N',
                   VALE_CALC=500.679940482,
                   VALE_REFE=500.0,
                   PRECISION=1.E-2,
                   MAILLE='M18',
                   NOM_CAS='CHARGE NUMERO 9 ',),
                _F(REFERENCE='ANALYTIQUE',
                   POINT=1,
                   RESULTAT=RESU,
                   NOM_CHAM='EFGE_ELNO',
                   NOM_CMP='MFY',
                   VALE_CALC= 1.72771287E+03,
                   VALE_REFE=1764.3,
                   PRECISION=0.029999999999999999,
                   MAILLE='M1',
                   NOM_CAS='CHARGE NUMERO 9 ',),
                ),
          )

TEST_RESU(RESU=(_F(GROUP_NO='B',
                   REFERENCE='ANALYTIQUE',
                   RESULTAT=RESU,
                   NOM_CHAM='DEPL',
                   NOM_CMP='DX',
                   VALE_CALC= 5.52397804E-06,
                   VALE_REFE=5.5262100000000004E-06,
                   PRECISION=1.E-2,
                   NOM_CAS='CHARGE NUMERO91',),
                _F(GROUP_NO='B',
                   REFERENCE='ANALYTIQUE',
                   RESULTAT=RESU,
                   NOM_CHAM='DEPL',
                   NOM_CMP='DY',
                   VALE_CALC= 4.14298392E-06,
                   VALE_REFE=4.1446600000000001E-06,
                   PRECISION=1.E-2,
                   NOM_CAS='CHARGE NUMERO91',),
                _F(GROUP_NO='B',
                   REFERENCE='ANALYTIQUE',
                   RESULTAT=RESU,
                   NOM_CHAM='DEPL',
                   NOM_CMP='DZ',
                   VALE_CALC=-0.046418010,
                   VALE_REFE=-0.046460000000000001,
                   PRECISION=1.E-2,
                   NOM_CAS='CHARGE NUMERO91',),
                _F(REFERENCE='ANALYTIQUE',
                   POINT=1,
                   RESULTAT=RESU,
                   NOM_CHAM='EFGE_ELNO',
                   NOM_CMP='N',
                   VALE_CALC=500.679940482,
                   VALE_REFE=500.0,
                   PRECISION=1.E-2,
                   MAILLE='M18',
                   NOM_CAS='CHARGE NUMERO91',),
                _F(REFERENCE='ANALYTIQUE',
                   POINT=1,
                   RESULTAT=RESU,
                   NOM_CHAM='EFGE_ELNO',
                   NOM_CMP='MFY',
                   VALE_CALC= 1.72771287E+03,
                   VALE_REFE=1764.3,
                   PRECISION=0.029999999999999999,
                   MAILLE='M1',
                   NOM_CAS='CHARGE NUMERO91',),
                ),
          )

# Solutions analytiques pour les deformations generalisees de poutre DEGE_ELNO
L=5.0
E=2.E11
Nu=0.3
G=E/2/(1.0+Nu)
REXT=0.04
EP=0.008
import math
PI=math.pi
IF=PI*(REXT**4-(REXT-EP)**4)/4
JX=2.0*IF
SU=PI*(REXT**2-(REXT-EP)**2)
print 'SU, IF =',SU,IF

# Solution analytique chargement 1 Fx local = 500
EPXX=500./E/SU
# Solution analytique chargement 2 Fy local = 500
GAXY=500./G/SU
KZF=500*L/E/IF
# Solution analytique chargement 3 Fz local = 500
GAXZ=500./G/SU
KYF=-500*L/E/IF
# Solution analytique chargement 4 Mx local = 500
GAT=500/G/JX
# Solution analytique chargement 2 My local = 500
KYM=500/E/IF
# Solution analytique chargement 3 Mz local = 500
KZM=500/E/IF

TEST_RESU(RESU=(_F(REFERENCE='ANALYTIQUE',
                   RESULTAT=RESU,
                   NOM_CHAM='DEGE_ELNO',
                   NOEUD='N1',
                   NOM_CMP='EPXX',
                   VALE_CALC= 1.38099456E-06,
                   VALE_REFE=1.3815533254504801E-06,
                   PRECISION=1.E-2,
                   MAILLE='M1',
                   NOM_CAS='CHARGE NUMERO 1 ',),
                _F(REFERENCE='ANALYTIQUE',
                   RESULTAT=RESU,
                   NOM_CHAM='DEGE_ELNO',
                   NOEUD='N1',
                   NOM_CMP='GAXY',
                   VALE_CALC= 4.74152701E-06,
                   VALE_REFE=3.5920386461712483E-06,
                   PRECISION=0.33000000000000002,
                   MAILLE='M1',
                   NOM_CAS='CHARGE NUMERO 2 ',),
                _F(REFERENCE='ANALYTIQUE',
                   RESULTAT=RESU,
                   NOM_CHAM='DEGE_ELNO',
                   NOEUD='N1',
                   NOM_CMP='GAXZ',
                   VALE_CALC= 4.74152701E-06,
                   VALE_REFE=3.5920386461712483E-06,
                   PRECISION=0.33000000000000002,
                   MAILLE='M1',
                   NOM_CAS='CHARGE NUMERO 3 ',),
                _F(REFERENCE='ANALYTIQUE',
                   RESULTAT=RESU,
                   NOM_CHAM='DEGE_ELNO',
                   NOEUD='N1',
                   NOM_CMP='KZ',
                   VALE_CALC=0.010399278,
                   VALE_REFE=0.010530132053738418,
                   PRECISION=0.012999999999999999,
                   MAILLE='M1',
                   NOM_CAS='CHARGE NUMERO 2 ',),
                _F(REFERENCE='ANALYTIQUE',
                   RESULTAT=RESU,
                   NOM_CHAM='DEGE_ELNO',
                   NOEUD='N1',
                   NOM_CMP='KY',
                   VALE_CALC=-0.010399278,
                   VALE_REFE=-0.010530132053738418,
                   PRECISION=0.012999999999999999,
                   MAILLE='M1',
                   NOM_CAS='CHARGE NUMERO 3 ',),
                _F(REFERENCE='ANALYTIQUE',
                   RESULTAT=RESU,
                   NOM_CHAM='DEGE_ELNO',
                   NOEUD='N1',
                   NOM_CMP='GAT',
                   VALE_CALC= 2.73783433E-03,
                   VALE_REFE=2.7378343339719891E-3,
                   PRECISION=1.E-2,
                   MAILLE='M1',
                   NOM_CAS='CHARGE NUMERO 4 ',),
                _F(REFERENCE='ANALYTIQUE',
                   RESULTAT=RESU,
                   NOM_CHAM='DEGE_ELNO',
                   NOEUD='N1',
                   NOM_CMP='KY',
                   VALE_CALC= 2.10519037E-03,
                   VALE_REFE=2.1060264107476837E-3,
                   PRECISION=1.E-2,
                   MAILLE='M1',
                   NOM_CAS='CHARGE NUMERO 5 ',),
                _F(REFERENCE='ANALYTIQUE',
                   RESULTAT=RESU,
                   NOM_CHAM='DEGE_ELNO',
                   NOEUD='N1',
                   NOM_CMP='KZ',
                   VALE_CALC= 2.10519037E-03,
                   VALE_REFE=2.1060264107476837E-3,
                   PRECISION=1.E-2,
                   MAILLE='M1',
                   NOM_CAS='CHARGE NUMERO 6 ',),
                ),
          )

# DILATATION THERMIQUE
TEMP=CREA_CHAMP( OPERATION='AFFE', TYPE_CHAM='NOEU_TEMP_R', MAILLAGE=MA,
              AFFE=_F(  TOUT = 'OUI',
                     NOM_CMP = 'TEMP',
                     VALE = 200.,))

TEMPER=CREA_RESU(
               OPERATION='AFFE', TYPE_RESU='EVOL_THER',
                NOM_CHAM='TEMP',
                 AFFE=_F(
               INST = 0.0,
               CHAM_GD = TEMP)
             )


CHMAT1=AFFE_MATERIAU(   MAILLAGE=MA,
                           AFFE=_F( TOUT = 'OUI', MATER = MAT),
                      AFFE_VARC=  _F(TOUT='OUI',EVOL=TEMPER,
                      NOM_VARC='TEMP',NOM_CHAM='TEMP',VALE_REF=0.0),)


REST=MECA_STATIQUE(             MODELE=MO,
                                 CHAM_MATER=CHMAT1,
                                  CARA_ELEM=CAREL,EXCIT=(
                           _F(  CHARGE = CHAR0),),

                        )

REST=CALC_CHAMP(reuse= REST,
                RESULTAT= REST ,
                DEFORMATION=('EPSI_ELGA',),
                CONTRAINTE=('EFGE_ELNO',),);

REST=CALC_CHAMP(reuse=REST,
                FORCE='FORC_NODA',
                RESULTAT=REST,);

TEST_RESU(RESU=(_F(GROUP_NO='B',
                   INST=0.0,
                   REFERENCE='ANALYTIQUE',
                   RESULTAT=REST,
                   NOM_CHAM='DEPL',
                   NOM_CMP='DX',
                   VALE_CALC= 8.01087657E-03,
                   VALE_REFE=8.0000000000000002E-3,
                   PRECISION=1.E-2,),
                _F(GROUP_NO='B',
                   INST=0.0,
                   REFERENCE='ANALYTIQUE',
                   RESULTAT=REST,
                   NOM_CHAM='DEPL',
                   NOM_CMP='DY',
                   VALE_CALC= 6.00815743E-03,
                   VALE_REFE=6.0000000000000001E-3,
                   PRECISION=1.E-2,),
                _F(GROUP_NO='B',
                   INST=0.0,
                   REFERENCE='ANALYTIQUE',
                   RESULTAT=REST,
                   NOM_CHAM='FORC_NODA',
                   NOM_CMP='DX',
                   VALE_CALC=-6.02516006E-08,
                   VALE_REFE=0.0,
                   CRITERE='ABSOLU',),
                _F(GROUP_NO='B',
                   INST=0.0,
                   REFERENCE='ANALYTIQUE',
                   RESULTAT=REST,
                   NOM_CHAM='FORC_NODA',
                   NOM_CMP='DY',
                   VALE_CALC=-4.05091912E-08,
                   VALE_REFE=0.0,
                   CRITERE='ABSOLU',),
                _F(GROUP_NO='B',
                   INST=0.0,
                   REFERENCE='ANALYTIQUE',
                   RESULTAT=REST,
                   NOM_CHAM='FORC_NODA',
                   NOM_CMP='DZ',
                   VALE_CALC= 8.07125965E-21,
                   VALE_REFE=0.0,
                   CRITERE='ABSOLU',),
                _F(GROUP_NO='B',
                   INST=0.0,
                   REFERENCE='ANALYTIQUE',
                   RESULTAT=REST,
                   NOM_CHAM='FORC_NODA',
                   NOM_CMP='DRX',
                   VALE_CALC= 1.84877114E-11,
                   VALE_REFE=0.0,
                   CRITERE='ABSOLU',),
                _F(GROUP_NO='B',
                   INST=0.0,
                   REFERENCE='ANALYTIQUE',
                   RESULTAT=REST,
                   NOM_CHAM='FORC_NODA',
                   NOM_CMP='DRY',
                   VALE_CALC=-2.46502818E-11,
                   VALE_REFE=0.0,
                   CRITERE='ABSOLU',),
                _F(GROUP_NO='B',
                   INST=0.0,
                   REFERENCE='ANALYTIQUE',
                   RESULTAT=REST,
                   NOM_CHAM='FORC_NODA',
                   NOM_CMP='DRZ',
                   VALE_CALC= 7.01079041E-11,
                   VALE_REFE=0.0,
                   CRITERE='ABSOLU',),
                _F(INST=0.0,
                   REFERENCE='ANALYTIQUE',
                   POINT=1,
                   SOUS_POINT=120,
                   RESULTAT=REST,
                   NOM_CHAM='EPSI_ELGA',
                   NOM_CMP='EPXX',
                   VALE_CALC= 2.00271914E-03,
                   VALE_REFE=2.E-3,
                   PRECISION=1.E-2,
                   MAILLE='M18',),
                _F(INST=0.0,
                   REFERENCE='ANALYTIQUE',
                   POINT=1,
                   SOUS_POINT=120,
                   RESULTAT=REST,
                   NOM_CHAM='EPSI_ELGA',
                   NOM_CMP='EPYY',
                   VALE_CALC= 1.98994347E-03,
                   VALE_REFE=2.E-3,
                   PRECISION=1.E-2,
                   MAILLE='M18',),
                ),
          )

# CALCUL MODAL


RIGI=CALC_MATR_ELEM(
                      MODELE=MO,
                      CHARGE=(CHAR0,),
                      CARA_ELEM=CAREL,
                      CHAM_MATER=CHMAT,
                      OPTION='RIGI_MECA'
                      )

NUM=NUME_DDL(  MATR_RIGI=RIGI )

ASSEMBLAGE(
                     MODELE=MO,
                      CARA_ELEM=CAREL,
                      CHARGE=(CHAR0,),
                      CHAM_MATER=CHMAT,
                      NUME_DDL=NUM,
                             SOLVEUR=_F(  METHODE = 'LDLT'),MATR_ASSE=(
                _F(  MATRICE = CO("MATASSR1"),  OPTION = 'RIGI_MECA'),
                          _F(  MATRICE = CO("MATASSM1"),  OPTION = 'MASS_MECA'))
                   )

MODES=MODE_ITER_SIMULT(
              MATR_RIGI=MATASSR1,
              MATR_MASS=MATASSM1,
             CALC_FREQ=_F(
                  NMAX_FREQ = 14,
                  OPTION = 'CENTRE', FREQ = 1.)
                        )

TEST_RESU(RESU=(_F(NUME_ORDRE=1,
                   PARA='FREQ',
                   REFERENCE='ANALYTIQUE',
                   RESULTAT=MODES,
                   VALE_CALC=2.903786618,
                   VALE_REFE=2.9022899999999998,
                   CRITERE='RELATIF',
                   PRECISION=5.0000000000000001E-3,),
                _F(NUME_ORDRE=2,
                   PARA='FREQ',
                   REFERENCE='ANALYTIQUE',
                   RESULTAT=MODES,
                   VALE_CALC=2.903786620,
                   VALE_REFE=2.9022899999999998,
                   CRITERE='RELATIF',
                   PRECISION=5.0000000000000001E-3,),
                _F(NUME_ORDRE=3,
                   PARA='FREQ',
                   REFERENCE='ANALYTIQUE',
                   RESULTAT=MODES,
                   VALE_CALC=18.204687061,
                   VALE_REFE=18.18967,
                   CRITERE='RELATIF',
                   PRECISION=5.0000000000000001E-3,),
                _F(NUME_ORDRE=4,
                   PARA='FREQ',
                   REFERENCE='ANALYTIQUE',
                   RESULTAT=MODES,
                   VALE_CALC=18.204687061,
                   VALE_REFE=18.18967,
                   CRITERE='RELATIF',
                   PRECISION=5.0000000000000001E-3,),
                _F(NUME_ORDRE=5,
                   PARA='FREQ',
                   REFERENCE='ANALYTIQUE',
                   RESULTAT=MODES,
                   VALE_CALC=51.005953838,
                   VALE_REFE=50.993673000000001,
                   CRITERE='RELATIF',
                   PRECISION=5.0000000000000001E-3,),
                _F(NUME_ORDRE=6,
                   PARA='FREQ',
                   REFERENCE='ANALYTIQUE',
                   RESULTAT=MODES,
                   VALE_CALC=51.005953838,
                   VALE_REFE=50.993673000000001,
                   CRITERE='RELATIF',
                   PRECISION=5.0000000000000001E-3,),
                _F(NUME_ORDRE=7,
                   PARA='FREQ',
                   REFERENCE='ANALYTIQUE',
                   RESULTAT=MODES,
                   VALE_CALC=100.047875252,
                   VALE_REFE=99.817830000000001,
                   CRITERE='RELATIF',
                   PRECISION=5.0000000000000001E-3,),
                _F(NUME_ORDRE=8,
                   PARA='FREQ',
                   REFERENCE='ANALYTIQUE',
                   RESULTAT=MODES,
                   VALE_CALC=100.047875252,
                   VALE_REFE=99.817830000000001,
                   CRITERE='RELATIF',
                   PRECISION=5.0000000000000001E-3,),
                _F(NUME_ORDRE=9,
                   PARA='FREQ',
                   REFERENCE='ANALYTIQUE',
                   RESULTAT=MODES,
                   VALE_CALC=157.018579577,
                   VALE_REFE=157.01900000000001,
                   CRITERE='RELATIF',
                   PRECISION=5.0000000000000001E-3,),
                _F(NUME_ORDRE=10,
                   PARA='FREQ',
                   REFERENCE='ANALYTIQUE',
                   RESULTAT=MODES,
                   VALE_CALC=165.606589481,
                   VALE_REFE=164.9922,
                   CRITERE='RELATIF',
                   PRECISION=5.0000000000000001E-3,),
                _F(NUME_ORDRE=11,
                   PARA='FREQ',
                   REFERENCE='ANALYTIQUE',
                   RESULTAT=MODES,
                   VALE_CALC=165.606589481,
                   VALE_REFE=164.9922,
                   CRITERE='RELATIF',
                   PRECISION=5.0000000000000001E-3,),
                _F(NUME_ORDRE=12,
                   PARA='FREQ',
                   REFERENCE='ANALYTIQUE',
                   RESULTAT=MODES,
                   VALE_CALC=247.823550544,
                   VALE_REFE=253.185,
                   CRITERE='RELATIF',
                   PRECISION=0.029999999999999999,),
                ),
          )

FIN()
