# MODIF  DATE 07/10/2005   AUTEUR CIBHHPD L.SALMONA 
# RESPONSABLE JMBHH01 J.M.PROIX
# TITRE TUBE DROIT SOUMIS A PLUSIEURS CHARGEMENTS (ELEMENT TUYAU_6M STAT_ NON_LINE)
#            CONFIGURATION MANAGEMENT OF EDF VERSION
# ======================================================================
# COPYRIGHT (C) 1991 - 2001  EDF R&D                  WWW.CODE-ASTER.ORG
# THIS PROGRAM IS FREE SOFTWARE; YOU CAN REDISTRIBUTE IT AND/OR MODIFY
# IT UNDER THE TERMS OF THE GNU GENERAL PUBLIC LICENSE AS PUBLISHED BY
# THE FREE SOFTWARE FOUNDATION; EITHER VERSION 2 OF THE LICENSE, OR   
# (AT YOUR OPTION) ANY LATER VERSION.                                 
#
# THIS PROGRAM IS DISTRIBUTED IN THE HOPE THAT IT WILL BE USEFUL, BUT 
# WITHOUT ANY WARRANTY; WITHOUT EVEN THE IMPLIED WARRANTY OF          
# MERCHANTABILITY OR FITNESS FOR A PARTICULAR PURPOSE. SEE THE GNU    
# GENERAL PUBLIC LICENSE FOR MORE DETAILS.                            
#
# YOU SHOULD HAVE RECEIVED A COPY OF THE GNU GENERAL PUBLIC LICENSE   
# ALONG WITH THIS PROGRAM; IF NOT, WRITE TO EDF R&D CODE_ASTER,       
#    1 AVENUE DU GENERAL DE GAULLE, 92141 CLAMART CEDEX, FRANCE.      
# ======================================================================

DEBUT(CODE=_F(  NOM = 'SSLL106D',NIV_PUB_WEB='INTERNET', VISU_EFICAS='NON'))

#PRE_GIBI () ;

MA=LIRE_MAILLAGE( )

MA=DEFI_GROUP( reuse=MA,   MAILLAGE=MA,
  CREA_GROUP_MA=_F(  NOM = 'TOUT', TOUT = 'OUI'))

MO=AFFE_MODELE(        MAILLAGE=MA,
     AFFE=_F( TOUT = 'OUI', PHENOMENE = 'MECANIQUE', MODELISATION = 'TUYAU_6M')
                        )

#------CARACTERISTIQUES ELEMENTAIRES----------------------


CAREL=AFFE_CARA_ELEM(   MODELE=MO,
                 VERIF='MAILLE',
                 POUTRE=_F(
       GROUP_MA = 'TOUT',
 SECTION = 'CERCLE',
                 MODI_METRIQUE = 'OUI',
                 CARA = ('R', 'EP',),
                 VALE = (0.04, 0.008,)),
 ORIENTATION=_F( GROUP_NO = 'A', CARA = 'GENE_TUYAU', VALE = (0., 0., -1.,))
                             )

#-------CARACTERISTIQUES DU MATERIAUX----------------------



MAT=DEFI_MATERIAU(   ELAS=_F( E = 2.E11, NU = 0.3, RHO = 7800.),
            ECRO_LINE=_F(  D_SIGM_EPSI = 2.E+9,    SY = 2.7E+15))

CHMAT=AFFE_MATERIAU(   MAILLAGE=MA,
                           AFFE=_F( TOUT = 'OUI', MATER = MAT))

CHAR0=AFFE_CHAR_MECA(   MODELE=MO,

          DDL_IMPO=_F( GROUP_NO = 'A', DX = 0., DY = 0., DZ = 0.,
                      DRX = 0., DRY = 0., DRZ = 0.)
                      )

# FX LOCAL


CHAR1=AFFE_CHAR_MECA(   MODELE=MO,
          FORCE_NODALE=_F( GROUP_NO = 'B', FX = 4.E2, FY = 3.E2)
            )

# FY LOCAL

CHAR2=AFFE_CHAR_MECA(   MODELE=MO,
          FORCE_NODALE=_F( GROUP_NO = 'B', FX = -3.E2, FY = 4.E2)
            )

# FZ LOCAL

CHAR3=AFFE_CHAR_MECA(   MODELE=MO,
          FORCE_NODALE=_F( GROUP_NO = 'B', FZ = 5.E2)
            )

# MX LOCAL


CHAR4=AFFE_CHAR_MECA(   MODELE=MO,
           FORCE_NODALE=_F( GROUP_NO = 'B', MX = 4.E2, MY = 3.E2)
            )

# MY LOCAL


CHAR5=AFFE_CHAR_MECA(   MODELE=MO,
           FORCE_NODALE=_F( GROUP_NO = 'B', MX = -3.E2, MY = 4.E2)
            )

# MZ LOCAL


CHAR6=AFFE_CHAR_MECA(   MODELE=MO,
          FORCE_NODALE=_F( GROUP_NO = 'B', MZ = 5.E2)
            )

CHAR7=AFFE_CHAR_MECA(   MODELE=MO,
                FORCE_TUYAU=_F(  TOUT = 'OUI',
                           PRES = 1.E7)
            )

RAMPE=DEFI_FONCTION(  NOM_PARA='INST',
            PROL_GAUCHE='LINEAIRE', PROL_DROITE='LINEAIRE',
            VALE=(0.0,0.0,1.0,1.0,) )

L_INST=DEFI_LIST_REEL(  DEBUT=0.0,
                INTERVALLE=_F( JUSQU_A = 1.,   NOMBRE = 2) )

U1=STAT_NON_LINE(
                            MODELE=MO,
                        CHAM_MATER=CHMAT,
                         CARA_ELEM=CAREL,EXCIT=(
                             _F(
                CHARGE = CHAR0), _F(
                CHARGE = CHAR1,
                FONC_MULT = RAMPE)),
                         COMP_INCR=_F(  RELATION = 'ELAS', ),
                         INCREMENT=_F(
                LIST_INST = L_INST,
                NUME_INST_FIN = 2),
                            NEWTON=_F(
                MATRICE = 'TANGENTE',
                REAC_ITER = 1),
                       CONVERGENCE=_F(
                RESI_GLOB_RELA = 1.E-6,
                ITER_GLOB_MAXI = 10),
                     RECH_LINEAIRE=_F(
                ITER_LINE_MAXI = 3,
                RESI_LINE_RELA = 1.E-5)
              )

U1=CALC_ELEM( reuse=U1,
                            OPTION=(
                  'SIEF_ELNO_ELGA',  'VARI_ELNO_ELGA','DEGE_ELNO_DEPL',),
                          RESULTAT=U1,
              )

U2=STAT_NON_LINE(
                            MODELE=MO,
                        CHAM_MATER=CHMAT,
                         CARA_ELEM=CAREL,EXCIT=(
                             _F(
                CHARGE = CHAR0), _F(
                CHARGE = CHAR2,
                FONC_MULT = RAMPE)),
                         COMP_INCR=_F(  RELATION = 'ELAS', ),
                         INCREMENT=_F(
                LIST_INST = L_INST,
                NUME_INST_FIN = 2),
                            NEWTON=_F(
                MATRICE = 'TANGENTE',
                REAC_ITER = 1),
                       CONVERGENCE=_F(
                RESI_GLOB_RELA = 1.E-6,
                ITER_GLOB_MAXI = 10),
                     RECH_LINEAIRE=_F(
                ITER_LINE_MAXI = 3,
                RESI_LINE_RELA = 1.E-5)
              )

U2=CALC_ELEM( reuse=U2,
                            OPTION=(
                  'SIEF_ELNO_ELGA',  'VARI_ELNO_ELGA','DEGE_ELNO_DEPL',),
                          RESULTAT=U2,
              )

U3=STAT_NON_LINE(
                            MODELE=MO,
                        CHAM_MATER=CHMAT,
                         CARA_ELEM=CAREL,EXCIT=(
                             _F(
                CHARGE = CHAR0), _F(
                CHARGE = CHAR3,
                FONC_MULT = RAMPE)),
                         COMP_INCR=_F( RELATION = 'ELAS', ),
                         INCREMENT=_F(
                LIST_INST = L_INST,
                NUME_INST_FIN = 2),
                            NEWTON=_F(
                MATRICE = 'TANGENTE',
                REAC_ITER = 1),
                       CONVERGENCE=_F(
                RESI_GLOB_RELA = 1.E-6,
                ITER_GLOB_MAXI = 10),
                     RECH_LINEAIRE=_F(
                ITER_LINE_MAXI = 3,
                RESI_LINE_RELA = 1.E-5)
              )

U3=CALC_ELEM( reuse=U3,
                            OPTION=(
                  'SIEF_ELNO_ELGA',  'VARI_ELNO_ELGA','DEGE_ELNO_DEPL',),
                          RESULTAT=U3,
              )

U4=STAT_NON_LINE(
                            MODELE=MO,
                        CHAM_MATER=CHMAT,
                         CARA_ELEM=CAREL,EXCIT=(
                             _F(
                CHARGE = CHAR0), _F(
                CHARGE = CHAR4,
                FONC_MULT = RAMPE)),
                         COMP_INCR=_F( RELATION = 'ELAS'),
                         INCREMENT=_F(
                LIST_INST = L_INST,
                NUME_INST_FIN = 2),
                            NEWTON=_F(
                MATRICE = 'TANGENTE',
                REAC_ITER = 1),
                       CONVERGENCE=_F(
                RESI_GLOB_RELA = 1.E-6,
                ITER_GLOB_MAXI = 10),
                     RECH_LINEAIRE=_F(
                ITER_LINE_MAXI = 3,
                RESI_LINE_RELA = 1.E-5)
              )

U4=CALC_ELEM( reuse=U4,
                            OPTION=(
                  'SIEF_ELNO_ELGA',  'VARI_ELNO_ELGA','DEGE_ELNO_DEPL',),
                          RESULTAT=U4,
              )

U5=STAT_NON_LINE(
                            MODELE=MO,
                        CHAM_MATER=CHMAT,
                         CARA_ELEM=CAREL,EXCIT=(
                             _F(
                CHARGE = CHAR0), _F(
                CHARGE = CHAR5,
                FONC_MULT = RAMPE)),
                         COMP_INCR=_F(  RELATION = 'ELAS', ),
                         INCREMENT=_F(
                LIST_INST = L_INST,
                NUME_INST_FIN = 2),
                            NEWTON=_F(
                MATRICE = 'TANGENTE',
                REAC_ITER = 1),
                       CONVERGENCE=_F(
                RESI_GLOB_RELA = 1.E-6,
                ITER_GLOB_MAXI = 10),
                     RECH_LINEAIRE=_F(
                ITER_LINE_MAXI = 3,
                RESI_LINE_RELA = 1.E-5)
              )

U5=CALC_ELEM( reuse=U5,
                            OPTION=(
                  'SIEF_ELNO_ELGA',  'VARI_ELNO_ELGA','DEGE_ELNO_DEPL',),
                          RESULTAT=U5,
              )

U6=STAT_NON_LINE(
                            MODELE=MO,
                        CHAM_MATER=CHMAT,
                         CARA_ELEM=CAREL,EXCIT=(
                             _F(
                CHARGE = CHAR0), _F(
                CHARGE = CHAR6,
                FONC_MULT = RAMPE)),
                         COMP_INCR=_F( RELATION = 'ELAS', ),
                         INCREMENT=_F(
                LIST_INST = L_INST,
                NUME_INST_FIN = 2),
                            NEWTON=_F(
                MATRICE = 'TANGENTE',
                REAC_ITER = 1),
                       CONVERGENCE=_F(
                RESI_GLOB_RELA = 1.E-6,
                ITER_GLOB_MAXI = 10),
                     RECH_LINEAIRE=_F(
                ITER_LINE_MAXI = 3,
                RESI_LINE_RELA = 1.E-5)
              )

U6=CALC_ELEM( reuse=U6,
                            OPTION=(
                  'SIEF_ELNO_ELGA',  'VARI_ELNO_ELGA','DEGE_ELNO_DEPL',),
                          RESULTAT=U6,
              )

U7=STAT_NON_LINE(
                            MODELE=MO,
                        CHAM_MATER=CHMAT,
                         CARA_ELEM=CAREL,EXCIT=(
                             _F(
                CHARGE = CHAR0), _F(
                CHARGE = CHAR7,
                FONC_MULT = RAMPE)),
                         COMP_INCR=_F( RELATION = 'ELAS', ),
                         INCREMENT=_F(
                LIST_INST = L_INST,
                NUME_INST_FIN = 2),
                            NEWTON=_F(
                MATRICE = 'TANGENTE',
                REAC_ITER = 1),
                       CONVERGENCE=_F(
                RESI_GLOB_RELA = 1.E-6,
                ITER_GLOB_MAXI = 10),
                     RECH_LINEAIRE=_F(
                ITER_LINE_MAXI = 3,
                RESI_LINE_RELA = 1.E-5)
              )

U7=CALC_ELEM( reuse=U7,
                            OPTION=(
                  'SIEF_ELNO_ELGA',  'VARI_ELNO_ELGA',),
                          RESULTAT=U7,
              )

TEST_RESU(RESU=(

_F( RESULTAT = U1, NUME_ORDRE = 2,
      NOM_CHAM = 'DEPL', GROUP_NO = 'B',
                 REFERENCE = 'ANALYTIQUE',
      NOM_CMP = 'DX', VALE = 5.52621E-6, PRECISION = 0.01),

_F( RESULTAT = U1, NUME_ORDRE = 2,
      NOM_CHAM = 'DEPL', GROUP_NO = 'B',
                 REFERENCE = 'ANALYTIQUE',
      NOM_CMP = 'DY', VALE = 4.14466E-6, PRECISION = 0.01),

_F( RESULTAT = U1, NUME_ORDRE = 2,
      NOM_CHAM = 'SIEF_ELNO_ELGA', MAILLE = 'M18', POINT = 1,
                 REFERENCE = 'ANALYTIQUE',
      NOM_CMP = 'N', VALE = 500., PRECISION = 0.01),

_F( RESULTAT = U1, NUME_ORDRE = 2,
      NOM_CHAM = 'SIEF_ELGA', MAILLE = 'M18', POINT = 1,
                 REFERENCE = 'ANALYTIQUE',
      NOM_CMP = 'SIXX', VALE = 2.76311E5, PRECISION = 0.02))

      )

TEST_RESU(RESU=(

_F( RESULTAT = U2,  NUME_ORDRE = 2,
                 REFERENCE = 'ANALYTIQUE',
      NOM_CHAM = 'DEPL', GROUP_NO = 'B',
      NOM_CMP = 'DX', VALE = -5.26507E-2, PRECISION = 0.01),

_F( RESULTAT = U2,  NUME_ORDRE = 2,
                 REFERENCE = 'ANALYTIQUE',
      NOM_CHAM = 'DEPL', GROUP_NO = 'B',
      NOM_CMP = 'DY', VALE = 7.02009E-2, PRECISION = 0.01),

_F( RESULTAT = U2,  NUME_ORDRE = 2,
                 REFERENCE = 'ANALYTIQUE',
      NOM_CHAM = 'DEPL', GROUP_NO = 'B',
      NOM_CMP = 'DRZ', VALE = 2.63253E-2, PRECISION = 0.01))

      )

TEST_RESU(RESU=(

_F( RESULTAT = U3,  NUME_ORDRE = 2,
      NOM_CHAM = 'DEPL', GROUP_NO = 'B',
                 REFERENCE = 'ANALYTIQUE',
      NOM_CMP = 'DZ', VALE = 8.77511E-2, PRECISION = 0.01),

_F( RESULTAT = U3,  NUME_ORDRE = 2,
      NOM_CHAM = 'DEPL', GROUP_NO = 'B',
                 REFERENCE = 'ANALYTIQUE',
      NOM_CMP = 'DRX', VALE = 1.57952E-2,  PRECISION = 0.01),

_F( RESULTAT = U3,  NUME_ORDRE = 2,
      NOM_CHAM = 'DEPL', GROUP_NO = 'B',
                 REFERENCE = 'ANALYTIQUE',
      NOM_CMP = 'DRY', VALE = -2.10602E-2, PRECISION = 0.01))

            )

TEST_RESU(RESU=(

_F( RESULTAT = U4,  NUME_ORDRE = 2,
      NOM_CHAM = 'DEPL', GROUP_NO = 'B',
                 REFERENCE = 'ANALYTIQUE',
      NOM_CMP = 'DRX', VALE = 10.95134E-3,  PRECISION = 0.01),

_F( RESULTAT = U4,  NUME_ORDRE = 2,
      NOM_CHAM = 'DEPL', GROUP_NO = 'B',
                 REFERENCE = 'ANALYTIQUE',
      NOM_CMP = 'DRY', VALE = 8.21350E-3, PRECISION = 0.01),

_F( RESULTAT = U4, NUME_ORDRE = 2,
      NOM_CHAM = 'SIEF_ELNO_ELGA', MAILLE = 'M18', POINT = 1,
                 REFERENCE = 'ANALYTIQUE',
      NOM_CMP = 'MT', VALE = 500., PRECISION = 0.01),

_F( RESULTAT = U4, NUME_ORDRE = 2,
      NOM_CHAM = 'SIEF_ELGA', MAILLE = 'M18', POINT = 1,
                 REFERENCE = 'ANALYTIQUE',
      NOM_CMP = 'SIXY', VALE = -6.75E6, PRECISION = 0.01),

_F( RESULTAT = U4, NUME_ORDRE = 2,
                 REFERENCE = 'ANALYTIQUE',
      NOM_CHAM = 'SIEF_ELGA', MAILLE = 'M18', POINT = 3, SOUS_POINT=231,
      NOM_CMP = 'SIXY', VALE = -8.42E6, PRECISION = 0.01))

      )

TEST_RESU(RESU=(

_F( RESULTAT = U5,  NUME_ORDRE = 2,
      NOM_CHAM = 'DEPL', GROUP_NO = 'B',
                 REFERENCE = 'ANALYTIQUE',
      NOM_CMP = 'DZ', VALE = -2.63253E-2,  PRECISION = 0.01),

_F( RESULTAT = U5,  NUME_ORDRE = 2,
                 REFERENCE = 'ANALYTIQUE',
      NOM_CHAM = 'DEPL', GROUP_NO = 'B',
      NOM_CMP = 'DRX', VALE = -6.31808E-3,  PRECISION = 0.01),

_F( RESULTAT = U5,  NUME_ORDRE = 2,
                 REFERENCE = 'ANALYTIQUE',
      NOM_CHAM = 'DEPL', GROUP_NO = 'B',
      NOM_CMP = 'DRY', VALE = 8.42411E-3, PRECISION = 0.01),

_F( RESULTAT = U5,  NUME_ORDRE = 2,
                 REFERENCE = 'ANALYTIQUE',
      NOM_CHAM = 'SIEF_ELNO_ELGA', MAILLE = 'M18', POINT = 1,
      NOM_CMP = 'MFY', VALE = 500., PRECISION = 0.01),

_F( RESULTAT = U5, NUME_ORDRE = 2,
                 REFERENCE = 'ANALYTIQUE',
      NOM_CHAM = 'SIEF_ELGA', MAILLE = 'M18', POINT = 3, SOUS_POINT=17,
      NOM_CMP = 'SIXX', VALE = 1.34824E7, PRECISION = 0.02))

            )

TEST_RESU(RESU=(

_F( RESULTAT = U6,  NUME_ORDRE = 2,
      NOM_CHAM = 'DEPL', GROUP_NO = 'B',
                 REFERENCE = 'ANALYTIQUE',
      NOM_CMP = 'DX', VALE = -1.57952E-2,  PRECISION = 0.01),

_F( RESULTAT = U6,  NUME_ORDRE = 2,
      NOM_CHAM = 'DEPL', GROUP_NO = 'B',
                 REFERENCE = 'ANALYTIQUE',
      NOM_CMP = 'DY', VALE = 2.10602E-2,  PRECISION = 0.01),

_F( RESULTAT = U6,  NUME_ORDRE = 2,
                 REFERENCE = 'ANALYTIQUE',
      NOM_CHAM = 'DEPL', GROUP_NO = 'B',
      NOM_CMP = 'DRZ', VALE = 1.05301E-2, PRECISION = 0.01),

_F( RESULTAT = U6,  NUME_ORDRE = 2,
                 REFERENCE = 'ANALYTIQUE',
      NOM_CHAM = 'SIEF_ELNO_ELGA',
      MAILLE = 'M18', POINT = 1,
      NOM_CMP = 'MFZ', VALE = 500., PRECISION = 0.01),

_F( RESULTAT = U6, NUME_ORDRE = 2,
                 REFERENCE = 'ANALYTIQUE',
      NOM_CHAM = 'SIEF_ELGA', MAILLE = 'M18', POINT = 3, SOUS_POINT=9,
      NOM_CMP = 'SIXX', VALE = 1.34824E7, PRECISION = 0.02))

        )

TEST_RESU(RESU=(

_F( RESULTAT = U7,  NUME_ORDRE = 2,
      NOM_CHAM = 'DEPL', GROUP_NO = 'B',
                 REFERENCE = 'ANALYTIQUE',
      NOM_CMP = 'WO', VALE = 0.73758E-5, PRECISION = 0.04),

_F( RESULTAT = U7, NUME_ORDRE = 2,
      NOM_CHAM = 'SIEF_ELGA',  MAILLE = 'M18', POINT = 1,
                 REFERENCE = 'ANALYTIQUE',
      NOM_CMP = 'SIYY', VALE = 4.55556E7, PRECISION = 0.01),

_F( RESULTAT = U7, NUME_ORDRE = 2,
      NOM_CHAM = 'SIEF_ELGA', MAILLE = 'M18', POINT = 3, SOUS_POINT=231,
                 REFERENCE = 'ANALYTIQUE',
      NOM_CMP = 'SIYY', VALE = 3.55556E7, PRECISION = 0.01))

            )

      
                   
# Solutions analytiques pour les deformations generalisees de poutre DEGE_ELNO_DEPL
L=5.0
E=2.E11
Nu=0.3
G=E/2/(1.0+Nu)
REXT=0.04
EP=0.008
import math
PI=math.pi
IF=PI*(REXT**4-(REXT-EP)**4)/4
JX=2.0*IF
SU=PI*(REXT**2-(REXT-EP)**2)
print 'SU, IF =',SU,IF

# Solution analytique chargement 1 Fx local = 500
EPXX=500./E/SU
# Solution analytique chargement 2 Fy local = 500
GAXY=500./G/SU
KZF=500*L/E/IF
# Solution analytique chargement 3 Fz local = 500
GAXZ=500./G/SU
KYF=-500*L/E/IF
# Solution analytique chargement 4 Mx local = 500
GAT=500/G/JX
# Solution analytique chargement 2 My local = 500
KYM=500/E/IF
# Solution analytique chargement 3 Mz local = 500
KZM=500/E/IF

TEST_RESU(RESU=(_F(RESULTAT=U1,NUME_ORDRE = 2,
                   NOM_CHAM='DEGE_ELNO_DEPL',
                   NOM_CMP='EPXX',
                   MAILLE='M1',
                   NOEUD='N1',
                   VALE=EPXX,
                   PRECISION=1.E-2,
                   REFERENCE='ANALYTIQUE',),
                _F(RESULTAT=U2,NUME_ORDRE = 2,
                   NOM_CHAM='DEGE_ELNO_DEPL',
                   MAILLE='M1',
                   NOEUD='N1',
                   NOM_CMP='GAXY',
                   VALE=GAXY,
                   PRECISION=33.E-2,
                   REFERENCE='ANALYTIQUE',),
                _F(RESULTAT=U3,NUME_ORDRE = 2,
                   NOM_CHAM='DEGE_ELNO_DEPL',
                   MAILLE='M1',
                   NOEUD='N1',
                   NOM_CMP='GAXZ',
                   VALE=GAXZ,
                   PRECISION=33.E-2,
                   REFERENCE='ANALYTIQUE',),
                _F(RESULTAT=U2,NUME_ORDRE = 2,
                   NOM_CHAM='DEGE_ELNO_DEPL',
                   MAILLE='M1',
                   NOEUD='N1',
                   NOM_CMP='KZ',
                   VALE=KZF,
                   PRECISION=1.3E-2,
                   REFERENCE='ANALYTIQUE',),
                _F(RESULTAT=U3,NUME_ORDRE = 2,
                   NOM_CHAM='DEGE_ELNO_DEPL',
                   MAILLE='M1',
                   NOEUD='N1',
                   NOM_CMP='KY',
                   VALE=KYF,
                   PRECISION=1.3E-2,
                   REFERENCE='ANALYTIQUE',),
               _F(RESULTAT=U4,NUME_ORDRE = 2,
                   NOM_CHAM='DEGE_ELNO_DEPL',
                   NOM_CMP='GAT',
                   MAILLE='M1',
                   NOEUD='N1',
                   VALE=GAT,
                   PRECISION=1.E-2,
                   REFERENCE='ANALYTIQUE',),
                _F(RESULTAT=U5,NUME_ORDRE = 2,
                   NOM_CHAM='DEGE_ELNO_DEPL',
                   MAILLE='M1',
                   NOEUD='N1',
                   NOM_CMP='KY',
                   VALE=KYM,
                   PRECISION=1.E-2,
                   REFERENCE='ANALYTIQUE',),
                _F(RESULTAT=U6,NUME_ORDRE = 2,
                   NOM_CHAM='DEGE_ELNO_DEPL',
                   MAILLE='M1',
                   NOEUD='N1',
                   NOM_CMP='KZ',
                   VALE=KZM,
                   PRECISION=1.E-2,
                   REFERENCE='ANALYTIQUE',),),);


                   
      
      

FIN()
#
#
#
