# MODIF  DATE 07/06/2002   AUTEUR DURAND C.DURAND 
# TITRE VALIDATION DE POST_ELEM MOT CLE FACTEUR CARA_GEOM
#            CONFIGURATION MANAGEMENT OF EDF VERSION
# ======================================================================
# COPYRIGHT (C) 1991 - 2001  EDF R&D                  WWW.CODE-ASTER.ORG
# THIS PROGRAM IS FREE SOFTWARE; YOU CAN REDISTRIBUTE IT AND/OR MODIFY
# IT UNDER THE TERMS OF THE GNU GENERAL PUBLIC LICENSE AS PUBLISHED BY
# THE FREE SOFTWARE FOUNDATION; EITHER VERSION 2 OF THE LICENSE, OR   
# (AT YOUR OPTION) ANY LATER VERSION.                                 
#
# THIS PROGRAM IS DISTRIBUTED IN THE HOPE THAT IT WILL BE USEFUL, BUT 
# WITHOUT ANY WARRANTY; WITHOUT EVEN THE IMPLIED WARRANTY OF          
# MERCHANTABILITY OR FITNESS FOR A PARTICULAR PURPOSE. SEE THE GNU    
# GENERAL PUBLIC LICENSE FOR MORE DETAILS.                            
#
# YOU SHOULD HAVE RECEIVED A COPY OF THE GNU GENERAL PUBLIC LICENSE   
# ALONG WITH THIS PROGRAM; IF NOT, WRITE TO EDF R&D CODE_ASTER,       
#    1 AVENUE DU GENERAL DE GAULLE, 92141 CLAMART CEDEX, FRANCE.      
# ======================================================================



DEBUT( CODE=_F(  NOM = 'SSLL107C',NIV_PUB_WEB='INTERNET') )

MA=LIRE_MAILLAGE(  )

MO=AFFE_MODELE(      MAILLAGE=MA,
                           AFFE=_F(   TOUT = 'OUI',
                                   PHENOMENE = 'MECANIQUE',
                                   MODELISATION = 'D_PLAN')
                       )

# MO_POU_E = AFFE_MODELE( MAILLAGE: MA
#                         AFFE : (  MAILLE        :  MA1
#                                   PHENOMENE     :  'MECANIQUE'
#                                   MODELISATION  :  'POU_D_E'    ))  ;
# CA_POU_E = AFFE_CARA_ELEM( MODELE: MO_POU_E
#                      POUTRE:( MAILLE :  MA1    SECTION: 'RECTANGLE'
#                          CARA : ( 'HY'   'EPY'  'HZ'   'EPZ'  )
#                          VALE : ( 5.D-02 5.D-03 2.D-02 2.D-03 )  )) ;


MAT=DEFI_MATERIAU(    ELAS=_F(  E = 1.,   NU = 0.5,  RHO = 1.)  )

CHMAT=AFFE_MATERIAU(      MAILLAGE=MA,
                            AFFE=_F(   TOUT = 'OUI',
                                    MATER = MAT)   )

TCARS=POST_ELEM(          MODELE=MO,
                          CHAM_MATER=CHMAT,
                          CARA_GEOM=_F(  TOUT = 'OUI',
                                      SYME_X = 'OUI',
                                      SYME_Y = 'OUI')
                    )

TEST_TABLE(     TABLE=TCARS,
                  FILTRE=_F(  NOM_PARA = 'LIEU',
                           VALE_K = 'MA'),
                NOM_PARA='AIRE_M',
                    VALE=9.00000E-05       )

TEST_TABLE(     TABLE=TCARS,
                  FILTRE=_F(  NOM_PARA = 'LIEU',
                           VALE_K = 'MA'),
                NOM_PARA='CDG_X_M',
                    VALE=6.77777E-03     )

TEST_TABLE(     TABLE=TCARS,
                  FILTRE=_F(  NOM_PARA = 'LIEU',
                           VALE_K = 'MA'),
                NOM_PARA='CDG_Y_M',
                    VALE=1.69444E-02     )

TEST_TABLE(     TABLE=TCARS,
                  FILTRE=_F(  NOM_PARA = 'LIEU',
                           VALE_K = 'MA'),
                NOM_PARA='IX_G_M',
                    VALE=4.90972E-09     )

TEST_TABLE(     TABLE=TCARS,
                  FILTRE=_F(  NOM_PARA = 'LIEU',
                           VALE_K = 'MA'),
                NOM_PARA='IY_G_M',
                    VALE=7.85556E-10     )

TEST_TABLE(     TABLE=TCARS,
                  FILTRE=_F(  NOM_PARA = 'LIEU',
                           VALE_K = 'MA'),
                NOM_PARA='IXY_G_M',
                    VALE=-1.11111E-09    )

#
# --- VALEURS DE REFERENCE: OPERATEUR AFFE_CARA_ELEM
#

TEST_TABLE(     TABLE=TCARS,
                  FILTRE=_F(  NOM_PARA = 'LIEU',
                           VALE_K = 'MA'),
                NOM_PARA='AIRE',
                    VALE=3.60000E-04     )

TEST_TABLE(     TABLE=TCARS,
                  FILTRE=_F(  NOM_PARA = 'LIEU',
                           VALE_K = 'MA'),
                NOM_PARA='CDG_X',
                 CRITERE='ABSOLU',
                     VALE=0.             )

TEST_TABLE(     TABLE=TCARS,
                  FILTRE=_F(  NOM_PARA = 'LIEU',
                           VALE_K = 'MA'),
                NOM_PARA='CDG_Y',
                 CRITERE='ABSOLU',
                     VALE=0.             )

TEST_TABLE(     TABLE=TCARS,
                  FILTRE=_F(  NOM_PARA = 'LIEU',
                           VALE_K = 'MA'),
                NOM_PARA='IX_G',
                    VALE=1.23000E-07     )

TEST_TABLE(     TABLE=TCARS,
                  FILTRE=_F(  NOM_PARA = 'LIEU',
                           VALE_K = 'MA'),
                NOM_PARA='IY_G',
                    VALE=1.96800E-08     )

TEST_TABLE(     TABLE=TCARS,
                  FILTRE=_F(  NOM_PARA = 'LIEU',
                           VALE_K = 'MA'),
                NOM_PARA='IY_PRIN_G',
                    VALE=1.96800E-08     )

TEST_TABLE(     TABLE=TCARS,
                  FILTRE=_F(  NOM_PARA = 'LIEU',
                           VALE_K = 'MA'),
                NOM_PARA='IZ_PRIN_G',
                    VALE=1.23000E-07     )

TEST_TABLE(     TABLE=TCARS,
                  FILTRE=_F(  NOM_PARA = 'LIEU',
                           VALE_K = 'MA'),
                NOM_PARA='ALPHA',
                     VALE=90.            )

TEST_TABLE(     TABLE=TCARS,
                  FILTRE=_F(  NOM_PARA = 'LIEU',
                           VALE_K = 'MA'),
                NOM_PARA='Y_MIN',
                   VALE=-2.50000E-02     )

TEST_TABLE(     TABLE=TCARS,
                  FILTRE=_F(  NOM_PARA = 'LIEU',
                           VALE_K = 'MA'),
                NOM_PARA='Y_MAX',
                    VALE=2.50000E-02     )

TEST_TABLE(     TABLE=TCARS,
                  FILTRE=_F(  NOM_PARA = 'LIEU',
                           VALE_K = 'MA'),
                NOM_PARA='Z_MIN',
                   VALE=-1.0000E-02     )

TEST_TABLE(     TABLE=TCARS,
                  FILTRE=_F(  NOM_PARA = 'LIEU',
                           VALE_K = 'MA'),
                NOM_PARA='Z_MAX',
                    VALE=1.00000E-02     )

TEST_TABLE(     TABLE=TCARS,
                  FILTRE=_F(  NOM_PARA = 'LIEU',
                           VALE_K = 'MA'),
                NOM_PARA='R_MAX',
                    VALE=2.6926E-02      )

TCARA=POST_ELEM(          MODELE=MO,
                          CHAM_MATER=CHMAT,CARA_GEOM=(
                          _F(  TOUT = 'OUI'),
                                    _F(  MAILLE = 'M5'),
                                    _F(  GROUP_MA = 'SURF1'))
                    )

TEST_TABLE(     TABLE=TCARA,
                  FILTRE=_F(  NOM_PARA = 'LIEU',
                           VALE_K = 'MA'),
                NOM_PARA='AIRE',
                    VALE=9.00000E-05     )

TEST_TABLE(     TABLE=TCARA,
                  FILTRE=_F(  NOM_PARA = 'LIEU',
                           VALE_K = 'MA'),
                NOM_PARA='CDG_X',
                    VALE=6.77777E-03     )

TEST_TABLE(     TABLE=TCARA,
                  FILTRE=_F(  NOM_PARA = 'LIEU',
                           VALE_K = 'MA'),
                NOM_PARA='CDG_Y',
                    VALE=1.69444E-02     )

TEST_TABLE(     TABLE=TCARA,
                  FILTRE=_F(  NOM_PARA = 'LIEU',
                           VALE_K = 'MA'),
                NOM_PARA='IX_G',
                    VALE=4.90972E-09     )

TEST_TABLE(     TABLE=TCARA,
                  FILTRE=_F(  NOM_PARA = 'LIEU',
                           VALE_K = 'MA'),
                NOM_PARA='IY_G',
                    VALE=7.85556E-10     )

TEST_TABLE(     TABLE=TCARA,
                  FILTRE=_F(  NOM_PARA = 'LIEU',
                           VALE_K = 'MA'),
                NOM_PARA='IXY_G',
                    VALE=-1.11111E-09    )

TEST_TABLE(     TABLE=TCARA,
                  FILTRE=_F(  NOM_PARA = 'LIEU',
                           VALE_K = 'SURF1'),
                NOM_PARA='IY_PRIN_G',
                     VALE=5.05256E-10   )

TEST_TABLE(     TABLE=TCARA,
                  FILTRE=_F(  NOM_PARA = 'LIEU',
                           VALE_K = 'SURF1'),
                NOM_PARA='IZ_PRIN_G',
                     VALE=5.19002E-09   )

TEST_TABLE(     TABLE=TCARA,
                  FILTRE=_F(  NOM_PARA = 'LIEU',
                           VALE_K = 'SURF1'),
                NOM_PARA='ALPHA',
                     VALE=1.041585E+02   )

TEST_TABLE(     TABLE=TCARA,
                  FILTRE=_F(  NOM_PARA = 'LIEU',
                           VALE_K = 'M5'),
                NOM_PARA='AIRE',
                    VALE=2.25000E-05     )

TMASS=POST_ELEM(          MODELE=MO,
                          CHAM_MATER=CHMAT,MASS_INER=(
                          _F(  TOUT = 'OUI'),
                                    _F(  MAILLE = 'M5'),
                                    _F(  GROUP_MA = 'SURF1'))
                    )

TEST_TABLE(     TABLE=TMASS,
                  FILTRE=_F(  NOM_PARA = 'LIEU',
                           VALE_K = 'MA'),
                NOM_PARA='MASSE',
                    VALE=9.00000E-05     )

TEST_TABLE(     TABLE=TMASS,
                  FILTRE=_F(  NOM_PARA = 'LIEU',
                           VALE_K = 'MA'),
                NOM_PARA='CDG_X',
                    VALE=6.77777E-03     )

TEST_TABLE(     TABLE=TMASS,
                  FILTRE=_F(  NOM_PARA = 'LIEU',
                           VALE_K = 'MA'),
                NOM_PARA='CDG_Y',
                    VALE=1.69444E-02     )

TEST_TABLE(     TABLE=TMASS,
                  FILTRE=_F(  NOM_PARA = 'LIEU',
                           VALE_K = 'MA'),
                NOM_PARA='IX_G',
                    VALE=4.90972E-09     )

TEST_TABLE(     TABLE=TMASS,
                  FILTRE=_F(  NOM_PARA = 'LIEU',
                           VALE_K = 'MA'),
                NOM_PARA='IY_G',
                    VALE=7.85556E-10     )

TEST_TABLE(     TABLE=TMASS,
                  FILTRE=_F(  NOM_PARA = 'LIEU',
                           VALE_K = 'MA'),
                NOM_PARA='IZ_G',
                    VALE=5.69527E-09     )

TEST_TABLE(     TABLE=TMASS,
                  FILTRE=_F(  NOM_PARA = 'LIEU',
                           VALE_K = 'MA'),
                NOM_PARA='IXY_G',
                    VALE=-1.11111E-09    )

TEST_TABLE(     TABLE=TMASS,
                  FILTRE=_F(  NOM_PARA = 'LIEU',
                           VALE_K = 'SURF1'),
                NOM_PARA='IX_PRIN_G',
                     VALE=5.05256E-10   )

TEST_TABLE(     TABLE=TMASS,
                  FILTRE=_F(  NOM_PARA = 'LIEU',
                           VALE_K = 'SURF1'),
                NOM_PARA='IY_PRIN_G',
                     VALE=5.19002E-09   )

TEST_TABLE(     TABLE=TMASS,
                  FILTRE=_F(  NOM_PARA = 'LIEU',
                           VALE_K = 'SURF1'),
                NOM_PARA='IZ_PRIN_G',
                     VALE=5.69527E-09   )

TEST_TABLE(     TABLE=TMASS,
                  FILTRE=_F(  NOM_PARA = 'LIEU',
                           VALE_K = 'SURF1'),
                NOM_PARA='ALPHA',
                     VALE=1.041585E+02   )

FIN( )
#
