# MODIF  DATE 11/06/2012   AUTEUR PELLET J.PELLET 
# TITRE PLAQUE ORTHOTROPE EN TRACTION UNIAXIALE HORS AXES D'ORTHOTROPIE
# RESPONSABLE PROIX J.M.PROIX
# sslp304d.para = tps_job 60 mem_job 160Mo ncpus 1 liste_test V
#            CONFIGURATION MANAGEMENT OF EDF VERSION
# ======================================================================
# COPYRIGHT (C) 1991 - 2012  EDF R&D                  WWW.CODE-ASTER.ORG
# THIS PROGRAM IS FREE SOFTWARE; YOU CAN REDISTRIBUTE IT AND/OR MODIFY
# IT UNDER THE TERMS OF THE GNU GENERAL PUBLIC LICENSE AS PUBLISHED BY
# THE FREE SOFTWARE FOUNDATION; EITHER VERSION 2 OF THE LICENSE, OR
# (AT YOUR OPTION) ANY LATER VERSION.
#
# THIS PROGRAM IS DISTRIBUTED IN THE HOPE THAT IT WILL BE USEFUL, BUT
# WITHOUT ANY WARRANTY; WITHOUT EVEN THE IMPLIED WARRANTY OF
# MERCHANTABILITY OR FITNESS FOR A PARTICULAR PURPOSE. SEE THE GNU
# GENERAL PUBLIC LICENSE FOR MORE DETAILS.
#
# YOU SHOULD HAVE RECEIVED A COPY OF THE GNU GENERAL PUBLIC LICENSE
# ALONG WITH THIS PROGRAM; IF NOT, WRITE TO EDF R&D CODE_ASTER,
#    1 AVENUE DU GENERAL DE GAULLE, 92141 CLAMART CEDEX, FRANCE.
# ======================================================================
# MODELISATION COQUE_3D GROT_GDEP
#


DEBUT(CODE=_F(NOM='SSLP304D',NIV_PUB_WEB='INTERNET'),);

MAINI=LIRE_MAILLAGE(FORMAT='MED',);

MAINI=DEFI_GROUP(reuse =MAINI,
                 MAILLAGE=MAINI,
                 CREA_GROUP_MA=_F(NOM='TOUT',
                                  TOUT='OUI',),
                 CREA_GROUP_NO=_F(GROUP_MA='TOUT',),);

MAIL=CREA_MAILLAGE(MAILLAGE=MAINI,
                   MODI_MAILLE=(_F(TOUT='OUI',
                                   OPTION='QUAD8_9',),
                                _F(TOUT='OUI',
                                   OPTION='TRIA6_7',),),);
#
# DEFINITION DES GROUPES DE NOEUDS
#


MAIL=DEFI_GROUP(reuse =MAIL,
                MAILLAGE=MAIL,
                CREA_GROUP_NO=(_F(GROUP_MA='BORD_CH1',),
                               _F(GROUP_MA='BORD_CH2',),
                               _F(NOEUD=('N171','N336','N345'),
                                  NOM='RESULT',),),);
#
# DEFINITION DU MODELE
#


MODELE=AFFE_MODELE(MAILLAGE=MAIL,
                   AFFE=_F(TOUT='OUI',
                           PHENOMENE='MECANIQUE',
                           MODELISATION='COQUE_3D',),);
#
# DEFINITION DU MATERIAU
#


ACIER=DEFI_MATERIAU(ELAS_ORTH=_F(E_L=4.E10,
                                 E_T=1.E10,
                                 NU_LT=0.3,
                                 G_LT=4.500000000E9,
                                 G_TN=3.500000000E9,),);
#
#


CARA=AFFE_CARA_ELEM(MODELE=MODELE,
                    COQUE=_F(GROUP_MA='TOUT',
                             EPAIS=1.0,COQUE_NCOU=1,
                             ANGL_REP=(30.0,0.0),),);
#
# ATTRIBUTION DU MATERIAU
#


CHMAT=AFFE_MATERIAU(MAILLAGE=MAIL,
                    AFFE=_F(TOUT='OUI',
                            MATER=ACIER,),);
#
# DEFINITION DES CONDITIONS AUX LIMITES ET CHARGEMENTS
#


CHARGT=AFFE_CHAR_MECA(MODELE=MODELE,
                      DDL_IMPO=(_F(GROUP_NO='A',
                                   DX=0.0,
                                   DY=0.0,),
                                _F(GROUP_NO='TOUT',
                                   DZ=0.0,
                                   DRX=0.0,
                                   DRY=0.0,
                                   DRZ=0.0,),
                                _F(GROUP_NO='B',
                                   DX=0.0,),),
                      FORCE_ARETE=(_F(GROUP_MA='BORD_CH2',
                                      FX=1.E4,),
                                   _F(GROUP_MA='BORD_CH1',
                                      FX=-1.E4,),),);

linst=DEFI_LIST_REEL(DEBUT=0.0,
                     INTERVALLE=_F(JUSQU_A=1.0,
                                   NOMBRE=1,),);

DEF=STAT_NON_LINE(MODELE=MODELE,
                  CHAM_MATER=CHMAT,
                  CARA_ELEM=CARA,
                  EXCIT=_F(CHARGE=CHARGT,),
                  COMP_ELAS=_F(RELATION='ELAS',
                               DEFORMATION='GROT_GDEP',),
                  INCREMENT=_F(LIST_INST=linst,),);
#
# RESOLUTION
#


U=CREA_CHAMP(TYPE_CHAM='NOEU_DEPL_R',
             OPERATION='EXTR',
             RESULTAT=DEF,
             NOM_CHAM='DEPL',
             NUME_ORDRE=1,);
#
#
# TEST_RESU DU DEPLACEMENT
#
#


TEST_RESU(CHAM_NO=(_F(CHAM_GD=U,
                      NOEUD='N171',
                      NOM_CMP='DX',
                      VALE=0.0,
                      CRITERE='ABSOLU',
                      REFERENCE='ANALYTIQUE',PRECISION=1.E-3,),
                   _F(CHAM_GD=U,
                      NOEUD='N171',
                      NOM_CMP='DY',
                      VALE=-2.292E-7,
                      REFERENCE='ANALYTIQUE',PRECISION=1.E-3,),
                   _F(CHAM_GD=U,
                      NOEUD='N336',
                      NOM_CMP='DX',
                      VALE=5.917E-7,
                      REFERENCE='ANALYTIQUE',PRECISION=1.E-3,),
                   _F(CHAM_GD=U,
                      NOEUD='N336',
                      NOM_CMP='DY',
                      VALE=-5.028E-7,
                      REFERENCE='ANALYTIQUE',PRECISION=1.E-3,),
                   _F(CHAM_GD=U,
                      NOEUD='N345',
                      NOM_CMP='DX',
                      VALE=5.917E-7,
                      REFERENCE='ANALYTIQUE',PRECISION=1.E-3,),
                   _F(CHAM_GD=U,
                      NOEUD='N345',
                      NOM_CMP='DY',
                      VALE=-7.319E-7,
                      REFERENCE='ANALYTIQUE',PRECISION=1.E-3,),),);


# CALCUL DES CONTRAINTES

DEF=CALC_CHAMP(reuse=DEF,CONTRAINTE=('SIGM_ELNO'),VARI_INTERNE=('VARI_ELNO'),RESULTAT=DEF)


DEFPOS=POST_CHAMP(RESULTAT=DEF,
                  EXTR_COQUE=_F(NOM_CHAM='SIGM_ELNO',
                                NUME_COUCHE=1,
                                NIVE_COUCHE='MOY',),);
#
# TEST_RESU DE LA CONTRAINTE DANS LE REPERE D'ORTHOTROPIE=REPERE UTILISATEUR COQUE
#
TEST_RESU(RESU=(
# SIG B
              _F(  RESULTAT=DEFPOS,NOM_CHAM='SIGM_ELNO',NUME_ORDRE=1,
                          MAILLE = 'M46',
                          NOEUD = 'N171',
                          NOM_CMP = 'SIXX',
                          VALE = 7.5E3,
                          REFERENCE='ANALYTIQUE',PRECISION = 0.001),
              _F(  RESULTAT=DEFPOS,NOM_CHAM='SIGM_ELNO',NUME_ORDRE=1,
                          MAILLE = 'M46',
                          NOEUD = 'N171',
                          NOM_CMP = 'SIYY',
                          VALE = 2.5E3,
                          REFERENCE='ANALYTIQUE',PRECISION = 0.001),
              _F(  RESULTAT=DEFPOS,NOM_CHAM='SIGM_ELNO',NUME_ORDRE=1,
                          MAILLE = 'M46',
                          NOEUD = 'N171',
                          NOM_CMP = 'SIXY',
                          VALE = -4.33E3,
                          REFERENCE='ANALYTIQUE',PRECISION = 0.001),
# SIG C
              _F(  RESULTAT=DEFPOS,NOM_CHAM='SIGM_ELNO',NUME_ORDRE=1,
                          MAILLE = 'M59',
                          NOEUD = 'N336',
                          NOM_CMP = 'SIXX',
                          VALE = 7.5E3,
                          REFERENCE='ANALYTIQUE',PRECISION = 0.001),
              _F(  RESULTAT=DEFPOS,NOM_CHAM='SIGM_ELNO',NUME_ORDRE=1,
                          MAILLE = 'M59',
                          NOEUD = 'N336',
                          NOM_CMP = 'SIYY',
                          VALE = 2.5E3,
                          REFERENCE='ANALYTIQUE',PRECISION = 0.001),
              _F(  RESULTAT=DEFPOS,NOM_CHAM='SIGM_ELNO',NUME_ORDRE=1,
                          MAILLE = 'M59',
                          NOEUD = 'N336',
                          NOM_CMP = 'SIXY',
                          VALE = -4.33E3,
                          REFERENCE='ANALYTIQUE',PRECISION = 0.001),
# SIG D
              _F(  RESULTAT=DEFPOS,NOM_CHAM='SIGM_ELNO',NUME_ORDRE=1,
                          MAILLE = 'M150',
                          NOEUD = 'N345',
                          NOM_CMP = 'SIXX',
                          VALE = 7.5E3,
                          REFERENCE='ANALYTIQUE',PRECISION = 0.001),
              _F(  RESULTAT=DEFPOS,NOM_CHAM='SIGM_ELNO',NUME_ORDRE=1,
                          MAILLE = 'M150',
                          NOEUD = 'N345',
                          NOM_CMP = 'SIYY',
                          VALE = 2.5E3,
                          REFERENCE='ANALYTIQUE',PRECISION = 0.001),
              _F(  RESULTAT=DEFPOS,NOM_CHAM='SIGM_ELNO',NUME_ORDRE=1,
                          MAILLE = 'M150',
                          NOEUD = 'N345',
                          NOM_CMP = 'SIXY',
                          VALE = -4.33E3,
                          REFERENCE='ANALYTIQUE',PRECISION = 0.001))
                          )
FIN()
#
