# TITRE DISQUE MINCE EN APPUI SOUS CHARGE CONCENTREE (AXIS)
#            CONFIGURATION MANAGEMENT OF EDF VERSION
# ======================================================================
# COPYRIGHT (C) 1991 - 2012  EDF R&D                  WWW.CODE-ASTER.ORG
# THIS PROGRAM IS FREE SOFTWARE; YOU CAN REDISTRIBUTE IT AND/OR MODIFY
# IT UNDER THE TERMS OF THE GNU GENERAL PUBLIC LICENSE AS PUBLISHED BY
# THE FREE SOFTWARE FOUNDATION; EITHER VERSION 2 OF THE LICENSE, OR
# (AT YOUR OPTION) ANY LATER VERSION.
#
# THIS PROGRAM IS DISTRIBUTED IN THE HOPE THAT IT WILL BE USEFUL, BUT
# WITHOUT ANY WARRANTY; WITHOUT EVEN THE IMPLIED WARRANTY OF
# MERCHANTABILITY OR FITNESS FOR A PARTICULAR PURPOSE. SEE THE GNU
# GENERAL PUBLIC LICENSE FOR MORE DETAILS.
#
# YOU SHOULD HAVE RECEIVED A COPY OF THE GNU GENERAL PUBLIC LICENSE
# ALONG WITH THIS PROGRAM; IF NOT, WRITE TO EDF R&D CODE_ASTER,
#    1 AVENUE DU GENERAL DE GAULLE, 92141 CLAMART CEDEX, FRANCE.
# ======================================================================
DEBUT(CODE=_F(NOM='SSLP305A',NIV_PUB_WEB='INTERNET'),DEBUG=_F(SDVERI='OUI'))

MAIL=LIRE_MAILLAGE(FORMAT='MED',)

#
MAIL=DEFI_GROUP( reuse=MAIL,   MAILLAGE=MAIL,CREA_GROUP_NO=(
                       _F(  GROUP_MA = 'LAG'),
                       _F(  GROUP_MA = 'LBD'))
                    )

#
# DEFINITION DU MODELE
MODELE=AFFE_MODELE(    MAILLAGE=MAIL,
                         AFFE=_F(  TOUT = 'OUI',
                       PHENOMENE = 'MECANIQUE',
                       MODELISATION = 'AXIS')  )

#
# DEFINITION DU MATERIAU
ACIER=DEFI_MATERIAU(    ELAS=_F(  E = 2.1E11,  NU = 0.3,
                                 ALPHA = 1.E-5,  RHO = 7800.)
                      )

#
# ATTRIBUTION DU MATERIAU
CHMAT=AFFE_MATERIAU(    MAILLAGE=MAIL,
                          AFFE=_F(  TOUT = 'OUI',
                                 MATER = ACIER)  )

#
# DEFINITION DES CONDITIONS AUX LIMITES ET CHARGEMENTS
CHARGT=AFFE_CHAR_MECA(    MODELE=MODELE,DDL_IMPO=(
                           _F(  GROUP_NO = 'B',   DY = 0.),
                           _F(  GROUP_NO = 'LAG', DX = 0.)),
                           FORCE_NODALE=_F(  GROUP_NO = 'A',
                                           FY = -55.704)
                        )

#
# RESOLUTION
# ---------------------------
DEF=MECA_STATIQUE( MODELE=MODELE, CHAM_MATER=CHMAT,
                   EXCIT=_F(  CHARGE = CHARGT)  )


# ENERGIE POTENTIELLE
# ---------------------------
DEF=CALC_CHAMP(reuse=DEF, RESULTAT=DEF,  ENERGIE=('EPOT_ELEM'))

ENERGIE=POST_ELEM(INTEGRALE=_F(  TOUT = 'OUI',NOM_CHAM='EPOT_ELEM',NOM_CMP='TOTALE',DEJA_INTEGRE='OUI'),
                  MODELE=MODELE, RESULTAT=DEF,)

TEST_TABLE(PRECISION=5.0000000000000001E-3,
           VALE_CALC=0.012858998,
           VALE_REFE=0.012799,
           REFERENCE='NON_DEFINI',
           NOM_PARA='INTE_TOTALE',
           TABLE=ENERGIE,)

# TEST_RESU DES DEPLACEMENTS
# ---------------------------
TEST_RESU(RESU=_F(NUME_ORDRE=1,
                  RESULTAT=DEF,
                  NOM_CHAM='DEPL',
                  NOEUD='N1',
                  NOM_CMP='DY',
                  VALE_CALC=-4.61690279E-04,
                  VALE_REFE=-4.596E-4,
                  REFERENCE='NON_DEFINI',
                  PRECISION=5.0000000000000001E-3,),
          )

FIN()
#
