# person_in_charge: jean-michel.proix at edf.fr
# TITRE PLAQUE ORTHOTROPE EN TRACTION UNIAXIALE HORS AXES D'ORTHOTROPIE
#            CONFIGURATION MANAGEMENT OF EDF VERSION
# ======================================================================
# COPYRIGHT (C) 1991 - 2012  EDF R&D                  WWW.CODE-ASTER.ORG
# THIS PROGRAM IS FREE SOFTWARE; YOU CAN REDISTRIBUTE IT AND/OR MODIFY
# IT UNDER THE TERMS OF THE GNU GENERAL PUBLIC LICENSE AS PUBLISHED BY
# THE FREE SOFTWARE FOUNDATION; EITHER VERSION 2 OF THE LICENSE, OR
# (AT YOUR OPTION) ANY LATER VERSION.
#
# THIS PROGRAM IS DISTRIBUTED IN THE HOPE THAT IT WILL BE USEFUL, BUT
# WITHOUT ANY WARRANTY; WITHOUT EVEN THE IMPLIED WARRANTY OF
# MERCHANTABILITY OR FITNESS FOR A PARTICULAR PURPOSE. SEE THE GNU
# GENERAL PUBLIC LICENSE FOR MORE DETAILS.
#
# YOU SHOULD HAVE RECEIVED A COPY OF THE GNU GENERAL PUBLIC LICENSE
# ALONG WITH THIS PROGRAM; IF NOT, WRITE TO EDF R&D CODE_ASTER,
#    1 AVENUE DU GENERAL DE GAULLE, 92141 CLAMART CEDEX, FRANCE.
# ======================================================================
# MODELISATION COQUE_3D
DEBUT( CODE=_F(  NOM = 'SSLP304C',NIV_PUB_WEB='INTERNET') )

MAINI=LIRE_MAILLAGE(FORMAT='MED',)

DEFI_GROUP( reuse=MAINI,   MAILLAGE=MAINI,
  CREA_GROUP_MA=_F(  NOM = 'TOUT', TOUT = 'OUI'),
  CREA_GROUP_NO=_F(  GROUP_MA = 'TOUT')
  )

MAIL=CREA_MAILLAGE(   MAILLAGE=MAINI,
                     MODI_MAILLE=(_F( OPTION = 'QUAD8_9',TOUT='OUI'),
                                 _F( OPTION = 'TRIA6_7',TOUT='OUI'),),)

#
# DEFINITION DES GROUPES DE NOEUDS
DEFI_GROUP( reuse=MAIL,   MAILLAGE=MAIL,CREA_GROUP_NO=(
                       _F(  GROUP_MA = 'BORD_CH1'),
                       _F(  GROUP_MA = 'BORD_CH2'),
                       _F(  NOM = 'RESULT',
                                       NOEUD = ('N171', 'N336', 'N345',)))
                   )

#
# DEFINITION DU MODELE
MODELE=AFFE_MODELE(    MAILLAGE=MAIL,
                         AFFE=_F(  TOUT = 'OUI',
                       PHENOMENE = 'MECANIQUE',
                       MODELISATION = 'COQUE_3D')  )

#
# DEFINITION DU MATERIAU
ACIER=DEFI_MATERIAU(     ELAS_ORTH=_F(  E_L = 4.E10,
                                       E_T = 1.E10,
                                       G_LT = 0.45E10,
                                       G_TN = 0.35E10,
                                       NU_LT = 0.3)
                      )

#
CARA=AFFE_CARA_ELEM(    MODELE=MODELE,
                   COQUE=_F(  GROUP_MA = 'TOUT',
                               EPAIS    = 1.0,
                               ANGL_REP = (30.,0.,)) )

#
# ATTRIBUTION DU MATERIAU
CHMAT=AFFE_MATERIAU(    MAILLAGE=MAIL,
                          AFFE=_F(  TOUT = 'OUI',
                                 MATER = ACIER)  )

#
# DEFINITION DES CONDITIONS AUX LIMITES ET CHARGEMENTS
CHARGT=AFFE_CHAR_MECA(    MODELE=MODELE,
                 DDL_IMPO=(_F(  GROUP_NO = 'A',  DX = 0.,   DY = 0.),
                           _F(  GROUP_NO = 'TOUT',  DRZ = 0.,   DZ = 0., DRX=0.,DRY=0.),
                           _F(  GROUP_NO = 'B',  DX = 0.)),
             FORCE_ARETE=( _F(  GROUP_MA = 'BORD_CH2',FX = 1.E4),
                           _F(  GROUP_MA = 'BORD_CH1',FX = -1.E4))
                        )

#
# RESOLUTION

DEF=MECA_STATIQUE(    MODELE=MODELE,
                         CHAM_MATER=CHMAT,
                         CARA_ELEM=CARA,
                         EXCIT=_F(  CHARGE = CHARGT)  )

CALC_CHAMP(reuse=DEF,RESULTAT=DEF,CONTRAINTE=('SIGM_ELNO'))


#
# RECUPERATION DU CHAMP DE DEPLACEMENTS
U=CREA_CHAMP(  OPERATION='EXTR', TYPE_CHAM='NOEU_DEPL_R',
                 NOM_CHAM='DEPL', RESULTAT=DEF,
                 NUME_ORDRE=1
                  )

#

#
# TEST_RESU DU DEPLACEMENT
#
TEST_RESU(CHAM_NO=(_F(NOEUD='N171',
                      CRITERE='ABSOLU',
                      REFERENCE='ANALYTIQUE',
                      NOM_CMP='DX',
                      PRECISION=1.E-4,
                      CHAM_GD=U,
                      VALE_CALC= 0.00000000E+00,
                      VALE_REFE=0.0,),
                   _F(NOEUD='N171',
                      REFERENCE='ANALYTIQUE',
                      NOM_CMP='DY',
                      PRECISION=2.0000000000000001E-4,
                      CHAM_GD=U,
                      VALE_CALC=-2.29166667E-07,
                      VALE_REFE=-2.2919999999999999E-07,),
                   _F(NOEUD='N336',
                      REFERENCE='ANALYTIQUE',
                      NOM_CMP='DX',
                      PRECISION=1.E-4,
                      CHAM_GD=U,
                      VALE_CALC= 5.91666667E-07,
                      VALE_REFE=5.9169999999999998E-07,),
                   _F(NOEUD='N336',
                      REFERENCE='ANALYTIQUE',
                      NOM_CMP='DY',
                      PRECISION=1.E-4,
                      CHAM_GD=U,
                      VALE_CALC=-5.02775859E-07,
                      VALE_REFE=-5.0279999999999998E-07,),
                   _F(NOEUD='N345',
                      REFERENCE='ANALYTIQUE',
                      NOM_CMP='DX',
                      PRECISION=1.E-4,
                      CHAM_GD=U,
                      VALE_CALC= 5.91666667E-07,
                      VALE_REFE=5.9169999999999998E-07,),
                   _F(NOEUD='N345',
                      REFERENCE='ANALYTIQUE',
                      NOM_CMP='DY',
                      PRECISION=1.E-4,
                      CHAM_GD=U,
                      VALE_CALC=-7.31942526E-07,
                      VALE_REFE=-7.3190000000000004E-07,),
                   ),
          )

# TEST_RESU DES CONTRAINTE DANS LE REPERE D'ORTHOPRTIE
# IDENTIQUE AU REPERE UTILISATEUR DES COQUES

SIG=CREA_CHAMP(  OPERATION='EXTR', TYPE_CHAM='ELNO_SIEF_R',
NOM_CHAM='SIGM_ELNO', RESULTAT=DEF,
                 NUME_ORDRE=1
                  )

TEST_RESU(CHAM_ELEM=(_F(NOEUD='N171',
                        REFERENCE='ANALYTIQUE',
                        NOM_CMP='SIXX',
                        PRECISION=1.E-4,
                        SOUS_POINT=1,
                        MAILLE='M46',
                        CHAM_GD=SIG,
                        VALE_CALC= 7.49999972E+03,
                        VALE_REFE=7500.0,),
                     _F(NOEUD='N171',
                        REFERENCE='ANALYTIQUE',
                        NOM_CMP='SIYY',
                        PRECISION=1.E-4,
                        SOUS_POINT=1,
                        MAILLE='M46',
                        CHAM_GD=SIG,
                        VALE_CALC= 2.50000021E+03,
                        VALE_REFE=2500.0,),
                     _F(NOEUD='N171',
                        REFERENCE='ANALYTIQUE',
                        NOM_CMP='SIXY',
                        PRECISION=1.E-4,
                        SOUS_POINT=1,
                        MAILLE='M46',
                        CHAM_GD=SIG,
                        VALE_CALC=-4.33012713E+03,
                        VALE_REFE=-4330.0,),
                     _F(NOEUD='N336',
                        REFERENCE='ANALYTIQUE',
                        NOM_CMP='SIXX',
                        PRECISION=1.E-4,
                        SOUS_POINT=1,
                        MAILLE='M59',
                        CHAM_GD=SIG,
                        VALE_CALC= 7.50000000E+03,
                        VALE_REFE=7500.0,),
                     _F(NOEUD='N336',
                        REFERENCE='ANALYTIQUE',
                        NOM_CMP='SIYY',
                        PRECISION=1.E-4,
                        SOUS_POINT=1,
                        MAILLE='M59',
                        CHAM_GD=SIG,
                        VALE_CALC= 2.50000000E+03,
                        VALE_REFE=2500.0,),
                     _F(NOEUD='N336',
                        REFERENCE='ANALYTIQUE',
                        NOM_CMP='SIXY',
                        PRECISION=1.E-4,
                        SOUS_POINT=1,
                        MAILLE='M59',
                        CHAM_GD=SIG,
                        VALE_CALC=-4.33012702E+03,
                        VALE_REFE=-4330.0,),
                     _F(NOEUD='N345',
                        REFERENCE='ANALYTIQUE',
                        NOM_CMP='SIXX',
                        PRECISION=1.E-4,
                        SOUS_POINT=1,
                        MAILLE='M150',
                        CHAM_GD=SIG,
                        VALE_CALC= 7.50000000E+03,
                        VALE_REFE=7500.0,),
                     _F(NOEUD='N345',
                        REFERENCE='ANALYTIQUE',
                        NOM_CMP='SIYY',
                        PRECISION=1.E-4,
                        SOUS_POINT=1,
                        MAILLE='M150',
                        CHAM_GD=SIG,
                        VALE_CALC= 2.50000000E+03,
                        VALE_REFE=2500.0,),
                     _F(NOEUD='N345',
                        REFERENCE='ANALYTIQUE',
                        NOM_CMP='SIXY',
                        PRECISION=1.E-4,
                        SOUS_POINT=1,
                        MAILLE='M150',
                        CHAM_GD=SIG,
                        VALE_CALC=-4.33012702E+03,
                        VALE_REFE=-4330.0,),
                     ),
          )

#-----------------------------------------------------------------------------------------
# validation de POST_CHAMP / MIN_MAX_SP pour les coques 3D :
#-------------------------------------------------------------
DEF2=POST_CHAMP(  RESULTAT=DEF, MAILLE='M46', NUME_ORDRE=(1,),
              MIN_MAX_SP=(
                _F( NOM_CHAM='SIEF_ELGA', NOM_CMP='SIYY', TYPE_MAXI='MAXI', NUME_CHAM_RESU=1),
                _F( NOM_CHAM='SIEF_ELGA', NOM_CMP='SIYY', TYPE_MAXI='MINI', NUME_CHAM_RESU=2),
             ))
#IMPR_RESU(RESU=_F(RESULTAT=DEF, NOM_CHAM='SIEF_ELGA', MAILLE='M46',NUME_ORDRE=(1,), ))
#IMPR_RESU(RESU=_F(RESULTAT=DEF2))

# TEST_RESU pour le max de SIYY (UT01_ELGA):
TEST_RESU(RESU=(_F(NUME_ORDRE=1,
                   REFERENCE='AUTRE_ASTER',
                   POINT=1,
                   RESULTAT=DEF2,
                   NOM_CHAM='UT01_ELGA',
                   NOM_CMP='VAL',
                   VALE_CALC= 2.4999999888E+03,
                   VALE_REFE=2499.9999887845001,
                   TOLE_MACHINE=1.E-10,
                   PRECISION=1.E-10,
                   MAILLE='M46',),
                _F(NUME_ORDRE=1,
                   REFERENCE='AUTRE_ASTER',
                   POINT=1,
                   RESULTAT=DEF2,
                   NOM_CHAM='UT01_ELGA',
                   NOM_CMP='NUCOU',
                   VALE_CALC=1.00000000000,
                   VALE_REFE=1.0,
                   TOLE_MACHINE=1.E-10,
                   PRECISION=1.E-10,
                   MAILLE='M46',),
                _F(NUME_ORDRE=1,
                   REFERENCE='AUTRE_ASTER',
                   POINT=1,
                   RESULTAT=DEF2,
                   NOM_CHAM='UT01_ELGA',
                   NOM_CMP='NUFIBR',
                   VALE_CALC=-999.00000000000,
                   VALE_REFE=-999.0,
                   TOLE_MACHINE=1.E-10,
                   PRECISION=1.E-10,
                   MAILLE='M46',),
                ),
          )

# TEST_RESU pour le min de SIYY (UT02_ELGA) :
TEST_RESU(RESU=(_F(NUME_ORDRE=1,
                   REFERENCE='AUTRE_ASTER',
                   POINT=1,
                   RESULTAT=DEF2,
                   NOM_CHAM='UT02_ELGA',
                   NOM_CMP='VAL',
                   VALE_CALC= 2.4999999888E+03,
                   VALE_REFE=2499.9999887845001,
                   TOLE_MACHINE=1.E-10,
                   PRECISION=1.E-10,
                   MAILLE='M46',),
                _F(NUME_ORDRE=1,
                   REFERENCE='AUTRE_ASTER',
                   POINT=1,
                   RESULTAT=DEF2,
                   NOM_CHAM='UT02_ELGA',
                   NOM_CMP='NUCOU',
                   VALE_CALC=1.00000000000,
                   VALE_REFE=1.0,
                   TOLE_MACHINE=1.E-10,
                   PRECISION=1.E-10,
                   MAILLE='M46',),
                ),
          )

#-----------------------------------------------------------------------------------------


FIN()
#
