# MODIF  DATE 17/12/2012   AUTEUR DELMAS J.DELMAS 
# TITRE BIBLIO_18 FISSURE PRESSURISEE DANS UN DOMAINE PLAN ILLIMITE
# sslp310a.para = tps_job 60 mem_job 512Mo ncpus 1 liste_test V
#            CONFIGURATION MANAGEMENT OF EDF VERSION
# ======================================================================
# COPYRIGHT (C) 1991 - 2012  EDF R&D                  WWW.CODE-ASTER.ORG
# THIS PROGRAM IS FREE SOFTWARE; YOU CAN REDISTRIBUTE IT AND/OR MODIFY
# IT UNDER THE TERMS OF THE GNU GENERAL PUBLIC LICENSE AS PUBLISHED BY
# THE FREE SOFTWARE FOUNDATION; EITHER VERSION 2 OF THE LICENSE, OR   
# (AT YOUR OPTION) ANY LATER VERSION.                                 
#
# THIS PROGRAM IS DISTRIBUTED IN THE HOPE THAT IT WILL BE USEFUL, BUT 
# WITHOUT ANY WARRANTY; WITHOUT EVEN THE IMPLIED WARRANTY OF          
# MERCHANTABILITY OR FITNESS FOR A PARTICULAR PURPOSE. SEE THE GNU    
# GENERAL PUBLIC LICENSE FOR MORE DETAILS.                            
#
# YOU SHOULD HAVE RECEIVED A COPY OF THE GNU GENERAL PUBLIC LICENSE   
# ALONG WITH THIS PROGRAM; IF NOT, WRITE TO EDF R&D CODE_ASTER,       
#    1 AVENUE DU GENERAL DE GAULLE, 92141 CLAMART CEDEX, FRANCE.      
# ======================================================================
#       CALCUL EN CONTRAINTES PLANES
#

DEBUT( CODE=_F( NOM = 'SSLP310A',NIV_PUB_WEB='INTERNET'))

MA=LIRE_MAILLAGE(VERI_MAIL=_F(VERIF='OUI'),FORMAT='MED',  )

MO=AFFE_MODELE(  MAILLAGE=MA, 
      AFFE=_F( TOUT = 'OUI',PHENOMENE = 'MECANIQUE',MODELISATION = 'C_PLAN'))

MA=MODI_MAILLAGE( reuse=MA,   MAILLAGE=MA,
                  ORIE_PEAU_2D=_F(GROUP_MA = ('LEV_SUP', 
                                              'LEV_INF',) )
                     )

MAT=DEFI_MATERIAU(ELAS=_F(  E = 1000., NU = 0.3))

CHMAT=AFFE_MATERIAU(  MAILLAGE=MA,AFFE=_F(  TOUT = 'OUI',MATER = MAT))

MA=DEFI_GROUP( reuse=MA,   MAILLAGE=MA, 
                     CREA_GROUP_NO=_F( 
                   GROUP_MA = ( 'L12',  'L56',   'LPOP11',  'LPOP11S', 
                                'LEV_SUP',
                                'LEV_INF' ))
                 )

EXP1 = FORMULE(NOM_PARA='X',VALE='( exp(X) ) ')
EXP5 = FORMULE(NOM_PARA='X',VALE='( exp(5. * X) ) ')

SINH1 = FORMULE(NOM_PARA='X',VALE='( sinh(X) ) ')
SINH5 = FORMULE(NOM_PARA='X',VALE='( sinh(5. * X) ) ')

COSH1 = FORMULE(NOM_PARA='X',VALE='( cosh(X) ) ')
COSH5 = FORMULE(NOM_PARA='X',VALE='( cosh(5. * X) ) ')

COS1 = FORMULE(NOM_PARA='X',VALE='( cos(X) ) ')
COS5 = FORMULE(NOM_PARA='X',VALE='( cos(2.4048255577 * X))')

CL=AFFE_CHAR_MECA(   MODELE=MO, 

            DDL_IMPO=_F( GROUP_NO = ( 'L12',  'L56',  'LPOP11',  
                                      'LPOP11S', ), DY = 0.),

            LIAISON_DDL=_F(  GROUP_NO = ('P0',  'P0BIS',),
                          DDL = ('DX',  'DX',),
                          COEF_MULT = (1., 1.,),
                          COEF_IMPO = 0.) )

CH_UNI=AFFE_CHAR_MECA(   MODELE=MO, 
                 PRES_REP=_F(  GROUP_MA = ( 'LEV_SUP', 
                                            'LEV_INF' ),  
                                PRES = 1.)
                                  )

CH_EXP1=AFFE_CHAR_MECA_F(   MODELE=MO, 
                 PRES_REP=_F(  GROUP_MA = ( 'LEV_SUP', 
                                            'LEV_INF' ),  
                                PRES = EXP1)
                                  )

CH_EXP5=AFFE_CHAR_MECA_F(   MODELE=MO, 
                 PRES_REP=_F(   GROUP_MA = ( 'LEV_SUP', 
                                             'LEV_INF' ),  
                                 PRES = EXP5)
                                  )

CH_SINH1=AFFE_CHAR_MECA_F(   MODELE=MO, 
                  PRES_REP=_F(   GROUP_MA = ( 'LEV_SUP', 
                                              'LEV_INF' ),  
                                 PRES = SINH1)
                                  )

CH_SINH5=AFFE_CHAR_MECA_F(   MODELE=MO, 
                  PRES_REP=_F(   GROUP_MA = ( 'LEV_SUP', 
                                              'LEV_INF' ), 
                                  PRES = SINH5)
                                  )

CH_COSH1=AFFE_CHAR_MECA_F(   MODELE=MO, 
                  PRES_REP=_F(   GROUP_MA = ( 'LEV_SUP', 
                                              'LEV_INF' ),
                                  PRES = COSH1)
                                  )

CH_COSH5=AFFE_CHAR_MECA_F(   MODELE=MO, 
                  PRES_REP=_F(   GROUP_MA = ( 'LEV_SUP', 
                                              'LEV_INF' ),
                                   PRES = COSH5)
                                  )

CH_COS1=AFFE_CHAR_MECA_F(   MODELE=MO, 
                 PRES_REP=_F(   GROUP_MA = ( 'LEV_SUP', 
                                             'LEV_INF' ),  
                                 PRES = COS1)
                                  )

CH_COS5=AFFE_CHAR_MECA_F(   MODELE=MO, 
                 PRES_REP=_F(   GROUP_MA = ( 'LEV_SUP', 
                                             'LEV_INF' ), 
                                 PRES = COS5)
                                  )

RESU=MACRO_ELAS_MULT(MODELE=MO,
                    CHAM_MATER=CHMAT,
                    CHAR_MECA_GLOBAL=CL,
                    CAS_CHARGE=(_F(NOM_CAS='CH_UNI',
                                   CHAR_MECA=CH_UNI,),
                                _F(NOM_CAS='CH_EXP1',
                                   CHAR_MECA=CH_EXP1,),
                                _F(NOM_CAS='CH_EXP5',
                                   CHAR_MECA=CH_EXP5,),
                                _F(NOM_CAS='CH_SINH1',
                                   CHAR_MECA=CH_SINH1,),
                                _F(NOM_CAS='CH_SINH5',
                                   CHAR_MECA=CH_SINH5,),
                                _F(NOM_CAS='CH_COSH1',
                                   CHAR_MECA=CH_COSH1,),
                                _F(NOM_CAS='CH_COSH5',
                                   CHAR_MECA=CH_COSH5,),
                                _F(NOM_CAS='CH_COS1',
                                   CHAR_MECA=CH_COS1,),
                                _F(NOM_CAS='CH_COS5',
                                   CHAR_MECA=CH_COS5,),),);


# POST TRAITEMENT MECA. RUPTURE
# -----------------------------

FOND=DEFI_FOND_FISS(    MAILLAGE=MA,
                        FOND_FISS=_F( GROUP_NO = ('P0',)),
                      )

# DEFINITION DES COURONNES POUR LES CHAMPS THETA
# ----------------------------------------------

C1 = 0.
C2 = 0.02
C3 = 0.04
C4 = 0.06
C5 = 0.08


# CALCUL DES G_THETA POUR LA COURONNE 0
# ---------------------------------------

G_0=CALC_G(RESULTAT=RESU,
           NOM_CAS=('CH_UNI',
                    'CH_EXP5',
                    'CH_SINH1',
                    'CH_SINH5',
                    'CH_COSH1',
                    'CH_COSH5',
                    'CH_COS1',
                    'CH_COS5',
                   ),
           THETA=_F(FOND_FISS=FOND,
                    R_INF = C1,
                    R_SUP = C2,
                    DIRECTION=(1., 0., 0., ),),
           OPTION='CALC_K_G'
                        )

G_EXP10=CALC_G(RESULTAT=RESU,
               NOM_CAS='CH_EXP1',
               THETA=_F(
                         DIRECTION=(1., 0., 0., ),
                         R_INF = C1,
                         R_SUP = C2,
                         FOND_FISS=FOND),
                OPTION='CALC_K_G'
                         )


# CALCUL DES G_THETA POUR LA COURONNE 1
# ---------------------------------------

G_1=CALC_G(RESULTAT=RESU,
           THETA=_F(FOND_FISS=FOND,
                    DIRECTION=(1., 0., 0., ),
                    R_INF = C2,
                    R_SUP = C3),
           OPTION='CALC_K_G')


# CALCUL DES G_THETA POUR LA COURONNE 2
# ---------------------------------------

G_2=CALC_G(RESULTAT=RESU,
           THETA=_F(FOND_FISS=FOND,
                    DIRECTION=(1., 0., 0., ),
                    R_INF = C3,
                    R_SUP = C4),
           OPTION='CALC_K_G')


# CALCUL DES G_THETA POUR LA COURONNE 3
# ---------------------------------------

G_3=CALC_G(RESULTAT=RESU,
           NOM_CAS=('CH_UNI',
                    'CH_EXP1',
                    'CH_EXP5',
                    'CH_SINH1',
                    'CH_SINH5',
                    'CH_COSH1',
                    'CH_COSH5',
                    'CH_COS1',
                   ),
           THETA=_F(FOND_FISS=FOND,
                    DIRECTION=(1., 0., 0., ),
                    R_INF = C4,
                    R_SUP = C5),
           OPTION='CALC_K_G')

G_COS53=CALC_G(RESULTAT=RESU,
               NOM_CAS='CH_COS5',
               THETA=_F(FOND_FISS=FOND,
                        DIRECTION=(1., 0., 0., ),
                        R_INF = C4,
                        R_SUP = C5),
               OPTION='CALC_K_G')
               
# IMPRESSION DES RESULTATS COURONNE 0 (TRIANGLES)
# -----------------------------------------------


TEST_TABLE(REFERENCE='ANALYTIQUE',
           PRECISION=0.033000000000000002,
           VALE_CALC=3.0407604118558E-03,
           VALE_REFE=3.1415800000000002E-3,
           NOM_PARA='G',
           TABLE=G_0,
           FILTRE=_F(NOM_PARA='NOM_CAS',
                     VALE_K='CH_UNI',),
           )

TEST_TABLE(REFERENCE='ANALYTIQUE',
           PRECISION=0.070000000000000007,
           VALE_CALC=1.6559307774745,
           VALE_REFE=1.7724500000000001,
           NOM_PARA='K1',
           TABLE=G_0,
           FILTRE=_F(NOM_PARA='NOM_CAS',
                     VALE_K='CH_UNI',),
           )

TEST_TABLE(CRITERE='ABSOLU',
           REFERENCE='ANALYTIQUE',
           PRECISION=0.014999999999999999,
           VALE_CALC=8.3300842157629E-15,
           VALE_REFE=0.0,
           NOM_PARA='K2',
           TABLE=G_0,
           FILTRE=_F(NOM_PARA='NOM_CAS',
                     VALE_K='CH_UNI',),
           )

#

TEST_TABLE(REFERENCE='ANALYTIQUE',
           PRECISION=0.040000000000000001,
           VALE_CALC=0.010141112714593,
           VALE_REFE=0.0105349,
           NOM_PARA='G',
           TABLE=G_EXP10,)

TEST_TABLE(REFERENCE='ANALYTIQUE',
           PRECISION=0.070000000000000007,
           VALE_CALC=3.0310742165212,
           VALE_REFE=3.2457600000000002,
           NOM_PARA='K1',
           TABLE=G_EXP10,)

TEST_TABLE(CRITERE='ABSOLU',
           REFERENCE='ANALYTIQUE',
           PRECISION=1.E-2,
           VALE_CALC=1.3332961393064E-14,
           VALE_REFE=0.0,
           NOM_PARA='K2',
           TABLE=G_EXP10,)

#

TEST_TABLE(REFERENCE='ANALYTIQUE',
           PRECISION=0.055,
           VALE_CALC=7.9065120031125,
           VALE_REFE=8.3567420000000006,
           NOM_PARA='G',
           TABLE=G_0,
           FILTRE=_F(NOM_PARA='NOM_CAS',
                     VALE_K='CH_EXP5',),
           )

TEST_TABLE(REFERENCE='ANALYTIQUE',
           PRECISION=0.070000000000000007,
           VALE_CALC=85.41890399356,
           VALE_REFE=91.415220000000005,
           NOM_PARA='K1',
           TABLE=G_0,
           FILTRE=_F(NOM_PARA='NOM_CAS',
                     VALE_K='CH_EXP5',),
           )

TEST_TABLE(CRITERE='ABSOLU',
           REFERENCE='ANALYTIQUE',
           PRECISION=1.E-2,
           VALE_CALC=3.0186036030261E-13,
           VALE_REFE=0.0,
           NOM_PARA='K2',
           TABLE=G_0,
           FILTRE=_F(NOM_PARA='NOM_CAS',
                     VALE_K='CH_EXP5',),
           )

#

TEST_TABLE(REFERENCE='ANALYTIQUE',
           PRECISION=0.044999999999999998,
           VALE_CALC=9.6006129771376E-04,
           VALE_REFE=1.00344E-3,
           NOM_PARA='G',
           TABLE=G_0,
           FILTRE=_F(NOM_PARA='NOM_CAS',
                     VALE_K='CH_SINH1',),
           )

TEST_TABLE(REFERENCE='ANALYTIQUE',
           PRECISION=0.070000000000000007,
           VALE_CALC=0.93505255816955,
           VALE_REFE=1.0017199999999999,
           NOM_PARA='K1',
           TABLE=G_0,
           FILTRE=_F(NOM_PARA='NOM_CAS',
                     VALE_K='CH_SINH1',),
           )

TEST_TABLE(CRITERE='ABSOLU',
           REFERENCE='ANALYTIQUE',
           PRECISION=1.E-2,
           VALE_CALC=3.1432812984434E-15,
           VALE_REFE=0.0,
           NOM_PARA='K2',
           TABLE=G_0,
           FILTRE=_F(NOM_PARA='NOM_CAS',
                     VALE_K='CH_SINH1',),
           )

#

TEST_TABLE(REFERENCE='ANALYTIQUE',
           PRECISION=0.055,
           VALE_CALC=1.7601456804863,
           VALE_REFE=1.86052,
           NOM_PARA='G',
           TABLE=G_0,
           FILTRE=_F(NOM_PARA='NOM_CAS',
                     VALE_K='CH_SINH5',),
           )

TEST_TABLE(REFERENCE='ANALYTIQUE',
           PRECISION=0.065000000000000002,
           VALE_CALC=40.338266871578,
           VALE_REFE=43.133800000000001,
           NOM_PARA='K1',
           TABLE=G_0,
           FILTRE=_F(NOM_PARA='NOM_CAS',
                     VALE_K='CH_SINH5',),
           )

TEST_TABLE(CRITERE='ABSOLU',
           REFERENCE='ANALYTIQUE',
           PRECISION=0.065000000000000002,
           VALE_CALC=1.0916186405057E-13,
           VALE_REFE=0.0,
           NOM_PARA='K2',
           TABLE=G_0,
           FILTRE=_F(NOM_PARA='NOM_CAS',
                     VALE_K='CH_SINH5',),
           )

#

TEST_TABLE(REFERENCE='ANALYTIQUE',
           PRECISION=0.035000000000000003,
           VALE_CALC=4.8606190540315E-03,
           VALE_REFE=5.0357099999999997E-3,
           NOM_PARA='G',
           TABLE=G_0,
           FILTRE=_F(NOM_PARA='NOM_CAS',
                     VALE_K='CH_COSH1',),
           )

TEST_TABLE(REFERENCE='ANALYTIQUE',
           PRECISION=0.070000000000000007,
           VALE_CALC=2.0960216583516,
           VALE_REFE=2.24404,
           NOM_PARA='K1',
           TABLE=G_0,
           FILTRE=_F(NOM_PARA='NOM_CAS',
                     VALE_K='CH_COSH1',),
           )

TEST_TABLE(CRITERE='ABSOLU',
           REFERENCE='ANALYTIQUE',
           PRECISION=1.E-2,
           VALE_CALC=1.0737080060163E-14,
           VALE_REFE=0.0,
           NOM_PARA='K2',
           TABLE=G_0,
           FILTRE=_F(NOM_PARA='NOM_CAS',
                     VALE_K='CH_COSH1',),
           )

#

TEST_TABLE(REFERENCE='ANALYTIQUE',
           PRECISION=0.055,
           VALE_CALC=2.2056599909436,
           VALE_REFE=2.3310949999999999,
           NOM_PARA='G',
           TABLE=G_0,
           FILTRE=_F(NOM_PARA='NOM_CAS',
                     VALE_K='CH_COSH5',),
           )

TEST_TABLE(REFERENCE='ANALYTIQUE',
           PRECISION=0.070000000000000007,
           VALE_CALC=45.080637121983,
           VALE_REFE=48.281419999999997,
           NOM_PARA='K1',
           TABLE=G_0,
           FILTRE=_F(NOM_PARA='NOM_CAS',
                     VALE_K='CH_COSH5',),
           )

TEST_TABLE(CRITERE='ABSOLU',
           REFERENCE='ANALYTIQUE',
           PRECISION=0.070000000000000007,
           VALE_CALC=2.0896016681034E-13,
           VALE_REFE=0.0,
           NOM_PARA='K2',
           TABLE=G_0,
           FILTRE=_F(NOM_PARA='NOM_CAS',
                     VALE_K='CH_COSH5',),
           )

#

TEST_TABLE(REFERENCE='ANALYTIQUE',
           PRECISION=0.029999999999999999,
           VALE_CALC=1.7870613814567E-03,
           VALE_REFE=1.8394800000000001E-3,
           NOM_PARA='G',
           TABLE=G_0,
           FILTRE=_F(NOM_PARA='NOM_CAS',
                     VALE_K='CH_COS1',),
           )

TEST_TABLE(REFERENCE='ANALYTIQUE',
           PRECISION=0.070000000000000007,
           VALE_CALC=1.2675655120099,
           VALE_REFE=1.356277,
           NOM_PARA='K1',
           TABLE=G_0,
           FILTRE=_F(NOM_PARA='NOM_CAS',
                     VALE_K='CH_COS1',),
           )

TEST_TABLE(CRITERE='ABSOLU',
           REFERENCE='ANALYTIQUE',
           PRECISION=0.070000000000000007,
           VALE_CALC=6.110726815608E-15,
           VALE_REFE=0.0,
           NOM_PARA='K2',
           TABLE=G_0,
           FILTRE=_F(NOM_PARA='NOM_CAS',
                     VALE_K='CH_COS1',),
           )

#

TEST_TABLE(CRITERE='ABSOLU',
           REFERENCE='ANALYTIQUE',
           PRECISION=1.0000000000000001E-05,
           VALE_CALC=4.1711066254845E-08,
           VALE_REFE=0.0,
           NOM_PARA='G',
           TABLE=G_0,
           FILTRE=_F(NOM_PARA='NOM_CAS',
                     VALE_K='CH_COS5',),
           )

TEST_TABLE(CRITERE='ABSOLU',
           REFERENCE='ANALYTIQUE',
           PRECISION=3.0000000000000001E-3,
           VALE_CALC=2.036725062307E-03,
           VALE_REFE=0.0,
           NOM_PARA='K1',
           TABLE=G_0,
           FILTRE=_F(NOM_PARA='NOM_CAS',
                     VALE_K='CH_COS5',),
           )

# IMPRESSION DES RESULTATS COURONNE 1 (QUADRANGLES)  ;
# -------------------------------------------------


TEST_TABLE(REFERENCE='ANALYTIQUE',
           PRECISION=1.E-2,
           VALE_CALC=3.1669228980594E-03,
           VALE_REFE=3.1415800000000002E-3,
           NOM_PARA='G',
           TABLE=G_1,
           FILTRE=_F(NOM_PARA='NOM_CAS',
                     VALE_K='CH_UNI',),
           )

TEST_TABLE(REFERENCE='ANALYTIQUE',
           PRECISION=5.0000000000000001E-3,
           VALE_CALC=1.7807902018657,
           VALE_REFE=1.7724500000000001,
           NOM_PARA='K1',
           TABLE=G_1,
           FILTRE=_F(NOM_PARA='NOM_CAS',
                     VALE_K='CH_UNI',),
           )

TEST_TABLE(CRITERE='ABSOLU',
           REFERENCE='ANALYTIQUE',
           PRECISION=0.014999999999999999,
           VALE_CALC=6.8164089692673E-16,
           VALE_REFE=0.0,
           NOM_PARA='K2',
           TABLE=G_1,
           FILTRE=_F(NOM_PARA='NOM_CAS',
                     VALE_K='CH_UNI',),
           )

#

TEST_TABLE(REFERENCE='ANALYTIQUE',
           PRECISION=5.0000000000000001E-3,
           VALE_CALC=0.010566511051871,
           VALE_REFE=0.0105349,
           NOM_PARA='G',
           TABLE=G_1,
           FILTRE=_F(NOM_PARA='NOM_CAS',
                     VALE_K='CH_EXP1',),
           )

TEST_TABLE(REFERENCE='ANALYTIQUE',
           PRECISION=5.0000000000000001E-3,
           VALE_CALC=3.2565914582703,
           VALE_REFE=3.2457600000000002,
           NOM_PARA='K1',
           TABLE=G_1,
           FILTRE=_F(NOM_PARA='NOM_CAS',
                     VALE_K='CH_EXP1',),
           )

TEST_TABLE(CRITERE='ABSOLU',
           REFERENCE='ANALYTIQUE',
           PRECISION=1.E-2,
           VALE_CALC=3.4740871043178E-15,
           VALE_REFE=0.0,
           NOM_PARA='K2',
           TABLE=G_1,
           FILTRE=_F(NOM_PARA='NOM_CAS',
                     VALE_K='CH_EXP1',),
           )

#

TEST_TABLE(REFERENCE='ANALYTIQUE',
           PRECISION=0.014999999999999999,
           VALE_CALC=8.2554352647295,
           VALE_REFE=8.3567420000000006,
           NOM_PARA='G',
           TABLE=G_1,
           FILTRE=_F(NOM_PARA='NOM_CAS',
                     VALE_K='CH_EXP5',),
           )

TEST_TABLE(REFERENCE='ANALYTIQUE',
           PRECISION=5.0000000000000001E-3,
           VALE_CALC=91.527925495912,
           VALE_REFE=91.415220000000005,
           NOM_PARA='K1',
           TABLE=G_1,
           FILTRE=_F(NOM_PARA='NOM_CAS',
                     VALE_K='CH_EXP5',),
           )

TEST_TABLE(CRITERE='ABSOLU',
           REFERENCE='ANALYTIQUE',
           PRECISION=5.0000000000000001E-3,
           VALE_CALC=1.4248692523989E-13,
           VALE_REFE=0.0,
           NOM_PARA='K2',
           TABLE=G_1,
           FILTRE=_F(NOM_PARA='NOM_CAS',
                     VALE_K='CH_EXP5',),
           )

#

TEST_TABLE(REFERENCE='ANALYTIQUE',
           PRECISION=5.0000000000000001E-3,
           VALE_CALC=1.0008017835437E-03,
           VALE_REFE=1.00344E-3,
           NOM_PARA='G',
           TABLE=G_1,
           FILTRE=_F(NOM_PARA='NOM_CAS',
                     VALE_K='CH_SINH1',),
           )

TEST_TABLE(REFERENCE='ANALYTIQUE',
           PRECISION=5.0000000000000001E-3,
           VALE_CALC=1.0034742252291,
           VALE_REFE=1.0017199999999999,
           NOM_PARA='K1',
           TABLE=G_1,
           FILTRE=_F(NOM_PARA='NOM_CAS',
                     VALE_K='CH_SINH1',),
           )

TEST_TABLE(CRITERE='ABSOLU',
           REFERENCE='ANALYTIQUE',
           PRECISION=1.E-2,
           VALE_CALC=2.5825783892971E-15,
           VALE_REFE=0.0,
           NOM_PARA='K2',
           TABLE=G_1,
           FILTRE=_F(NOM_PARA='NOM_CAS',
                     VALE_K='CH_SINH1',),
           )

#

TEST_TABLE(REFERENCE='ANALYTIQUE',
           PRECISION=0.014999999999999999,
           VALE_CALC=1.8381502719312,
           VALE_REFE=1.86052,
           NOM_PARA='G',
           TABLE=G_1,
           FILTRE=_F(NOM_PARA='NOM_CAS',
                     VALE_K='CH_SINH5',),
           )

TEST_TABLE(REFERENCE='ANALYTIQUE',
           PRECISION=5.0000000000000001E-3,
           VALE_CALC=43.209124512748,
           VALE_REFE=43.133800000000001,
           NOM_PARA='K1',
           TABLE=G_1,
           FILTRE=_F(NOM_PARA='NOM_CAS',
                     VALE_K='CH_SINH5',),
           )

TEST_TABLE(CRITERE='ABSOLU',
           REFERENCE='ANALYTIQUE',
           PRECISION=1.E-2,
           VALE_CALC=8.1986350149751E-14,
           VALE_REFE=0.0,
           NOM_PARA='K2',
           TABLE=G_1,
           FILTRE=_F(NOM_PARA='NOM_CAS',
                     VALE_K='CH_SINH5',),
           )

#

TEST_TABLE(REFERENCE='ANALYTIQUE',
           PRECISION=1.E-2,
           VALE_CALC=5.0634621439792E-03,
           VALE_REFE=5.0357099999999997E-3,
           NOM_PARA='G',
           TABLE=G_1,
           FILTRE=_F(NOM_PARA='NOM_CAS',
                     VALE_K='CH_COSH1',),
           )

TEST_TABLE(REFERENCE='ANALYTIQUE',
           PRECISION=5.0000000000000001E-3,
           VALE_CALC=2.2531172330412,
           VALE_REFE=2.24404,
           NOM_PARA='K1',
           TABLE=G_1,
           FILTRE=_F(NOM_PARA='NOM_CAS',
                     VALE_K='CH_COSH1',),
           )

TEST_TABLE(CRITERE='ABSOLU',
           REFERENCE='ANALYTIQUE',
           PRECISION=1.E-2,
           VALE_CALC=1.3531256041181E-16,
           VALE_REFE=0.0,
           NOM_PARA='K2',
           TABLE=G_1,
           FILTRE=_F(NOM_PARA='NOM_CAS',
                     VALE_K='CH_COSH1',),
           )

#

TEST_TABLE(REFERENCE='ANALYTIQUE',
           PRECISION=0.014999999999999999,
           VALE_CALC=2.3026323622721,
           VALE_REFE=2.3310949999999999,
           NOM_PARA='G',
           TABLE=G_1,
           FILTRE=_F(NOM_PARA='NOM_CAS',
                     VALE_K='CH_COSH5',),
           )

TEST_TABLE(REFERENCE='ANALYTIQUE',
           PRECISION=5.0000000000000001E-3,
           VALE_CALC=48.318800983164,
           VALE_REFE=48.281419999999997,
           NOM_PARA='K1',
           TABLE=G_1,
           FILTRE=_F(NOM_PARA='NOM_CAS',
                     VALE_K='CH_COSH5',),
           )

TEST_TABLE(CRITERE='ABSOLU',
           REFERENCE='ANALYTIQUE',
           PRECISION=1.E-2,
           VALE_CALC=7.2573304347133E-14,
           VALE_REFE=0.0,
           NOM_PARA='K2',
           TABLE=G_1,
           FILTRE=_F(NOM_PARA='NOM_CAS',
                     VALE_K='CH_COSH5',),
           )

#

TEST_TABLE(REFERENCE='ANALYTIQUE',
           PRECISION=0.014999999999999999,
           VALE_CALC=1.8606549616011E-03,
           VALE_REFE=1.8394800000000001E-3,
           NOM_PARA='G',
           TABLE=G_1,
           FILTRE=_F(NOM_PARA='NOM_CAS',
                     VALE_K='CH_COS1',),
           )

TEST_TABLE(REFERENCE='ANALYTIQUE',
           PRECISION=1.E-2,
           VALE_CALC=1.3639105215541,
           VALE_REFE=1.356277,
           NOM_PARA='K1',
           TABLE=G_1,
           FILTRE=_F(NOM_PARA='NOM_CAS',
                     VALE_K='CH_COS1',),
           )

TEST_TABLE(CRITERE='ABSOLU',
           REFERENCE='ANALYTIQUE',
           PRECISION=1.E-2,
           VALE_CALC=2.2949298914671E-19,
           VALE_REFE=0.0,
           NOM_PARA='K2',
           TABLE=G_1,
           FILTRE=_F(NOM_PARA='NOM_CAS',
                     VALE_K='CH_COS1',),
           )

#

TEST_TABLE(CRITERE='ABSOLU',
           REFERENCE='ANALYTIQUE',
           PRECISION=1.0000000000000001E-05,
           VALE_CALC=3.9811249467048E-08,
           VALE_REFE=0.0,
           NOM_PARA='G',
           TABLE=G_1,
           FILTRE=_F(NOM_PARA='NOM_CAS',
                     VALE_K='CH_COS5',),
           )

TEST_TABLE(CRITERE='ABSOLU',
           REFERENCE='ANALYTIQUE',
           PRECISION=5.0000000000000001E-3,
           VALE_CALC=4.7202254583135E-03,
           VALE_REFE=0.0,
           NOM_PARA='K1',
           TABLE=G_1,
           FILTRE=_F(NOM_PARA='NOM_CAS',
                     VALE_K='CH_COS5',),
           )

TEST_TABLE(CRITERE='ABSOLU',
           REFERENCE='ANALYTIQUE',
           PRECISION=1.0000000000000001E-05,
           VALE_CALC=-2.376718701331E-15,
           VALE_REFE=0.0,
           NOM_PARA='K2',
           TABLE=G_1,
           FILTRE=_F(NOM_PARA='NOM_CAS',
                     VALE_K='CH_COS5',),
           )

# IMPRESSION DES RESULTATS COURONNE 2 (QUADRANGLES)  ;
# -------------------------------------------------


TEST_TABLE(REFERENCE='ANALYTIQUE',
           PRECISION=1.E-2,
           VALE_CALC=3.1677925574816E-03,
           VALE_REFE=3.1415800000000002E-3,
           NOM_PARA='G',
           TABLE=G_2,
           FILTRE=_F(NOM_PARA='NOM_CAS',
                     VALE_K='CH_UNI',),
           )

TEST_TABLE(REFERENCE='ANALYTIQUE',
           PRECISION=5.0000000000000001E-3,
           VALE_CALC=1.7807463417743,
           VALE_REFE=1.7724500000000001,
           NOM_PARA='K1',
           TABLE=G_2,
           FILTRE=_F(NOM_PARA='NOM_CAS',
                     VALE_K='CH_UNI',),
           )

TEST_TABLE(CRITERE='ABSOLU',
           REFERENCE='ANALYTIQUE',
           PRECISION=0.014999999999999999,
           VALE_CALC=-2.0751288452088E-15,
           VALE_REFE=0.0,
           NOM_PARA='K2',
           TABLE=G_2,
           FILTRE=_F(NOM_PARA='NOM_CAS',
                     VALE_K='CH_UNI',),
           )

#

TEST_TABLE(REFERENCE='ANALYTIQUE',
           PRECISION=5.0000000000000001E-3,
           VALE_CALC=0.010569458045300,
           VALE_REFE=0.0105349,
           NOM_PARA='G',
           TABLE=G_2,
           FILTRE=_F(NOM_PARA='NOM_CAS',
                     VALE_K='CH_EXP1',),
           )

TEST_TABLE(REFERENCE='ANALYTIQUE',
           PRECISION=5.0000000000000001E-3,
           VALE_CALC=3.2565233805906,
           VALE_REFE=3.2457600000000002,
           NOM_PARA='K1',
           TABLE=G_2,
           FILTRE=_F(NOM_PARA='NOM_CAS',
                     VALE_K='CH_EXP1',),
           )

TEST_TABLE(CRITERE='ABSOLU',
           REFERENCE='ANALYTIQUE',
           PRECISION=1.E-2,
           VALE_CALC=2.1530845629798E-16,
           VALE_REFE=0.0,
           NOM_PARA='K2',
           TABLE=G_2,
           FILTRE=_F(NOM_PARA='NOM_CAS',
                     VALE_K='CH_EXP1',),
           )

#

TEST_TABLE(REFERENCE='ANALYTIQUE',
           PRECISION=0.014999999999999999,
           VALE_CALC=8.2579533704288,
           VALE_REFE=8.3567420000000006,
           NOM_PARA='G',
           TABLE=G_2,
           FILTRE=_F(NOM_PARA='NOM_CAS',
                     VALE_K='CH_EXP5',),
           )

TEST_TABLE(REFERENCE='ANALYTIQUE',
           PRECISION=5.0000000000000001E-3,
           VALE_CALC=91.527147296178,
           VALE_REFE=91.415220000000005,
           NOM_PARA='K1',
           TABLE=G_2,
           FILTRE=_F(NOM_PARA='NOM_CAS',
                     VALE_K='CH_EXP5',),
           )

TEST_TABLE(CRITERE='ABSOLU',
           REFERENCE='ANALYTIQUE',
           PRECISION=1.E-2,
           VALE_CALC=8.5506479318104E-14,
           VALE_REFE=0.0,
           NOM_PARA='K2',
           TABLE=G_2,
           FILTRE=_F(NOM_PARA='NOM_CAS',
                     VALE_K='CH_EXP5',),
           )

#

TEST_TABLE(REFERENCE='ANALYTIQUE',
           PRECISION=5.0000000000000001E-3,
           VALE_CALC=1.0010852490179E-03,
           VALE_REFE=1.00344E-3,
           NOM_PARA='G',
           TABLE=G_2,
           FILTRE=_F(NOM_PARA='NOM_CAS',
                     VALE_K='CH_SINH1',),
           )

TEST_TABLE(REFERENCE='ANALYTIQUE',
           PRECISION=5.0000000000000001E-3,
           VALE_CALC=1.0034577045667,
           VALE_REFE=1.0017199999999999,
           NOM_PARA='K1',
           TABLE=G_2,
           FILTRE=_F(NOM_PARA='NOM_CAS',
                     VALE_K='CH_SINH1',),
           )

TEST_TABLE(CRITERE='ABSOLU',
           REFERENCE='ANALYTIQUE',
           PRECISION=1.E-2,
           VALE_CALC=2.2122025327017E-15,
           VALE_REFE=0.0,
           NOM_PARA='K2',
           TABLE=G_2,
           FILTRE=_F(NOM_PARA='NOM_CAS',
                     VALE_K='CH_SINH1',),
           )

#

TEST_TABLE(REFERENCE='ANALYTIQUE',
           PRECISION=0.014999999999999999,
           VALE_CALC=1.8387147875975,
           VALE_REFE=1.86052,
           NOM_PARA='G',
           TABLE=G_2,
           FILTRE=_F(NOM_PARA='NOM_CAS',
                     VALE_K='CH_SINH5',),
           )

TEST_TABLE(REFERENCE='ANALYTIQUE',
           PRECISION=5.0000000000000001E-3,
           VALE_CALC=43.208815689336,
           VALE_REFE=43.133800000000001,
           NOM_PARA='K1',
           TABLE=G_2,
           FILTRE=_F(NOM_PARA='NOM_CAS',
                     VALE_K='CH_SINH5',),
           )

TEST_TABLE(CRITERE='ABSOLU',
           REFERENCE='ANALYTIQUE',
           PRECISION=1.E-2,
           VALE_CALC=6.8545949297713E-14,
           VALE_REFE=0.0,
           NOM_PARA='K2',
           TABLE=G_2,
           FILTRE=_F(NOM_PARA='NOM_CAS',
                     VALE_K='CH_SINH5',),
           )

#

TEST_TABLE(REFERENCE='ANALYTIQUE',
           PRECISION=1.E-2,
           VALE_CALC=5.0648647028397E-03,
           VALE_REFE=5.0357099999999997E-3,
           NOM_PARA='G',
           TABLE=G_2,
           FILTRE=_F(NOM_PARA='NOM_CAS',
                     VALE_K='CH_COSH1',),
           )

TEST_TABLE(REFERENCE='ANALYTIQUE',
           PRECISION=5.0000000000000001E-3,
           VALE_CALC=2.2530656760239,
           VALE_REFE=2.24404,
           NOM_PARA='K1',
           TABLE=G_2,
           FILTRE=_F(NOM_PARA='NOM_CAS',
                     VALE_K='CH_COSH1',),
           )

TEST_TABLE(CRITERE='ABSOLU',
           REFERENCE='ANALYTIQUE',
           PRECISION=1.E-2,
           VALE_CALC=-2.9234050052191E-15,
           VALE_REFE=0.0,
           NOM_PARA='K2',
           TABLE=G_2,
           FILTRE=_F(NOM_PARA='NOM_CAS',
                     VALE_K='CH_COSH1',),
           )

#

TEST_TABLE(REFERENCE='ANALYTIQUE',
           PRECISION=0.014999999999999999,
           VALE_CALC=2.3033304506125,
           VALE_REFE=2.3310949999999999,
           NOM_PARA='G',
           TABLE=G_2,
           FILTRE=_F(NOM_PARA='NOM_CAS',
                     VALE_K='CH_COSH5',),
           )

TEST_TABLE(REFERENCE='ANALYTIQUE',
           PRECISION=5.0000000000000001E-3,
           VALE_CALC=48.318331606842,
           VALE_REFE=48.281419999999997,
           NOM_PARA='K1',
           TABLE=G_2,
           FILTRE=_F(NOM_PARA='NOM_CAS',
                     VALE_K='CH_COSH5',),
           )

TEST_TABLE(CRITERE='ABSOLU',
           REFERENCE='ANALYTIQUE',
           PRECISION=1.E-2,
           VALE_CALC=2.8590581065609E-14,
           VALE_REFE=0.0,
           NOM_PARA='K2',
           TABLE=G_2,
           FILTRE=_F(NOM_PARA='NOM_CAS',
                     VALE_K='CH_COSH5',),
           )

#

TEST_TABLE(REFERENCE='ANALYTIQUE',
           PRECISION=0.014999999999999999,
           VALE_CALC=1.861160419392E-03,
           VALE_REFE=1.8394800000000001E-3,
           NOM_PARA='G',
           TABLE=G_2,
           FILTRE=_F(NOM_PARA='NOM_CAS',
                     VALE_K='CH_COS1',),
           )

TEST_TABLE(REFERENCE='ANALYTIQUE',
           PRECISION=1.E-2,
           VALE_CALC=1.3638737740562,
           VALE_REFE=1.356277,
           NOM_PARA='K1',
           TABLE=G_2,
           FILTRE=_F(NOM_PARA='NOM_CAS',
                     VALE_K='CH_COS1',),
           )

TEST_TABLE(CRITERE='ABSOLU',
           REFERENCE='ANALYTIQUE',
           PRECISION=1.E-2,
           VALE_CALC=-1.4559218369255E-15,
           VALE_REFE=0.0,
           NOM_PARA='K2',
           TABLE=G_2,
           FILTRE=_F(NOM_PARA='NOM_CAS',
                     VALE_K='CH_COS1',),
           )

#

TEST_TABLE(CRITERE='ABSOLU',
           REFERENCE='ANALYTIQUE',
           PRECISION=1.0000000000000001E-05,
           VALE_CALC=3.998150297238E-08,
           VALE_REFE=0.0,
           NOM_PARA='G',
           TABLE=G_2,
           FILTRE=_F(NOM_PARA='NOM_CAS',
                     VALE_K='CH_COS5',),
           )

TEST_TABLE(CRITERE='ABSOLU',
           REFERENCE='ANALYTIQUE',
           PRECISION=5.0000000000000001E-3,
           VALE_CALC=4.7101564398826E-03,
           VALE_REFE=0.0,
           NOM_PARA='K1',
           TABLE=G_2,
           FILTRE=_F(NOM_PARA='NOM_CAS',
                     VALE_K='CH_COS5',),
           )

TEST_TABLE(CRITERE='ABSOLU',
           REFERENCE='ANALYTIQUE',
           PRECISION=1.0000000000000001E-05,
           VALE_CALC=-2.6616417664284E-15,
           VALE_REFE=0.0,
           NOM_PARA='K2',
           TABLE=G_2,
           FILTRE=_F(NOM_PARA='NOM_CAS',
                     VALE_K='CH_COS5',),
           )

# IMPRESSION DES RESULTATS COURONNE 3 (QUADRANGLES)  ;
# -------------------------------------------------


TEST_TABLE(REFERENCE='ANALYTIQUE',
           PRECISION=1.E-2,
           VALE_CALC=3.1679258552229E-03,
           VALE_REFE=3.1415800000000002E-3,
           NOM_PARA='G',
           TABLE=G_3,
           FILTRE=_F(NOM_PARA='NOM_CAS',
                     VALE_K='CH_UNI',),
           )

TEST_TABLE(REFERENCE='ANALYTIQUE',
           PRECISION=5.0000000000000001E-3,
           VALE_CALC=1.7807854998088,
           VALE_REFE=1.7724500000000001,
           NOM_PARA='K1',
           TABLE=G_3,
           FILTRE=_F(NOM_PARA='NOM_CAS',
                     VALE_K='CH_UNI',),
           )

TEST_TABLE(CRITERE='ABSOLU',
           REFERENCE='ANALYTIQUE',
           PRECISION=0.014999999999999999,
           VALE_CALC=-4.9214105013462E-15,
           VALE_REFE=0.0,
           NOM_PARA='K2',
           TABLE=G_3,
           FILTRE=_F(NOM_PARA='NOM_CAS',
                     VALE_K='CH_UNI',),
           )

#

TEST_TABLE(REFERENCE='ANALYTIQUE',
           PRECISION=5.0000000000000001E-3,
           VALE_CALC=0.010569915963646,
           VALE_REFE=0.0105349,
           NOM_PARA='G',
           TABLE=G_3,
           FILTRE=_F(NOM_PARA='NOM_CAS',
                     VALE_K='CH_EXP1',),
           )

TEST_TABLE(REFERENCE='ANALYTIQUE',
           PRECISION=5.0000000000000001E-3,
           VALE_CALC=3.2565955163317,
           VALE_REFE=3.2457600000000002,
           NOM_PARA='K1',
           TABLE=G_3,
           FILTRE=_F(NOM_PARA='NOM_CAS',
                     VALE_K='CH_EXP1',),
           )

TEST_TABLE(CRITERE='ABSOLU',
           REFERENCE='ANALYTIQUE',
           PRECISION=1.E-2,
           VALE_CALC=-2.9577035265405E-15,
           VALE_REFE=0.0,
           NOM_PARA='K2',
           TABLE=G_3,
           FILTRE=_F(NOM_PARA='NOM_CAS',
                     VALE_K='CH_EXP1',),
           )

#

TEST_TABLE(REFERENCE='ANALYTIQUE',
           PRECISION=0.014999999999999999,
           VALE_CALC=8.2583609534134,
           VALE_REFE=8.3567420000000006,
           NOM_PARA='G',
           TABLE=G_3,
           FILTRE=_F(NOM_PARA='NOM_CAS',
                     VALE_K='CH_EXP5',),
           )

TEST_TABLE(REFERENCE='ANALYTIQUE',
           PRECISION=5.0000000000000001E-3,
           VALE_CALC=91.529247332882,
           VALE_REFE=91.415220000000005,
           NOM_PARA='K1',
           TABLE=G_3,
           FILTRE=_F(NOM_PARA='NOM_CAS',
                     VALE_K='CH_EXP5',),
           )

TEST_TABLE(CRITERE='ABSOLU',
           REFERENCE='ANALYTIQUE',
           PRECISION=1.E-2,
           VALE_CALC=6.5170091545497E-14,
           VALE_REFE=0.0,
           NOM_PARA='K2',
           TABLE=G_3,
           FILTRE=_F(NOM_PARA='NOM_CAS',
                     VALE_K='CH_EXP5',),
           )

#

TEST_TABLE(REFERENCE='ANALYTIQUE',
           PRECISION=5.0000000000000001E-3,
           VALE_CALC=1.0011299447425E-03,
           VALE_REFE=1.00344E-3,
           NOM_PARA='G',
           TABLE=G_3,
           FILTRE=_F(NOM_PARA='NOM_CAS',
                     VALE_K='CH_SINH1',),
           )

TEST_TABLE(REFERENCE='ANALYTIQUE',
           PRECISION=5.0000000000000001E-3,
           VALE_CALC=1.0034800919982,
           VALE_REFE=1.0017199999999999,
           NOM_PARA='K1',
           TABLE=G_3,
           FILTRE=_F(NOM_PARA='NOM_CAS',
                     VALE_K='CH_SINH1',),
           )

TEST_TABLE(CRITERE='ABSOLU',
           REFERENCE='ANALYTIQUE',
           PRECISION=1.E-2,
           VALE_CALC=2.2273849431542E-15,
           VALE_REFE=0.0,
           NOM_PARA='K2',
           TABLE=G_3,
           FILTRE=_F(NOM_PARA='NOM_CAS',
                     VALE_K='CH_SINH1',),
           )

#

TEST_TABLE(REFERENCE='ANALYTIQUE',
           PRECISION=0.014999999999999999,
           VALE_CALC=1.8388065058707,
           VALE_REFE=1.86052,
           NOM_PARA='G',
           TABLE=G_3,
           FILTRE=_F(NOM_PARA='NOM_CAS',
                     VALE_K='CH_SINH5',),
           )

TEST_TABLE(REFERENCE='ANALYTIQUE',
           PRECISION=5.0000000000000001E-3,
           VALE_CALC=43.209809751398,
           VALE_REFE=43.133800000000001,
           NOM_PARA='K1',
           TABLE=G_3,
           FILTRE=_F(NOM_PARA='NOM_CAS',
                     VALE_K='CH_SINH5',),
           )

TEST_TABLE(CRITERE='ABSOLU',
           REFERENCE='ANALYTIQUE',
           PRECISION=1.E-2,
           VALE_CALC=7.4551476103579E-14,
           VALE_REFE=0.0,
           NOM_PARA='K2',
           TABLE=G_3,
           FILTRE=_F(NOM_PARA='NOM_CAS',
                     VALE_K='CH_SINH5',),
           )

#

TEST_TABLE(REFERENCE='ANALYTIQUE',
           PRECISION=1.E-2,
           VALE_CALC=5.065081201461E-03,
           VALE_REFE=5.0357099999999997E-3,
           NOM_PARA='G',
           TABLE=G_3,
           FILTRE=_F(NOM_PARA='NOM_CAS',
                     VALE_K='CH_COSH1',),
           )

TEST_TABLE(REFERENCE='ANALYTIQUE',
           PRECISION=5.0000000000000001E-3,
           VALE_CALC=2.2531154243335,
           VALE_REFE=2.24404,
           NOM_PARA='K1',
           TABLE=G_3,
           FILTRE=_F(NOM_PARA='NOM_CAS',
                     VALE_K='CH_COSH1',),
           )

TEST_TABLE(CRITERE='ABSOLU',
           REFERENCE='ANALYTIQUE',
           PRECISION=1.E-2,
           VALE_CALC=-4.5293629957754E-15,
           VALE_REFE=0.0,
           NOM_PARA='K2',
           TABLE=G_3,
           FILTRE=_F(NOM_PARA='NOM_CAS',
                     VALE_K='CH_COSH1',),
           )

#

TEST_TABLE(REFERENCE='ANALYTIQUE',
           PRECISION=0.014999999999999999,
           VALE_CALC=2.3034430605633,
           VALE_REFE=2.3310949999999999,
           NOM_PARA='G',
           TABLE=G_3,
           FILTRE=_F(NOM_PARA='NOM_CAS',
                     VALE_K='CH_COSH5',),
           )

TEST_TABLE(PRECISION=5.0000000000000001E-3,
           VALE_CALC=48.319437581484,
           VALE_REFE=48.281419999999997,
           REFERENCE='NON_DEFINI',
           NOM_PARA='K1',
           TABLE=G_3,
           FILTRE=_F(NOM_PARA='NOM_CAS',
                     VALE_K='CH_COSH5',),
           )

TEST_TABLE(CRITERE='ABSOLU',
           REFERENCE='ANALYTIQUE',
           PRECISION=1.E-2,
           VALE_CALC=-4.0800696154975E-15,
           VALE_REFE=0.0,
           NOM_PARA='K2',
           TABLE=G_3,
           FILTRE=_F(NOM_PARA='NOM_CAS',
                     VALE_K='CH_COSH5',),
           )

#

TEST_TABLE(REFERENCE='ANALYTIQUE',
           PRECISION=0.014999999999999999,
           VALE_CALC=1.8612371624275E-03,
           VALE_REFE=1.8394800000000001E-3,
           NOM_PARA='G',
           TABLE=G_3,
           FILTRE=_F(NOM_PARA='NOM_CAS',
                     VALE_K='CH_COS1',),
           )

TEST_TABLE(REFERENCE='ANALYTIQUE',
           PRECISION=1.E-2,
           VALE_CALC=1.3639036081522,
           VALE_REFE=1.356277,
           NOM_PARA='K1',
           TABLE=G_3,
           FILTRE=_F(NOM_PARA='NOM_CAS',
                     VALE_K='CH_COS1',),
           )

TEST_TABLE(CRITERE='ABSOLU',
           REFERENCE='ANALYTIQUE',
           PRECISION=1.E-2,
           VALE_CALC=-4.5701289974609E-15,
           VALE_REFE=0.0,
           NOM_PARA='K2',
           TABLE=G_3,
           FILTRE=_F(NOM_PARA='NOM_CAS',
                     VALE_K='CH_COS1',),
           )

#

TEST_TABLE(CRITERE='ABSOLU',
           REFERENCE='ANALYTIQUE',
           PRECISION=1.0000000000000001E-05,
           VALE_CALC=4.0036603343298E-08,
           VALE_REFE=0.0,
           NOM_PARA='G',
           TABLE=G_COS53,)

TEST_TABLE(CRITERE='ABSOLU',
           REFERENCE='ANALYTIQUE',
           PRECISION=5.0000000000000001E-3,
           VALE_CALC=4.7098419689189E-03,
           VALE_REFE=0.0,
           NOM_PARA='K1',
           TABLE=G_COS53,)

TEST_TABLE(CRITERE='ABSOLU',
           REFERENCE='ANALYTIQUE',
           PRECISION=1.0000000000000001E-05,
           VALE_CALC=-3.2365603253037E-15,
           VALE_REFE=0.0,
           NOM_PARA='K2',
           TABLE=G_COS53,)

# VALIDATION INFORMATION CALC_G
# PRISE EN COMPTE DES COMBINAISONS DE CHARGEMENT
# -----------------------------
LI1 = DEFI_LIST_REEL (DEBUT = -1., INTERVALLE=_F(JUSQU_A=1., PAS=0.01),)

CO1 = CALC_FONC_INTERP (FONCTION= COS1, LIST_PARA = LI1,
            INTERPOL='LIN', TITRE='FONCTION COS1' )

CH_COS1F=AFFE_CHAR_MECA_F(   MODELE=MO, 
                 PRES_REP=_F(   GROUP_MA = ( 'LEV_SUP', 
                                             'LEV_INF' ), 
                                 PRES = CO1)
                                  )
RE_TMP=MECA_STATIQUE(   MODELE=MO,   
                        CHAM_MATER=CHMAT,
                        EXCIT=( _F( CHARGE = CH_UNI), 
                                _F( CHARGE = CH_COS1F),
                                _F( CHARGE = CL))
                         )

G_TMP=CALC_G(RESULTAT=RE_TMP,
             THETA=_F(FOND_FISS=FOND,
                      DIRECTION=(1., 0., 0., ),
                      R_INF = C1,
                      R_SUP = C2,),
             OPTION='CALC_K_G'
                          )

TEST_TABLE(CRITERE='RELATIF',
           VALE_CALC=2.9234855308366,
           NOM_PARA='K1',
           TABLE=G_TMP)

FIN( )
#

