# ======================================================================
# COPYRIGHT (C) 1991 - 2016  EDF R&D                  WWW.CODE-ASTER.ORG
# THIS PROGRAM IS FREE SOFTWARE; YOU CAN REDISTRIBUTE IT AND/OR MODIFY
# IT UNDER THE TERMS OF THE GNU GENERAL PUBLIC LICENSE AS PUBLISHED BY
# THE FREE SOFTWARE FOUNDATION; EITHER VERSION 2 OF THE LICENSE, OR
# (AT YOUR OPTION) ANY LATER VERSION.
#
# THIS PROGRAM IS DISTRIBUTED IN THE HOPE THAT IT WILL BE USEFUL, BUT
# WITHOUT ANY WARRANTY; WITHOUT EVEN THE IMPLIED WARRANTY OF
# MERCHANTABILITY OR FITNESS FOR A PARTICULAR PURPOSE. SEE THE GNU
# GENERAL PUBLIC LICENSE FOR MORE DETAILS.
#
# YOU SHOULD HAVE RECEIVED A COPY OF THE GNU GENERAL PUBLIC LICENSE
# ALONG WITH THIS PROGRAM; IF NOT, WRITE TO EDF R&D CODE_ASTER,
#    1 AVENUE DU GENERAL DE GAULLE, 92141 CLAMART CEDEX, FRANCE.
# ======================================================================
# person_in_charge: samuel.geniaut at edf.fr

# MODELISATION B: METHODE GEOMETRIQUE

DEBUT(CODE=_F(NIV_PUB_WEB='INTERNET',VISU_EFICAS='NON'),DEBUG=_F(SDVERI='OUI'))

#----------------------------------------------
#                 MAILLAGE
#----------------------------------------------
MAILLAG1=LIRE_MAILLAGE(FORMAT='MED',);

#Nb de pas de propagation
NPAS = 13

#Pas de propagation
DA = 3.5

# RAYONS INFERIEUR ET SUPERIEUR DES COURONNES D'INTEGRATION POUR CALC_G
RI = 3.
RS = 12.
RP = 12.

#longueur de fissure initiale
xinit = 65.
yinit = 19.

#----------------------------------------------
#                   MODELE
#----------------------------------------------


MODE = [None]*(NPAS+1)

MODEL=AFFE_MODELE(MAILLAGE=MAILLAG1,
                      AFFE=(_F(GROUP_MA=('Surface',),
                               PHENOMENE='MECANIQUE',
                               MODELISATION='D_PLAN',),),);

#----------------------------------------------
#                   MATERIAU
#----------------------------------------------

E=31370E6
nu=0.2

ACIER=DEFI_MATERIAU(ELAS=_F(E=E,NU=nu,),);


#----------------------------------------------
#                   FISSURE
#----------------------------------------------

# PARAMETRES DE LA FISSURE

X0 = xinit
Y0 = yinit

LN=FORMULE(NOM_PARA=('X','Y'),VALE='X-X0');
LT=FORMULE(NOM_PARA=('X','Y'),VALE='Y-Y0');

FISS = [None]*(NPAS+2)

FISS[0]=DEFI_FISS_XFEM(MAILLAGE=MAILLAG1,
                       DEFI_FISS=_F(FONC_LT=LT,FONC_LN=LN,),
                        TYPE_ENRI_FOND = 'GEOMETRIQUE',
                        RAYON_ENRI = 12.,
                       );

#----------------------------------------------
#         PROPAGATION SUR 3 PAS DE TEMPS
#----------------------------------------------

CHXFE = [None]*(NPAS+1)
RESU = [None]*(NPAS+1)
SIF = [None]*(NPAS+1)
LSN = [None]*(NPAS+1)
LST = [None]*(NPAS+1)
CHAMA = [None]*(NPAS+1)
CHRIG = [None]*(NPAS+1)

LSN[0]=CREA_CHAMP(TYPE_CHAM='NOEU_NEUT_R',
                  OPERATION='EXTR',
                  FISSURE=FISS[0],
                  NOM_CHAM='LNNO',);
LST[0]=CREA_CHAMP(TYPE_CHAM='NOEU_NEUT_R',
                  OPERATION='EXTR',
                  FISSURE=FISS[0],
                  NOM_CHAM='LTNO',);

# REFERENCES METHODE MAILLAGE
VAL_REFE=[
0.245840984011,
0.04284493048,
0.29220793291,
0.00336693407712,
0.335140406415,
0.00218596855062,
0.378085258502,
0.00400876955346,
0.438065890335,
0.00096771214188,
0.50337265271,
0.000417770991837,
0.580939825766,
-0.00120501403438,
0.676613838544,
-0.00345638750547,
0.800002212022,
-0.00490747093074,
0.953930756663,
-0.0102599373299,
1.18294575462,
-0.0168458629648,
1.50312266143,
-0.0261973725104,
1.99674162713,
-0.0345814534436,
2.85077429643,
-0.0723702325641,]

VAL_CALC= [
0.245841990741,
0.0428344653326,
0.292380011809,
0.00460856662991,
0.335365184606,
-0.000154347428424,
0.37806551024,
0.0048805714334,
0.438075738209,
0.00132555018246,
0.503629865786,
-0.00120754760498,
0.580316826383,
-0.00700171449289,
0.682310900592,
0.0206122694518,
0.798403511234,
-0.00897546254666,
0.983106557392,
-0.0495808159092,
1.19230131804,
0.0106987246459,
1.52103447768,
0.00721504604238,
2.08717280795,
-0.162110848859,
]



for i in range(1,NPAS+1) :

    MODE[i]=MODI_MODELE_XFEM(MODELE_IN=MODEL,FISSURE=FISS[i-1],);


    CHAMA[i]=AFFE_MATERIAU(MAILLAGE=MAILLAG1,
                       MODELE=MODE[i],
                       AFFE=_F(TOUT = 'OUI',
                                MATER=ACIER,
                                ),
                             );

    CHRIG[i]=AFFE_CHAR_MECA(MODELE=MODE[i],
                      DDL_IMPO=( _F(GROUP_NO=('P1',), DX=0.0, DY=0.0),_F(GROUP_NO=('P2',), DY=0.0)),
                      FORCE_NODALE=_F(GROUP_NO=('P3',),FY=-1.,),
                                    );

    RESU[i]=MECA_STATIQUE(MODELE=MODE[i],
                         CHAM_MATER=CHAMA[i],
                         EXCIT=(
                                _F(CHARGE=CHRIG[i],),),
                         INST=1.0,
                         );

    SIF[i]=CALC_G        (RESULTAT=RESU[i],
                         OPTION='CALC_K_G',
                         THETA=_F( FISSURE=FISS[i-1],
                                  # R_INF=RI,
                                  # R_SUP=RS,
                                 ),
                         );

    IMPR_TABLE(TABLE=SIF[i]);

# TEST DE KI PAR RAPPORT A KI RERERENCE (MAILLAGE)
    TEST_TABLE(CRITERE='RELATIF',
               REFERENCE='AUTRE_ASTER',
               PRECISION=0.05,
               VALE_CALC=VAL_CALC[(i-1)*2+0],
               VALE_REFE=VAL_REFE[(i-1)*2+0],
               NOM_PARA='K1',
               TYPE_TEST='MAX',
               TABLE=SIF[i],)

# TEST DE KII PAR RAPPORT A KII REFERENCE (MAILLAGE)
# ON TESTE JUSTE SI KII NEST PAS TROP ELEVE PAR RAPPORT A KI (DE L ORDRE DE 1)
    TEST_TABLE(CRITERE='ABSOLU',
               REFERENCE='AUTRE_ASTER',
               PRECISION=15.e-2,
               VALE_CALC=VAL_CALC[(i-1)*2+1],
               VALE_REFE=VAL_REFE[(i-1)*2+1],
               NOM_PARA='K2',
               TYPE_TEST='MAX',
               TABLE=SIF[i],)

    FISS[i] = CO('FISS_%d'%(i))

    if ( i != NPAS+1 ) :

        PROPA_FISS(METHODE_PROPA='SIMPLEXE',
                MODELE=MODE[i],
                FISSURE=_F(FISS_ACTUELLE=FISS[i-1],
                            FISS_PROPAGEE=FISS[i],
                            TABLE=SIF[i],),
                RAYON=RP,
                RAYON_TORE=25.0,
                DA_MAX=DA,
                LOI_PROPA =_F(LOI='PARIS',
                                C=1.,
                                M=1.,
                                MATER=ACIER,),
                COMP_LINE =_F(COEF_MULT_MINI=0.,
                              COEF_MULT_MAXI=1.,),
                );

        LSN[i]=CREA_CHAMP(TYPE_CHAM='NOEU_NEUT_R',
                           OPERATION='EXTR',
                           FISSURE=FISS[i],
                           NOM_CHAM='LNNO',);
        LST[i]=CREA_CHAMP(TYPE_CHAM='NOEU_NEUT_R',
                           OPERATION='EXTR',
                           FISSURE=FISS[i],
                           NOM_CHAM='LTNO',);

#      CHERR[0] = RAFF_XFEM(FISSURE=FISS[i+1])
#      DETRUIRE(CONCEPT=_F(NOM=MODX[i],))
#      DETRUIRE(CONCEPT=_F(NOM=ModH[i],))

#----------------------------------------------
#         EDITION DE FICHIERS MED
#----------------------------------------------
for i in range(1,NPAS+1) :
    MAXFE = [None]*(NPAS+1)
    MOVIS = [None]*(NPAS+1)
    DEPL = [None]*(NPAS+1)


    MAXFE[i]=POST_MAIL_XFEM(MODELE=MODE[i]);

    MOVIS[i]=AFFE_MODELE(MAILLAGE=MAXFE[i],
                         AFFE=_F(TOUT='OUI',
                                 PHENOMENE='MECANIQUE',
                                 MODELISATION='D_PLAN',),)

    DEPL[i]=POST_CHAM_XFEM(
                          MODELE_VISU   = MOVIS[i],
                          RESULTAT=RESU[i],
                          );

    DEFI_FICHIER(UNITE=30,);
    IMPR_RESU(   FORMAT='MED',
             UNITE=30,
             RESU=_F(RESULTAT=DEPL[i],),);


FIN();
