# MODIF  DATE 21/06/2011   AUTEUR MACOCCO K.MACOCCO 
# TITRE PLAQUE FISSUREE EN TRACTION (CALCUL DE G, K1 ET K2)
#            CONFIGURATION MANAGEMENT OF EDF VERSION
# ======================================================================
# COPYRIGHT (C) 1991 - 2011  EDF R&D                  WWW.CODE-ASTER.ORG
# THIS PROGRAM IS FREE SOFTWARE; YOU CAN REDISTRIBUTE IT AND/OR MODIFY
# IT UNDER THE TERMS OF THE GNU GENERAL PUBLIC LICENSE AS PUBLISHED BY
# THE FREE SOFTWARE FOUNDATION; EITHER VERSION 2 OF THE LICENSE, OR
# (AT YOUR OPTION) ANY LATER VERSION.
#
# THIS PROGRAM IS DISTRIBUTED IN THE HOPE THAT IT WILL BE USEFUL, BUT
# WITHOUT ANY WARRANTY; WITHOUT EVEN THE IMPLIED WARRANTY OF
# MERCHANTABILITY OR FITNESS FOR A PARTICULAR PURPOSE. SEE THE GNU
# GENERAL PUBLIC LICENSE FOR MORE DETAILS.
#
# YOU SHOULD HAVE RECEIVED A COPY OF THE GNU GENERAL PUBLIC LICENSE
# ALONG WITH THIS PROGRAM; IF NOT, WRITE TO EDF R&D CODE_ASTER,
#    1 AVENUE DU GENERAL DE GAULLE, 92141 CLAMART CEDEX, FRANCE.
# ======================================================================
# CONTRAINTES PLANES
# CALCUL DE L INTEGRALE G SUR DIFFERENTES COURONNES D'INTEGRATION
# CALCUL DES COEFFICIENTS D'INTENSITE DE CONTRAINTES K1 ET K2
#
DEBUT(CODE=_F(NOM='SSLP101B',NIV_PUB_WEB='INTERNET'),DEBUG=_F(SDVERI='OUI'))

MA=LIRE_MAILLAGE(  )

MO=AFFE_MODELE(  MAILLAGE=MA,
                               AFFE=_F( TOUT = 'OUI',
                                     PHENOMENE = 'MECANIQUE',
                                     MODELISATION = 'C_PLAN'))

MAT=DEFI_MATERIAU(ELAS=_F(  E = 200000., NU = 0.3, RHO = 1.))

CHMAT=AFFE_MATERIAU(  MAILLAGE=MA,
                           AFFE=_F(  TOUT = 'OUI',MATER = MAT))

#-----------------------------------------------------------------------
CH=AFFE_CHAR_MECA(  MODELE=MO,DDL_IMPO=(
                                 _F(  GROUP_NO = 'GRNM5', DY = 0.),
                                          _F(  NOEUD = 'N451', DX = 0.)),
                            FORCE_CONTOUR=_F(  GROUP_MA = 'GRMA1', FY = 1.) )

FCONT = FORMULE(NOM_PARA=('X','Y'),VALE='1.')

CHFONC=AFFE_CHAR_MECA_F(  MODELE=MO,
                            FORCE_CONTOUR=_F(  GROUP_MA = 'GRMA1',
                                             FY = FCONT)    )

#-----------------------------------------------------------------------

CHAMDEPL=MECA_STATIQUE(   MODELE=MO,   CHAM_MATER=CHMAT,
                              EXCIT=_F( CHARGE = CH))

THETA1=CALC_THETA(      MODELE=MO,
                        THETA_2D=_F(  NOEUD = 'N668', MODULE = 1.,
                                            R_INF = 22.04078,
                                            R_SUP = 30.),
                       DIRECTION=( 1., 0., 0.,))

THETA2=CALC_THETA(    MODELE=MO,
                      THETA_2D=_F(  NOEUD = 'N668', MODULE = 1.,
                                 R_SUP = 22.04078,
                                 R_INF = 15.3061094),
                       DIRECTION=( 1., 0., 0.,))

THETA3=CALC_THETA(    MODELE=MO,
                      THETA_2D=_F(  NOEUD = 'N668', MODULE = 1.,
                                 R_INF = 9.79591846,
                                 R_SUP = 15.3061094),
                       DIRECTION=( 1., 0., 0.,))

THETA4=CALC_THETA(    MODELE=MO,
                      THETA_2D=_F(  NOEUD = 'N668', MODULE = 1.,
                                 R_SUP = 9.79591846,
                                 R_INF = 5.510197639),
                       DIRECTION=( 1., 0., 0.,))

THETA5=CALC_THETA(    MODELE=MO,
                      THETA_2D=_F(  NOEUD = 'N668', MODULE = 1.,
                                 R_INF = 2.448979377,
                                 R_SUP = 5.510197639),
                       DIRECTION=( 1., 0., 0.,))

THETA6=CALC_THETA(   MODELE=MO,
                     THETA_2D=_F(  NOEUD = 'N668', MODULE = 1.,
                                R_SUP = 2.448979377,
                                R_INF = 0.61225116),
                       DIRECTION=( 1., 0., 0.,))

FOND=DEFI_FOND_FISS( MAILLAGE=MA,
                       FOND_FISS=_F( NOEUD = 'N668'),
                       NORMALE=(0., 1., 0.,))

G1=CALC_G(              RESULTAT=CHAMDEPL,
                        NUME_ORDRE=1,
                        THETA=_F(THETA=THETA1),
#                        EXCIT=_F(CHARGE=CHFONC,),
                        SYME_CHAR='SYME',)

GK1=CALC_G(             RESULTAT=CHAMDEPL,
                        NUME_ORDRE=1,
                        THETA=_F(R_INF = 22.04078,
                                 R_SUP = 30.,
                                 DIRECTION=( 1., 0., 0.,),
                                 FOND_FISS=FOND),
                        SYME_CHAR='SYME',
#                        EXCIT=_F(CHARGE=CHFONC,),
                        OPTION='CALC_K_G')

IMPR_TABLE(TABLE=GK1)

G2=CALC_G(              RESULTAT=CHAMDEPL,
                        NUME_ORDRE=1,
                        THETA=_F(THETA=THETA2),
#                        EXCIT=_F(CHARGE=CHFONC,),
                        SYME_CHAR='SYME',)

GK2=CALC_G(             RESULTAT=CHAMDEPL,
                        NUME_ORDRE=1,
                        THETA=_F(
                                 R_SUP = 22.04078,
                                 R_INF = 15.3061094,
                                 DIRECTION=( 1., 0., 0.,),
                                 FOND_FISS=FOND),
                        SYME_CHAR='SYME',
#                        EXCIT=_F(CHARGE=CHFONC,),
                        OPTION='CALC_K_G')

G3=CALC_G(              RESULTAT=CHAMDEPL,
                        NUME_ORDRE=1,
                        THETA=_F(THETA=THETA3),
#                        EXCIT=_F(CHARGE=CHFONC,),
                        SYME_CHAR='SYME',)

GK3=CALC_G(             RESULTAT=CHAMDEPL,
                        NUME_ORDRE=1,
                        THETA=_F(
                                 R_INF = 9.79591846,
                                 R_SUP = 15.3061094,
                                 DIRECTION=( 1., 0., 0.,),
                                 FOND_FISS=FOND),
                        SYME_CHAR='SYME',
#                        EXCIT=_F(CHARGE=CHFONC,),
                        OPTION='CALC_K_G')

G4=CALC_G(              RESULTAT=CHAMDEPL,
                        NUME_ORDRE=1,
                        THETA=_F(THETA=THETA4),
#                        EXCIT=_F(CHARGE=CHFONC,),
                        SYME_CHAR='SYME',)

GK4=CALC_G(              RESULTAT=CHAMDEPL,
                         NUME_ORDRE=1,
                         THETA=_F(
                                 R_SUP = 9.79591846,
                                 R_INF = 5.510197639,
                                 DIRECTION=( 1., 0., 0.,),
                                 FOND_FISS=FOND),
                         SYME_CHAR='SYME',
#                         EXCIT=_F(CHARGE=CHFONC,),
                         OPTION='CALC_K_G')

G5=CALC_G(               RESULTAT=CHAMDEPL,
                         NUME_ORDRE=1,
                         THETA=_F(THETA=THETA5),
#                         EXCIT=_F(CHARGE=CHFONC,),
                         SYME_CHAR='SYME',)

GK5=CALC_G(              RESULTAT=CHAMDEPL,
                         NUME_ORDRE=1,
                         THETA=_F(
                                 R_INF = 2.448979377,
                                 R_SUP = 5.510197639,
                                 DIRECTION=( 1., 0., 0.,),
                                 FOND_FISS=FOND),
                         SYME_CHAR='SYME',
#                         EXCIT=_F(CHARGE=CHFONC,),
                         OPTION='CALC_K_G')

G6=CALC_G(               RESULTAT=CHAMDEPL,
                         NUME_ORDRE=1,
                         THETA=_F(THETA=THETA6),
#                         EXCIT=_F(CHARGE=CHFONC,),
                         SYME_CHAR='SYME',)

GK6=CALC_G(              RESULTAT=CHAMDEPL,
                         NUME_ORDRE=1,
                            THETA=_F(
                                R_SUP = 2.448979377,
                                R_INF = 0.61225116,
                                DIRECTION=( 1., 0., 0.,),
                                FOND_FISS=FOND),
                         SYME_CHAR='SYME',
#                         EXCIT=_F(CHARGE=CHFONC,),
                         OPTION='CALC_K_G')

TEST_TABLE(       TABLE=G1,
                       NOM_PARA='G',
                           VALE=2.3093E-3,
                      PRECISION=5.E-3     )

TEST_TABLE(       TABLE=GK1,
                       NOM_PARA='G',
                           VALE=2.3093E-3,
                      PRECISION=5.E-3     )

TEST_TABLE(       TABLE=GK1,
                       NOM_PARA='G_IRWIN',
                           VALE=2.3093E-3,
                      PRECISION=5.E-3     )

TEST_TABLE(       TABLE=GK1,
                       NOM_PARA='K1',
                           VALE=2.1491E+1,
                      PRECISION=5.E-3     )

TEST_TABLE(       TABLE=GK1,
                       NOM_PARA='K2',
                           VALE=0.0,
                        CRITERE='ABSOLU',
                      PRECISION=1.E-4     )

TEST_TABLE(       TABLE=G2,
                       NOM_PARA='G',
                           VALE=2.3093E-3,
                      PRECISION=5.E-3     )

TEST_TABLE(       TABLE=GK2,
                       NOM_PARA='G',
                           VALE=2.3093E-3,
                      PRECISION=5.E-3     )

TEST_TABLE(       TABLE=GK2,
                       NOM_PARA='G_IRWIN',
                           VALE=2.3093E-3,
                      PRECISION=5.E-3     )

TEST_TABLE(       TABLE=GK2,
                       NOM_PARA='K1',
                           VALE=2.1491E+1,
                      PRECISION=5.E-3     )

TEST_TABLE(       TABLE=GK2,
                       NOM_PARA='K2',
                           VALE=0.0,
                        CRITERE='ABSOLU',
                      PRECISION=1.E-4     )

TEST_TABLE(       TABLE=G3,
                       NOM_PARA='G',
                           VALE=2.3093E-3,
                      PRECISION=5.E-3     )

TEST_TABLE(       TABLE=GK3,
                       NOM_PARA='G',
                           VALE=2.3093E-3,
                      PRECISION=5.E-3     )

TEST_TABLE(       TABLE=GK3,
                       NOM_PARA='G_IRWIN',
                           VALE=2.3093E-3,
                      PRECISION=5.E-3     )

TEST_TABLE(       TABLE=GK3,
                       NOM_PARA='K1',
                           VALE=2.1491E+1,
                      PRECISION=5.E-3     )

TEST_TABLE(       TABLE=GK3,
                       NOM_PARA='K2',
                           VALE=0.0,
                        CRITERE='ABSOLU',
                      PRECISION=1.E-4     )

TEST_TABLE(       TABLE=G4,
                       NOM_PARA='G',
                           VALE=2.3093E-3,
                      PRECISION=5.E-3     )

TEST_TABLE(       TABLE=GK4,
                       NOM_PARA='G',
                           VALE=2.3093E-3,
                      PRECISION=5.E-3     )

TEST_TABLE(       TABLE=GK4,
                       NOM_PARA='G_IRWIN',
                           VALE=2.3093E-3,
                      PRECISION=5.E-3     )

TEST_TABLE(       TABLE=GK4,
                       NOM_PARA='K1',
                           VALE=2.1491E+1,
                      PRECISION=5.E-3     )

TEST_TABLE(       TABLE=GK4,
                       NOM_PARA='K2',
                           VALE=0.0,
                        CRITERE='ABSOLU',
                      PRECISION=1.E-4     )

TEST_TABLE(       TABLE=G5,
                       NOM_PARA='G',
                           VALE=2.3093E-3,
                      PRECISION=5.E-3     )

TEST_TABLE(       TABLE=GK5,
                       NOM_PARA='G',
                           VALE=2.3093E-3,
                      PRECISION=5.E-3     )

TEST_TABLE(       TABLE=GK5,
                       NOM_PARA='G_IRWIN',
                           VALE=2.3093E-3,
                      PRECISION=5.1E-3     )

TEST_TABLE(       TABLE=GK5,
                       NOM_PARA='K1',
                           VALE=2.1491E+1,
                      PRECISION=5.E-3      )

TEST_TABLE(       TABLE=GK5,
                       NOM_PARA='K2',
                           VALE=0.0,
                        CRITERE='ABSOLU',
                      PRECISION=1.E-4      )

TEST_TABLE(       TABLE=G6,
                       NOM_PARA='G',
                           VALE=2.3093E-3,
                      PRECISION=1.E-2      )

TEST_TABLE(       TABLE=GK6,
                       NOM_PARA='G',
                           VALE=2.3093E-3,
                      PRECISION=1.E-2      )

TEST_TABLE(       TABLE=GK6,
                       NOM_PARA='G_IRWIN',
                           VALE=2.3093E-3,
                      PRECISION=1.E-2      )

TEST_TABLE(       TABLE=GK6,
                       NOM_PARA='K1',
                           VALE=2.1491E+1,
                      PRECISION=5.E-3    )

TEST_TABLE(       TABLE=GK6,
                       NOM_PARA='K2',
                           VALE=0.0,
                        CRITERE='ABSOLU',
                      PRECISION=1.E-4      )

MASSES=POST_ELEM(        MODELE=MO,
                         CHAM_MATER=CHMAT,
                          MASS_INER=_F(  TOUT = 'OUI')
                     )

TEST_TABLE(  TABLE=MASSES,
                 NOM_PARA='MASSE',
                  FILTRE=_F(  NOM_PARA = 'LIEU', VALE_K = 'MA'),
                  VALE=25000.0
              )

TEST_TABLE(  TABLE=MASSES,
                 NOM_PARA='IX_G',
                  FILTRE=_F(  NOM_PARA = 'LIEU', VALE_K = 'MA'),
                  VALE=130208333.333
              )

TEST_TABLE(  TABLE=MASSES,
                 NOM_PARA='IY_G',
                  FILTRE=_F(  NOM_PARA = 'LIEU', VALE_K = 'MA'),
                  VALE=20833333.333
              )

TEST_TABLE(  TABLE=MASSES,
                 NOM_PARA='IZ_G',
                  FILTRE=_F(  NOM_PARA = 'LIEU', VALE_K = 'MA'),
                  VALE=151041666.666
              )

FIN(  )
# ;
