# ======================================================================
# COPYRIGHT (C) 1991 - 2016  EDF R&D                  WWW.CODE-ASTER.ORG
# THIS PROGRAM IS FREE SOFTWARE; YOU CAN REDISTRIBUTE IT AND/OR MODIFY
# IT UNDER THE TERMS OF THE GNU GENERAL PUBLIC LICENSE AS PUBLISHED BY
# THE FREE SOFTWARE FOUNDATION; EITHER VERSION 2 OF THE LICENSE, OR
# (AT YOUR OPTION) ANY LATER VERSION.
#
# THIS PROGRAM IS DISTRIBUTED IN THE HOPE THAT IT WILL BE USEFUL, BUT
# WITHOUT ANY WARRANTY; WITHOUT EVEN THE IMPLIED WARRANTY OF
# MERCHANTABILITY OR FITNESS FOR A PARTICULAR PURPOSE. SEE THE GNU
# GENERAL PUBLIC LICENSE FOR MORE DETAILS.
#
# YOU SHOULD HAVE RECEIVED A COPY OF THE GNU GENERAL PUBLIC LICENSE
# ALONG WITH THIS PROGRAM; IF NOT, WRITE TO EDF R&D CODE_ASTER,
#    1 AVENUE DU GENERAL DE GAULLE, 92141 CLAMART CEDEX, FRANCE.
# ======================================================================
# DE LA FISSURE (CALCUL G,K1,K2 )
#
DEBUT(CODE=_F(NIV_PUB_WEB='INTERNET'),DEBUG=_F(SDVERI='OUI'))

MA=LIRE_MAILLAGE(FORMAT='MED',  )

MO=AFFE_MODELE(  MAILLAGE=MA,
                             AFFE=_F( TOUT = 'OUI',
                                   PHENOMENE = 'MECANIQUE',
                                   MODELISATION = 'C_PLAN'))

MAT=DEFI_MATERIAU(ELAS=_F(  E = 200000., NU = 0.3, RHO = 0., ALPHA = 0.))

CHMAT=AFFE_MATERIAU(  MAILLAGE=MA,AFFE=_F(  TOUT = 'OUI',MATER = MAT))

# --- CHARGEMENTS FONCTIONS ------------------------------------------

ZERO  = FORMULE(NOM_PARA=('X','Y'),VALE='0.')
FCONT = FORMULE(NOM_PARA=('X','Y'),VALE='(X-100.0)/37.5')

CHPRES=AFFE_CHAR_MECA_F(  MODELE=MO,DDL_IMPO=(
                              _F(  GROUP_NO = 'GRNM5', DY = ZERO),
                                       _F(  NOEUD = 'N451', DX = ZERO)),
                              PRES_REP=_F(  GROUP_MA = 'GRMA4',
                                         PRES = FCONT)
                           )

CHFCONT=AFFE_CHAR_MECA_F(  MODELE=MO,DDL_IMPO=(
                                 _F(  GROUP_NO = 'GRNM5', DY = ZERO),
                                          _F(  NOEUD = 'N451', DX = ZERO)),
                            FORCE_CONTOUR=_F(  GROUP_MA = 'GRMA4',
                                            FY = FCONT)
                           )

# ---------------------------------------------------------------------

RESU1=MECA_STATIQUE(   MODELE=MO,   CHAM_MATER=CHMAT,
                          EXCIT=_F( CHARGE = CHPRES))

RESU2=MECA_STATIQUE(   MODELE=MO,   CHAM_MATER=CHMAT,
                          EXCIT=_F( CHARGE = CHFCONT))


# ---------------------------------------------------------------------







FOND=DEFI_FOND_FISS( MAILLAGE=MA,
                       FOND_FISS=_F( NOEUD = 'N668'),
                       SYME='OUI',
                       LEVRE_SUP=_F(MAILLE='M306'),
)

# ---- G, K1 ET K2 AVEC CHARGEMENT PRES_REP  ----------------------

GPRES1=CALC_G(      RESULTAT=RESU1,
                    THETA=_F(
                             R_INF=22.04078,
                             FOND_FISS=FOND,
                             MODULE=1.,
                             R_SUP=30.,
                             DIRECTION=( 1., 0., 0.,)),

              )
              
GKPRES1=CALC_G(     RESULTAT=RESU1,
                    THETA=_F(  R_INF = 22.04078,
                               R_SUP = 30.,
                               FOND_FISS=FOND),
                    OPTION='CALC_K_G')

GPRES2=CALC_G(      RESULTAT=RESU1,
                    THETA=_F(
                             R_INF=15.3061094,
                             FOND_FISS=FOND,
                             MODULE=1.,
                             R_SUP=22.04078,
                             DIRECTION=( 1., 0., 0.,)),
    )
                             
GKPRES2=CALC_G(     RESULTAT=RESU1,
                    THETA=_F( R_SUP = 22.04078,
                              R_INF = 15.3061094,
                              FOND_FISS=FOND),
                    OPTION='CALC_K_G')

GPRES3=CALC_G(      RESULTAT=RESU1,
                    THETA=_F(
                             R_INF=9.79591846,
                             FOND_FISS=FOND,
                             MODULE=1.,
                             R_SUP=15.3061094,
                             DIRECTION=( 1., 0., 0.,)),
              )
                             

GKPRES3=CALC_G(     RESULTAT=RESU1,
                    THETA=_F( R_INF = 9.79591846,
                              R_SUP = 15.3061094,
                              FOND_FISS=FOND),
                    OPTION='CALC_K_G')

GPRES4=CALC_G(      RESULTAT=RESU1,
                    THETA=_F(
                             R_INF=5.510197639,
                             FOND_FISS=FOND,
                             MODULE=1.,
                             R_SUP=9.79591846,
                             DIRECTION=( 1., 0., 0.,)),
    )
                             
GKPRES4=CALC_G(     RESULTAT=RESU1,
                    THETA=_F( R_SUP = 9.79591846,
                              R_INF = 5.510197639,
                              FOND_FISS=FOND),
                    OPTION='CALC_K_G')

GPRES5=CALC_G(      RESULTAT=RESU1,
                    THETA=_F(
                             R_INF=2.448979377,
                             FOND_FISS=FOND,
                             MODULE=1.,
                             R_SUP=5.510197639,
                             DIRECTION=( 1., 0., 0.,)),
               )

GKPRES5=CALC_G(     RESULTAT=RESU1,
                    THETA=_F( R_INF = 2.448979377,
                              R_SUP = 5.510197639,
                              FOND_FISS=FOND),
                    OPTION='CALC_K_G')

GPRES6=CALC_G(      RESULTAT=RESU1,
                    THETA=_F(
                             R_INF=0.61225116,
                             FOND_FISS=FOND,
                             MODULE=1.,
                             R_SUP=2.448979377,
                             DIRECTION=( 1., 0., 0.,)),
              )

GKPRES6=CALC_G(     RESULTAT=RESU1,
                    THETA=_F(R_SUP = 2.448979377,
                             R_INF = 0.61225116,
                             FOND_FISS=FOND),
                    OPTION='CALC_K_G')

# ---- G, K1 ET K2 AVEC CHARGEMENT FORCE_CONTOUR --------------------

GFCON1=CALC_G(      RESULTAT=RESU2,
                    THETA=_F(
                             R_INF=22.04078,
                             FOND_FISS=FOND,
                             MODULE=1.,
                             R_SUP=30.,
                             DIRECTION=( 1., 0., 0.,)),
              )

GKFCON1=CALC_G(     RESULTAT=RESU2,
                    THETA=_F(  R_INF = 22.04078,
                               R_SUP = 30.,
                               FOND_FISS=FOND),
                    OPTION='CALC_K_G')

GFCON2=CALC_G(      RESULTAT=RESU2,
                    THETA=_F(
                             R_INF=22.04078,
                             FOND_FISS=FOND,
                             MODULE=1.,
                             R_SUP=30.,
                             DIRECTION=( 1., 0., 0.,)),
              )

GKFCON2=CALC_G(     RESULTAT=RESU2,
                    THETA=_F( R_SUP = 22.04078,
                               R_INF = 15.3061094,
                               FOND_FISS=FOND),
                    OPTION='CALC_K_G')

GFCON3=CALC_G(      RESULTAT=RESU2,
                    THETA=_F(
                             R_INF=9.79591846,
                             FOND_FISS=FOND,
                             MODULE=1.,
                             R_SUP=15.3061094,
                             DIRECTION=( 1., 0., 0.,)),
              )

GKFCON3=CALC_G(     RESULTAT=RESU2,
                    THETA=_F( R_INF = 9.79591846,
                              R_SUP = 15.3061094,
                              FOND_FISS=FOND),
                    OPTION='CALC_K_G')

GFCON4=CALC_G(      RESULTAT=RESU2,
                    THETA=_F(
                             R_INF=5.510197639,
                             FOND_FISS=FOND,
                             MODULE=1.,
                             R_SUP=9.79591846,
                             DIRECTION=( 1., 0., 0.,)),
              )

GKFCON4=CALC_G(     RESULTAT=RESU2,
                    THETA=_F( R_SUP = 9.79591846,
                              R_INF = 5.510197639,
                              FOND_FISS=FOND),
                    OPTION='CALC_K_G')

GFCON5=CALC_G(      RESULTAT=RESU2,
                    THETA=_F(
                             R_INF=2.448979377,
                             FOND_FISS=FOND,
                             MODULE=1.,
                             R_SUP=5.510197639,
                             DIRECTION=( 1., 0., 0.,)),
              )

GKFCON5=CALC_G(     RESULTAT=RESU2,
                    THETA=_F( R_INF = 2.448979377,
                              R_SUP = 5.510197639,
                              FOND_FISS=FOND),
                    OPTION='CALC_K_G')

GFCON6=CALC_G(      RESULTAT=RESU2,
                    THETA=_F(
                             R_INF=0.61225116,
                             FOND_FISS=FOND,
                             MODULE=1.,
                             R_SUP=2.448979377,
                             DIRECTION=( 1., 0., 0.,)),
              )

GKFCON6=CALC_G(     RESULTAT=RESU2,
                    THETA=_F( R_SUP = 2.448979377,
                              R_INF = 0.61225116,
                              FOND_FISS=FOND),
                    OPTION='CALC_K_G')

TEST_TABLE(PRECISION=5.0000000000000001E-3,
           VALE_CALC=0.00060223657092,
           VALE_REFE=5.9999999999999995E-4,
           REFERENCE='NON_DEFINI',
           NOM_PARA='G',
           TABLE=GPRES1,)

TEST_TABLE(PRECISION=5.0000000000000001E-3,
           VALE_CALC=0.00060223657092,
           VALE_REFE=5.9999999999999995E-4,
           REFERENCE='NON_DEFINI',
           NOM_PARA='G',
           TABLE=GKPRES1,)

TEST_TABLE(PRECISION=5.4999999999999997E-3,
           VALE_CALC=0.00060327445374,
           VALE_REFE=5.9999999999999995E-4,
           REFERENCE='NON_DEFINI',
           NOM_PARA='G_IRWIN',
           TABLE=GKPRES1,)

TEST_TABLE(PRECISION=5.0000000000000001E-3,
           VALE_CALC=10.9843020146,
           VALE_REFE=10.949999999999999,
           REFERENCE='NON_DEFINI',
           NOM_PARA='K1',
           TABLE=GKPRES1,)

TEST_TABLE(CRITERE='ABSOLU',
           VALE_CALC=0.,

           NOM_PARA='K2',
           TABLE=GKPRES1,)

TEST_TABLE(PRECISION=5.0000000000000001E-3,
           VALE_CALC=0.000602229372226,
           VALE_REFE=5.9999999999999995E-4,
           REFERENCE='NON_DEFINI',
           NOM_PARA='G',
           TABLE=GPRES2,)

TEST_TABLE(PRECISION=5.0000000000000001E-3,
           VALE_CALC=0.000602229372226,
           VALE_REFE=5.9999999999999995E-4,
           REFERENCE='NON_DEFINI',
           NOM_PARA='G',
           TABLE=GKPRES2,)

TEST_TABLE(PRECISION=5.4999999999999997E-3,
           VALE_CALC=0.000603262002742,
           VALE_REFE=5.9999999999999995E-4,
           REFERENCE='NON_DEFINI',
           NOM_PARA='G_IRWIN',
           TABLE=GKPRES2,)

TEST_TABLE(PRECISION=5.0000000000000001E-3,
           VALE_CALC=10.9841886614,
           VALE_REFE=10.949999999999999,
           REFERENCE='NON_DEFINI',
           NOM_PARA='K1',
           TABLE=GKPRES2,)

TEST_TABLE(CRITERE='ABSOLU',
           VALE_CALC=0.,

           NOM_PARA='K2',
           TABLE=GKPRES2,)

TEST_TABLE(PRECISION=5.0000000000000001E-3,
           VALE_CALC=0.000602218822018,
           VALE_REFE=5.9999999999999995E-4,
           REFERENCE='NON_DEFINI',
           NOM_PARA='G',
           TABLE=GPRES3,)

TEST_TABLE(PRECISION=5.0000000000000001E-3,
           VALE_CALC=0.000602218822018,
           VALE_REFE=5.9999999999999995E-4,
           REFERENCE='NON_DEFINI',
           NOM_PARA='G',
           TABLE=GKPRES3,)

TEST_TABLE(PRECISION=5.4999999999999997E-3,
           VALE_CALC=0.000603246568299,
           VALE_REFE=5.9999999999999995E-4,
           REFERENCE='NON_DEFINI',
           NOM_PARA='G_IRWIN',
           TABLE=GKPRES3,)

TEST_TABLE(PRECISION=0.050000000000000003,
           VALE_CALC=10.9840481454,
           VALE_REFE=10.949999999999999,
           REFERENCE='NON_DEFINI',
           NOM_PARA='K1',
           TABLE=GKPRES3,)

TEST_TABLE(CRITERE='ABSOLU',
           VALE_CALC=0.,

           NOM_PARA='K2',
           TABLE=GKPRES3,)

TEST_TABLE(PRECISION=5.0000000000000001E-3,
           VALE_CALC=0.00060216563233,
           VALE_REFE=5.9999999999999995E-4,
           REFERENCE='NON_DEFINI',
           NOM_PARA='G',
           TABLE=GPRES4,)

TEST_TABLE(PRECISION=5.0000000000000001E-3,
           VALE_CALC=0.00060216563233,
           VALE_REFE=5.9999999999999995E-4,
           REFERENCE='NON_DEFINI',
           NOM_PARA='G',
           TABLE=GKPRES4,)

TEST_TABLE(PRECISION=5.4999999999999997E-3,
           VALE_CALC=0.000603184342345,
           VALE_REFE=5.9999999999999995E-4,
           REFERENCE='NON_DEFINI',
           NOM_PARA='G_IRWIN',
           TABLE=GKPRES4,)

TEST_TABLE(PRECISION=0.050000000000000003,
           VALE_CALC=10.9834816187,
           VALE_REFE=10.949999999999999,
           REFERENCE='NON_DEFINI',
           NOM_PARA='K1',
           TABLE=GKPRES4,)

TEST_TABLE(CRITERE='ABSOLU',
           VALE_CALC=0.,

           NOM_PARA='K2',
           TABLE=GKPRES4,)

TEST_TABLE(PRECISION=5.0000000000000001E-3,
           VALE_CALC=0.00060192213725,
           VALE_REFE=5.9999999999999995E-4,
           REFERENCE='NON_DEFINI',
           NOM_PARA='G',
           TABLE=GPRES5,)

TEST_TABLE(PRECISION=5.0000000000000001E-3,
           VALE_CALC=0.00060192213725,
           VALE_REFE=5.9999999999999995E-4,
           REFERENCE='NON_DEFINI',
           NOM_PARA='G',
           TABLE=GKPRES5,)

TEST_TABLE(PRECISION=5.4999999999999997E-3,
           VALE_CALC=0.000602911062315,
           VALE_REFE=5.9999999999999995E-4,
           REFERENCE='NON_DEFINI',
           NOM_PARA='G_IRWIN',
           TABLE=GKPRES5,)

TEST_TABLE(PRECISION=0.050000000000000003,
           VALE_CALC=10.9809932366,
           VALE_REFE=10.949999999999999,
           REFERENCE='NON_DEFINI',
           NOM_PARA='K1',
           TABLE=GKPRES5,)

TEST_TABLE(CRITERE='ABSOLU',
           VALE_CALC=0.,

           NOM_PARA='K2',
           TABLE=GKPRES5,)

TEST_TABLE(PRECISION=1.E-2,
           VALE_CALC=0.000599946064473,
           VALE_REFE=5.9999999999999995E-4,
           REFERENCE='NON_DEFINI',
           NOM_PARA='G',
           TABLE=GPRES6,)

TEST_TABLE(PRECISION=1.E-2,
           VALE_CALC=0.000599946064473,
           VALE_REFE=5.9999999999999995E-4,
           REFERENCE='NON_DEFINI',
           NOM_PARA='G',
           TABLE=GKPRES6,)

TEST_TABLE(PRECISION=5.4999999999999997E-3,
           VALE_CALC=0.000600666312872,
           VALE_REFE=5.9999999999999995E-4,
           REFERENCE='NON_DEFINI',
           NOM_PARA='G_IRWIN',
           TABLE=GKPRES6,)

TEST_TABLE(PRECISION=0.050999999999999997,
           VALE_CALC=10.9605320388,
           VALE_REFE=10.949999999999999,
           REFERENCE='NON_DEFINI',
           NOM_PARA='K1',
           TABLE=GKPRES6,)

TEST_TABLE(CRITERE='ABSOLU',
           VALE_CALC=0.,

           NOM_PARA='K2',
           TABLE=GKPRES6,)

TEST_TABLE(PRECISION=5.0000000000000001E-3,
           VALE_CALC=0.00060223657092,
           VALE_REFE=5.9999999999999995E-4,
           REFERENCE='NON_DEFINI',
           NOM_PARA='G',
           TABLE=GFCON1,)

TEST_TABLE(PRECISION=5.0000000000000001E-3,
           VALE_CALC=0.00060223657092,
           VALE_REFE=5.9999999999999995E-4,
           REFERENCE='NON_DEFINI',
           NOM_PARA='G',
           TABLE=GKFCON1,)

TEST_TABLE(PRECISION=5.4999999999999997E-3,
           VALE_CALC=0.00060327445374,
           VALE_REFE=5.9999999999999995E-4,
           REFERENCE='NON_DEFINI',
           NOM_PARA='G_IRWIN',
           TABLE=GKFCON1,)

TEST_TABLE(PRECISION=5.0000000000000001E-3,
           VALE_CALC=10.9843020146,
           VALE_REFE=10.949999999999999,
           REFERENCE='NON_DEFINI',
           NOM_PARA='K1',
           TABLE=GKFCON1,)

TEST_TABLE(CRITERE='ABSOLU',
           VALE_CALC=0.,

           NOM_PARA='K2',
           TABLE=GKFCON1,)

TEST_TABLE(PRECISION=5.0000000000000001E-3,
           VALE_CALC=0.00060223657092,
           VALE_REFE=5.9999999999999995E-4,
           REFERENCE='NON_DEFINI',
           NOM_PARA='G',
           TABLE=GFCON2,)

TEST_TABLE(PRECISION=5.0000000000000001E-3,
           VALE_CALC=0.000602229372226,
           VALE_REFE=5.9999999999999995E-4,
           REFERENCE='NON_DEFINI',
           NOM_PARA='G',
           TABLE=GKFCON2,)

TEST_TABLE(PRECISION=5.4999999999999997E-3,
           VALE_CALC=0.000603262002742,
           VALE_REFE=5.9999999999999995E-4,
           REFERENCE='NON_DEFINI',
           NOM_PARA='G_IRWIN',
           TABLE=GKFCON2,)

TEST_TABLE(PRECISION=5.0000000000000001E-3,
           VALE_CALC=10.9841886614,
           VALE_REFE=10.949999999999999,
           REFERENCE='NON_DEFINI',
           NOM_PARA='K1',
           TABLE=GKFCON2,)

TEST_TABLE(CRITERE='ABSOLU',
           VALE_CALC=0.,

           NOM_PARA='K2',
           TABLE=GKFCON2,)

TEST_TABLE(PRECISION=5.0000000000000001E-3,
           VALE_CALC=0.000602218822018,
           VALE_REFE=5.9999999999999995E-4,
           REFERENCE='NON_DEFINI',
           NOM_PARA='G',
           TABLE=GFCON3,)

TEST_TABLE(PRECISION=5.0000000000000001E-3,
           VALE_CALC=0.000602218822018,
           VALE_REFE=5.9999999999999995E-4,
           REFERENCE='NON_DEFINI',
           NOM_PARA='G',
           TABLE=GKFCON3,)

TEST_TABLE(PRECISION=5.4999999999999997E-3,
           VALE_CALC=0.000603246568299,
           VALE_REFE=5.9999999999999995E-4,
           REFERENCE='NON_DEFINI',
           NOM_PARA='G_IRWIN',
           TABLE=GKFCON3,)

TEST_TABLE(PRECISION=0.050000000000000003,
           VALE_CALC=10.9840481454,
           VALE_REFE=10.949999999999999,
           REFERENCE='NON_DEFINI',
           NOM_PARA='K1',
           TABLE=GKFCON3,)

TEST_TABLE(CRITERE='ABSOLU',
           VALE_CALC=0.,

           NOM_PARA='K2',
           TABLE=GKFCON3,)

TEST_TABLE(PRECISION=5.0000000000000001E-3,
           VALE_CALC=0.00060216563233,
           VALE_REFE=5.9999999999999995E-4,
           REFERENCE='NON_DEFINI',
           NOM_PARA='G',
           TABLE=GFCON4,)

TEST_TABLE(PRECISION=5.0000000000000001E-3,
           VALE_CALC=0.00060216563233,
           VALE_REFE=5.9999999999999995E-4,
           REFERENCE='NON_DEFINI',
           NOM_PARA='G',
           TABLE=GKFCON4,)

TEST_TABLE(PRECISION=5.4999999999999997E-3,
           VALE_CALC=0.000603184342345,
           VALE_REFE=5.9999999999999995E-4,
           REFERENCE='NON_DEFINI',
           NOM_PARA='G_IRWIN',
           TABLE=GKFCON4,)

TEST_TABLE(PRECISION=0.050000000000000003,
           VALE_CALC=10.9834816187,
           VALE_REFE=10.949999999999999,
           REFERENCE='NON_DEFINI',
           NOM_PARA='K1',
           TABLE=GKFCON4,)

TEST_TABLE(CRITERE='ABSOLU',
           VALE_CALC=0.,

           NOM_PARA='K2',
           TABLE=GKFCON4,)

TEST_TABLE(PRECISION=5.0000000000000001E-3,
           VALE_CALC=0.00060192213725,
           VALE_REFE=5.9999999999999995E-4,
           REFERENCE='NON_DEFINI',
           NOM_PARA='G',
           TABLE=GFCON5,)

TEST_TABLE(PRECISION=5.0000000000000001E-3,
           VALE_CALC=0.00060192213725,
           VALE_REFE=5.9999999999999995E-4,
           REFERENCE='NON_DEFINI',
           NOM_PARA='G',
           TABLE=GKFCON5,)

TEST_TABLE(PRECISION=5.0000000000000001E-3,
           VALE_CALC=0.000602911062315,
           VALE_REFE=5.9999999999999995E-4,
           REFERENCE='NON_DEFINI',
           NOM_PARA='G_IRWIN',
           TABLE=GKFCON5,)

TEST_TABLE(PRECISION=0.050000000000000003,
           VALE_CALC=10.9809932366,
           VALE_REFE=10.949999999999999,
           REFERENCE='NON_DEFINI',
           NOM_PARA='K1',
           TABLE=GKFCON5,)

TEST_TABLE(CRITERE='ABSOLU',
           VALE_CALC=0.,

           NOM_PARA='K2',
           TABLE=GKFCON5,)

TEST_TABLE(PRECISION=1.E-2,
           VALE_CALC=0.000599946064473,
           VALE_REFE=5.9999999999999995E-4,
           REFERENCE='NON_DEFINI',
           NOM_PARA='G',
           TABLE=GFCON6,)

TEST_TABLE(PRECISION=1.E-2,
           VALE_CALC=0.000599946064473,
           VALE_REFE=5.9999999999999995E-4,
           REFERENCE='NON_DEFINI',
           NOM_PARA='G',
           TABLE=GKFCON6,)

TEST_TABLE(PRECISION=5.0000000000000001E-3,
           VALE_CALC=0.000600666312872,
           VALE_REFE=5.9999999999999995E-4,
           REFERENCE='NON_DEFINI',
           NOM_PARA='G_IRWIN',
           TABLE=GKFCON6,)

TEST_TABLE(PRECISION=0.050999999999999997,
           VALE_CALC=10.9605320388,
           VALE_REFE=10.949999999999999,
           REFERENCE='NON_DEFINI',
           NOM_PARA='K1',
           TABLE=GKFCON6,)

TEST_TABLE(CRITERE='ABSOLU',
           VALE_CALC=0.,

           NOM_PARA='K2',
           TABLE=GKFCON6,)

FIN( )
#
