# MODIF  DATE 10/10/2012   AUTEUR COURTOIS M.COURTOIS 
# TITRE BIBLIO_18 FISSURE PRESSURISEE DANS UN DOMAINE PLAN ILLIMITE
# sslp310a.para = tps_job 60 mem_job 512Mo ncpus 1 liste_test V
#            CONFIGURATION MANAGEMENT OF EDF VERSION
# ======================================================================
# COPYRIGHT (C) 1991 - 2012  EDF R&D                  WWW.CODE-ASTER.ORG
# THIS PROGRAM IS FREE SOFTWARE; YOU CAN REDISTRIBUTE IT AND/OR MODIFY
# IT UNDER THE TERMS OF THE GNU GENERAL PUBLIC LICENSE AS PUBLISHED BY
# THE FREE SOFTWARE FOUNDATION; EITHER VERSION 2 OF THE LICENSE, OR   
# (AT YOUR OPTION) ANY LATER VERSION.                                 
#
# THIS PROGRAM IS DISTRIBUTED IN THE HOPE THAT IT WILL BE USEFUL, BUT 
# WITHOUT ANY WARRANTY; WITHOUT EVEN THE IMPLIED WARRANTY OF          
# MERCHANTABILITY OR FITNESS FOR A PARTICULAR PURPOSE. SEE THE GNU    
# GENERAL PUBLIC LICENSE FOR MORE DETAILS.                            
#
# YOU SHOULD HAVE RECEIVED A COPY OF THE GNU GENERAL PUBLIC LICENSE   
# ALONG WITH THIS PROGRAM; IF NOT, WRITE TO EDF R&D CODE_ASTER,       
#    1 AVENUE DU GENERAL DE GAULLE, 92141 CLAMART CEDEX, FRANCE.      
# ======================================================================
#       CALCUL EN CONTRAINTES PLANES
#

DEBUT( CODE=_F( NOM = 'SSLP310A',NIV_PUB_WEB='INTERNET'))

MA=LIRE_MAILLAGE(VERI_MAIL=_F(VERIF='OUI'),FORMAT='MED',  )

MO=AFFE_MODELE(  MAILLAGE=MA, 
      AFFE=_F( TOUT = 'OUI',PHENOMENE = 'MECANIQUE',MODELISATION = 'C_PLAN'))

MA=MODI_MAILLAGE( reuse=MA,   MAILLAGE=MA,
                  ORIE_PEAU_2D=_F(GROUP_MA = ('LEV_SUP', 
                                              'LEV_INF',) )
                     )

MAT=DEFI_MATERIAU(ELAS=_F(  E = 1000., NU = 0.3))

CHMAT=AFFE_MATERIAU(  MAILLAGE=MA,AFFE=_F(  TOUT = 'OUI',MATER = MAT))

MA=DEFI_GROUP( reuse=MA,   MAILLAGE=MA, 
                     CREA_GROUP_NO=_F( 
                   GROUP_MA = ( 'L12',  'L56',   'LPOP11',  'LPOP11S', 
                                'LEV_SUP',
                                'LEV_INF' ))
                 )

EXP1 = FORMULE(NOM_PARA='X',VALE='( exp(X) ) ')
EXP5 = FORMULE(NOM_PARA='X',VALE='( exp(5. * X) ) ')

SINH1 = FORMULE(NOM_PARA='X',VALE='( sinh(X) ) ')
SINH5 = FORMULE(NOM_PARA='X',VALE='( sinh(5. * X) ) ')

COSH1 = FORMULE(NOM_PARA='X',VALE='( cosh(X) ) ')
COSH5 = FORMULE(NOM_PARA='X',VALE='( cosh(5. * X) ) ')

COS1 = FORMULE(NOM_PARA='X',VALE='( cos(X) ) ')
COS5 = FORMULE(NOM_PARA='X',VALE='( cos(2.4048255577 * X))')

CL=AFFE_CHAR_MECA(   MODELE=MO, 

            DDL_IMPO=_F( GROUP_NO = ( 'L12',  'L56',  'LPOP11',  
                                      'LPOP11S', ), DY = 0.),

            LIAISON_DDL=_F(  GROUP_NO = ('P0',  'P0BIS',),
                          DDL = ('DX',  'DX',),
                          COEF_MULT = (1., 1.,),
                          COEF_IMPO = 0.) )

CH_UNI=AFFE_CHAR_MECA(   MODELE=MO, 
                 PRES_REP=_F(  GROUP_MA = ( 'LEV_SUP', 
                                            'LEV_INF' ),  
                                PRES = 1.)
                                  )

CH_EXP1=AFFE_CHAR_MECA_F(   MODELE=MO, 
                 PRES_REP=_F(  GROUP_MA = ( 'LEV_SUP', 
                                            'LEV_INF' ),  
                                PRES = EXP1)
                                  )

CH_EXP5=AFFE_CHAR_MECA_F(   MODELE=MO, 
                 PRES_REP=_F(   GROUP_MA = ( 'LEV_SUP', 
                                             'LEV_INF' ),  
                                 PRES = EXP5)
                                  )

CH_SINH1=AFFE_CHAR_MECA_F(   MODELE=MO, 
                  PRES_REP=_F(   GROUP_MA = ( 'LEV_SUP', 
                                              'LEV_INF' ),  
                                 PRES = SINH1)
                                  )

CH_SINH5=AFFE_CHAR_MECA_F(   MODELE=MO, 
                  PRES_REP=_F(   GROUP_MA = ( 'LEV_SUP', 
                                              'LEV_INF' ), 
                                  PRES = SINH5)
                                  )

CH_COSH1=AFFE_CHAR_MECA_F(   MODELE=MO, 
                  PRES_REP=_F(   GROUP_MA = ( 'LEV_SUP', 
                                              'LEV_INF' ),
                                  PRES = COSH1)
                                  )

CH_COSH5=AFFE_CHAR_MECA_F(   MODELE=MO, 
                  PRES_REP=_F(   GROUP_MA = ( 'LEV_SUP', 
                                              'LEV_INF' ),
                                   PRES = COSH5)
                                  )

CH_COS1=AFFE_CHAR_MECA_F(   MODELE=MO, 
                 PRES_REP=_F(   GROUP_MA = ( 'LEV_SUP', 
                                             'LEV_INF' ),  
                                 PRES = COS1)
                                  )

CH_COS5=AFFE_CHAR_MECA_F(   MODELE=MO, 
                 PRES_REP=_F(   GROUP_MA = ( 'LEV_SUP', 
                                             'LEV_INF' ), 
                                 PRES = COS5)
                                  )

RESU=MACRO_ELAS_MULT(MODELE=MO,
                    CHAM_MATER=CHMAT,
                    CHAR_MECA_GLOBAL=CL,
                    CAS_CHARGE=(_F(NOM_CAS='CH_UNI',
                                   CHAR_MECA=CH_UNI,),
                                _F(NOM_CAS='CH_EXP1',
                                   CHAR_MECA=CH_EXP1,),
                                _F(NOM_CAS='CH_EXP5',
                                   CHAR_MECA=CH_EXP5,),
                                _F(NOM_CAS='CH_SINH1',
                                   CHAR_MECA=CH_SINH1,),
                                _F(NOM_CAS='CH_SINH5',
                                   CHAR_MECA=CH_SINH5,),
                                _F(NOM_CAS='CH_COSH1',
                                   CHAR_MECA=CH_COSH1,),
                                _F(NOM_CAS='CH_COSH5',
                                   CHAR_MECA=CH_COSH5,),
                                _F(NOM_CAS='CH_COS1',
                                   CHAR_MECA=CH_COS1,),
                                _F(NOM_CAS='CH_COS5',
                                   CHAR_MECA=CH_COS5,),),);


# POST TRAITEMENT MECA. RUPTURE
# -----------------------------

FOND=DEFI_FOND_FISS(    MAILLAGE=MA,
                        FOND_FISS=_F( GROUP_NO = ('P0',)),
                      )

# DEFINITION DES CHAMPS THETA
# ---------------------------

# COURONNE 0 (TRIANGLES)
# ----------------------
THETA0=CALC_THETA(    MODELE=MO,
                       DIRECTION=(1., 0., 0., ),
                        THETA_2D=_F(  GROUP_NO = ('P0',),
                                   MODULE = 1.,
                                   R_INF = 0.000,
                                   R_SUP = 0.020)
                     )

# COURONNE 1 (QUADRANGLES)
# ------------------------
THETA1=CALC_THETA(    MODELE=MO,
                       DIRECTION=(1., 0., 0., ),
                        THETA_2D=_F(  GROUP_NO = ('P0',),
                                   MODULE = 1.,
                                   R_INF = 0.020,
                                   R_SUP = 0.040)
                     )

# COURONNE 2 (QUADRANGLES)
# ------------------------
THETA2=CALC_THETA(    MODELE=MO,
                       DIRECTION=(1., 0., 0., ),
                        THETA_2D=_F(  GROUP_NO = ('P0',),
                                   MODULE = 1.,
                                   R_INF = 0.040,
                                   R_SUP = 0.060)
                     )

# COURONNE 3 (QUADRANGLES)
# ------------------------
THETA3=CALC_THETA(    MODELE=MO,
                       DIRECTION=(1., 0., 0., ),
                        THETA_2D=_F(  GROUP_NO = ('P0',),
                                   MODULE = 1.,
                                   R_INF = 0.060,
                                   R_SUP = 0.080)
                     )

# CALCUL DES G_THETA POUR LE CHAMP THETA0
# ---------------------------------------

G_0=CALC_G(                 RESULTAT=RESU,
                            NOM_CAS=('CH_UNI',
                                     'CH_EXP5',
                                     'CH_SINH1',
                                     'CH_SINH5',
                                     'CH_COSH1',
                                     'CH_COSH5',
                                     'CH_COS1',
                                     'CH_COS5',
                                    ),
                            THETA=_F(THETA = THETA0,
                                     FOND_FISS=FOND),
                            OPTION='CALC_K_G'
                        )

G_EXP10=CALC_G(             RESULTAT=RESU,
                            NOM_CAS='CH_EXP1',
                            THETA=_F(
                                      DIRECTION=(1., 0., 0., ),
                                      R_INF = 0.000,
                                      R_SUP = 0.020,
                                      FOND_FISS=FOND),
                             OPTION='CALC_K_G'
                         )


# CALCUL DES G_THETA POUR LE CHAMP THETA1
# ---------------------------------------

G_1=CALC_G(                 RESULTAT=RESU,
                            THETA=_F(THETA = THETA1,
                                     FOND_FISS=FOND),
                            OPTION='CALC_K_G'
                        )


# CALCUL DES G_THETA POUR LE CHAMP THETA2
# ---------------------------------------

G_2=CALC_G(                 RESULTAT=RESU,
                            THETA=_F(THETA = THETA2,
                                      FOND_FISS=FOND,),
                            OPTION='CALC_K_G'
                        )


# CALCUL DES G_THETA POUR LE CHAMP THETA3
# ---------------------------------------

G_3=CALC_G(                 RESULTAT=RESU,
                            NOM_CAS=('CH_UNI',
                                     'CH_EXP1',
                                     'CH_EXP5',
                                     'CH_SINH1',
                                     'CH_SINH5',
                                     'CH_COSH1',
                                     'CH_COSH5',
                                     'CH_COS1',
                                    ),
                            THETA=_F(THETA = THETA3,
                                     FOND_FISS=FOND),
                            OPTION='CALC_K_G'
                        )

G_COS53=CALC_G(              RESULTAT=RESU,
                             NOM_CAS='CH_COS5',
                             THETA=_F(
                                       DIRECTION=(1., 0., 0., ),
                                       R_INF = 0.060,
                                       R_SUP = 0.080,
                                       FOND_FISS=FOND),
                             OPTION='CALC_K_G'
                         )
# IMPRESSION DES RESULTATS COURONNE 0 (TRIANGLES)
# -----------------------------------------------


TEST_TABLE(REFERENCE='ANALYTIQUE',
           PRECISION=0.033000000000000002,
           VALE_CALC= 3.04076041E-03,
           VALE_REFE=3.1415800000000002E-3,
           NOM_PARA='G',
           TABLE=G_0,
           FILTRE=_F(NOM_PARA='NOM_CAS',
                     VALE_K='CH_UNI',),
           )

TEST_TABLE(REFERENCE='ANALYTIQUE',
           PRECISION=0.070000000000000007,
           VALE_CALC=1.655930777,
           VALE_REFE=1.7724500000000001,
           NOM_PARA='K1',
           TABLE=G_0,
           FILTRE=_F(NOM_PARA='NOM_CAS',
                     VALE_K='CH_UNI',),
           )

TEST_TABLE(CRITERE='ABSOLU',
           REFERENCE='ANALYTIQUE',
           PRECISION=0.014999999999999999,
           VALE_CALC= 8.77431117E-15,
           VALE_REFE=0.0,
           NOM_PARA='K2',
           TABLE=G_0,
           FILTRE=_F(NOM_PARA='NOM_CAS',
                     VALE_K='CH_UNI',),
           )

#

TEST_TABLE(REFERENCE='ANALYTIQUE',
           PRECISION=0.040000000000000001,
           VALE_CALC=0.010141113,
           VALE_REFE=0.0105349,
           NOM_PARA='G',
           TABLE=G_EXP10,)

TEST_TABLE(REFERENCE='ANALYTIQUE',
           PRECISION=0.070000000000000007,
           VALE_CALC=3.031074217,
           VALE_REFE=3.2457600000000002,
           NOM_PARA='K1',
           TABLE=G_EXP10,)

TEST_TABLE(CRITERE='ABSOLU',
           REFERENCE='ANALYTIQUE',
           PRECISION=1.E-2,
           VALE_CALC= 1.35863377E-14,
           VALE_REFE=0.0,
           NOM_PARA='K2',
           TABLE=G_EXP10,)

#

TEST_TABLE(REFERENCE='ANALYTIQUE',
           PRECISION=0.055,
           VALE_CALC=7.906512003,
           VALE_REFE=8.3567420000000006,
           NOM_PARA='G',
           TABLE=G_0,
           FILTRE=_F(NOM_PARA='NOM_CAS',
                     VALE_K='CH_EXP5',),
           )

TEST_TABLE(REFERENCE='ANALYTIQUE',
           PRECISION=0.070000000000000007,
           VALE_CALC=85.418903994,
           VALE_REFE=91.415220000000005,
           NOM_PARA='K1',
           TABLE=G_0,
           FILTRE=_F(NOM_PARA='NOM_CAS',
                     VALE_K='CH_EXP5',),
           )

TEST_TABLE(CRITERE='ABSOLU',
           REFERENCE='ANALYTIQUE',
           PRECISION=1.E-2,
           VALE_CALC= 2.96308188E-13,
           VALE_REFE=0.0,
           NOM_PARA='K2',
           TABLE=G_0,
           FILTRE=_F(NOM_PARA='NOM_CAS',
                     VALE_K='CH_EXP5',),
           )

#

TEST_TABLE(REFERENCE='ANALYTIQUE',
           PRECISION=0.044999999999999998,
           VALE_CALC= 9.60061298E-04,
           VALE_REFE=1.00344E-3,
           NOM_PARA='G',
           TABLE=G_0,
           FILTRE=_F(NOM_PARA='NOM_CAS',
                     VALE_K='CH_SINH1',),
           )

TEST_TABLE(REFERENCE='ANALYTIQUE',
           PRECISION=0.070000000000000007,
           VALE_CALC=0.935052558,
           VALE_REFE=1.0017199999999999,
           NOM_PARA='K1',
           TABLE=G_0,
           FILTRE=_F(NOM_PARA='NOM_CAS',
                     VALE_K='CH_SINH1',),
           )

TEST_TABLE(CRITERE='ABSOLU',
           REFERENCE='ANALYTIQUE',
           PRECISION=1.E-2,
           VALE_CALC= 3.18143526E-15,
           VALE_REFE=0.0,
           NOM_PARA='K2',
           TABLE=G_0,
           FILTRE=_F(NOM_PARA='NOM_CAS',
                     VALE_K='CH_SINH1',),
           )

#

TEST_TABLE(REFERENCE='ANALYTIQUE',
           PRECISION=0.055,
           VALE_CALC=1.760145680,
           VALE_REFE=1.86052,
           NOM_PARA='G',
           TABLE=G_0,
           FILTRE=_F(NOM_PARA='NOM_CAS',
                     VALE_K='CH_SINH5',),
           )

TEST_TABLE(REFERENCE='ANALYTIQUE',
           PRECISION=0.065000000000000002,
           VALE_CALC=40.338266872,
           VALE_REFE=43.133800000000001,
           NOM_PARA='K1',
           TABLE=G_0,
           FILTRE=_F(NOM_PARA='NOM_CAS',
                     VALE_K='CH_SINH5',),
           )

TEST_TABLE(CRITERE='ABSOLU',
           REFERENCE='ANALYTIQUE',
           PRECISION=0.065000000000000002,
           VALE_CALC= 1.09492715E-13,
           VALE_REFE=0.0,
           NOM_PARA='K2',
           TABLE=G_0,
           FILTRE=_F(NOM_PARA='NOM_CAS',
                     VALE_K='CH_SINH5',),
           )

#

TEST_TABLE(REFERENCE='ANALYTIQUE',
           PRECISION=0.035000000000000003,
           VALE_CALC= 4.86061905E-03,
           VALE_REFE=5.0357099999999997E-3,
           NOM_PARA='G',
           TABLE=G_0,
           FILTRE=_F(NOM_PARA='NOM_CAS',
                     VALE_K='CH_COSH1',),
           )

TEST_TABLE(REFERENCE='ANALYTIQUE',
           PRECISION=0.070000000000000007,
           VALE_CALC=2.096021658,
           VALE_REFE=2.24404,
           NOM_PARA='K1',
           TABLE=G_0,
           FILTRE=_F(NOM_PARA='NOM_CAS',
                     VALE_K='CH_COSH1',),
           )

TEST_TABLE(CRITERE='ABSOLU',
           REFERENCE='ANALYTIQUE',
           PRECISION=1.E-2,
           VALE_CALC= 1.09455117E-14,
           VALE_REFE=0.0,
           NOM_PARA='K2',
           TABLE=G_0,
           FILTRE=_F(NOM_PARA='NOM_CAS',
                     VALE_K='CH_COSH1',),
           )

#

TEST_TABLE(REFERENCE='ANALYTIQUE',
           PRECISION=0.055,
           VALE_CALC=2.205659991,
           VALE_REFE=2.3310949999999999,
           NOM_PARA='G',
           TABLE=G_0,
           FILTRE=_F(NOM_PARA='NOM_CAS',
                     VALE_K='CH_COSH5',),
           )

TEST_TABLE(REFERENCE='ANALYTIQUE',
           PRECISION=0.070000000000000007,
           VALE_CALC=45.080637122,
           VALE_REFE=48.281419999999997,
           NOM_PARA='K1',
           TABLE=G_0,
           FILTRE=_F(NOM_PARA='NOM_CAS',
                     VALE_K='CH_COSH5',),
           )

TEST_TABLE(CRITERE='ABSOLU',
           REFERENCE='ANALYTIQUE',
           PRECISION=0.070000000000000007,
           VALE_CALC= 2.11265924E-13,
           VALE_REFE=0.0,
           NOM_PARA='K2',
           TABLE=G_0,
           FILTRE=_F(NOM_PARA='NOM_CAS',
                     VALE_K='CH_COSH5',),
           )

#

TEST_TABLE(REFERENCE='ANALYTIQUE',
           PRECISION=0.029999999999999999,
           VALE_CALC= 1.78706138E-03,
           VALE_REFE=1.8394800000000001E-3,
           NOM_PARA='G',
           TABLE=G_0,
           FILTRE=_F(NOM_PARA='NOM_CAS',
                     VALE_K='CH_COS1',),
           )

TEST_TABLE(REFERENCE='ANALYTIQUE',
           PRECISION=0.070000000000000007,
           VALE_CALC=1.267565512,
           VALE_REFE=1.356277,
           NOM_PARA='K1',
           TABLE=G_0,
           FILTRE=_F(NOM_PARA='NOM_CAS',
                     VALE_K='CH_COS1',),
           )

TEST_TABLE(CRITERE='ABSOLU',
           REFERENCE='ANALYTIQUE',
           PRECISION=0.070000000000000007,
           VALE_CALC= 6.34840828E-15,
           VALE_REFE=0.0,
           NOM_PARA='K2',
           TABLE=G_0,
           FILTRE=_F(NOM_PARA='NOM_CAS',
                     VALE_K='CH_COS1',),
           )

#

TEST_TABLE(CRITERE='ABSOLU',
           REFERENCE='ANALYTIQUE',
           PRECISION=1.0000000000000001E-05,
           VALE_CALC= 4.17110663E-08,
           VALE_REFE=0.0,
           NOM_PARA='G',
           TABLE=G_0,
           FILTRE=_F(NOM_PARA='NOM_CAS',
                     VALE_K='CH_COS5',),
           )

TEST_TABLE(CRITERE='ABSOLU',
           REFERENCE='ANALYTIQUE',
           PRECISION=3.0000000000000001E-3,
           VALE_CALC= 2.03672506E-03,
           VALE_REFE=0.0,
           NOM_PARA='K1',
           TABLE=G_0,
           FILTRE=_F(NOM_PARA='NOM_CAS',
                     VALE_K='CH_COS5',),
           )

# IMPRESSION DES RESULTATS COURONNE 1 (QUADRANGLES)  ;
# -------------------------------------------------


TEST_TABLE(REFERENCE='ANALYTIQUE',
           PRECISION=1.E-2,
           VALE_CALC= 3.16692290E-03,
           VALE_REFE=3.1415800000000002E-3,
           NOM_PARA='G',
           TABLE=G_1,
           FILTRE=_F(NOM_PARA='NOM_CAS',
                     VALE_K='CH_UNI',),
           )

TEST_TABLE(REFERENCE='ANALYTIQUE',
           PRECISION=5.0000000000000001E-3,
           VALE_CALC=1.780790202,
           VALE_REFE=1.7724500000000001,
           NOM_PARA='K1',
           TABLE=G_1,
           FILTRE=_F(NOM_PARA='NOM_CAS',
                     VALE_K='CH_UNI',),
           )

TEST_TABLE(CRITERE='ABSOLU',
           REFERENCE='ANALYTIQUE',
           PRECISION=0.014999999999999999,
           VALE_CALC= 2.81150352E-16,
           VALE_REFE=0.0,
           NOM_PARA='K2',
           TABLE=G_1,
           FILTRE=_F(NOM_PARA='NOM_CAS',
                     VALE_K='CH_UNI',),
           )

#

TEST_TABLE(REFERENCE='ANALYTIQUE',
           PRECISION=5.0000000000000001E-3,
           VALE_CALC=0.010566511,
           VALE_REFE=0.0105349,
           NOM_PARA='G',
           TABLE=G_1,
           FILTRE=_F(NOM_PARA='NOM_CAS',
                     VALE_K='CH_EXP1',),
           )

TEST_TABLE(REFERENCE='ANALYTIQUE',
           PRECISION=5.0000000000000001E-3,
           VALE_CALC=3.256591458,
           VALE_REFE=3.2457600000000002,
           NOM_PARA='K1',
           TABLE=G_1,
           FILTRE=_F(NOM_PARA='NOM_CAS',
                     VALE_K='CH_EXP1',),
           )

TEST_TABLE(CRITERE='ABSOLU',
           REFERENCE='ANALYTIQUE',
           PRECISION=1.E-2,
           VALE_CALC= 3.71507343E-15,
           VALE_REFE=0.0,
           NOM_PARA='K2',
           TABLE=G_1,
           FILTRE=_F(NOM_PARA='NOM_CAS',
                     VALE_K='CH_EXP1',),
           )

#

TEST_TABLE(REFERENCE='ANALYTIQUE',
           PRECISION=0.014999999999999999,
           VALE_CALC=8.255435265,
           VALE_REFE=8.3567420000000006,
           NOM_PARA='G',
           TABLE=G_1,
           FILTRE=_F(NOM_PARA='NOM_CAS',
                     VALE_K='CH_EXP5',),
           )

TEST_TABLE(REFERENCE='ANALYTIQUE',
           PRECISION=5.0000000000000001E-3,
           VALE_CALC=91.527925496,
           VALE_REFE=91.415220000000005,
           NOM_PARA='K1',
           TABLE=G_1,
           FILTRE=_F(NOM_PARA='NOM_CAS',
                     VALE_K='CH_EXP5',),
           )

TEST_TABLE(CRITERE='ABSOLU',
           REFERENCE='ANALYTIQUE',
           PRECISION=5.0000000000000001E-3,
           VALE_CALC= 1.43541293E-13,
           VALE_REFE=0.0,
           NOM_PARA='K2',
           TABLE=G_1,
           FILTRE=_F(NOM_PARA='NOM_CAS',
                     VALE_K='CH_EXP5',),
           )

#

TEST_TABLE(REFERENCE='ANALYTIQUE',
           PRECISION=5.0000000000000001E-3,
           VALE_CALC= 1.00080178E-03,
           VALE_REFE=1.00344E-3,
           NOM_PARA='G',
           TABLE=G_1,
           FILTRE=_F(NOM_PARA='NOM_CAS',
                     VALE_K='CH_SINH1',),
           )

TEST_TABLE(REFERENCE='ANALYTIQUE',
           PRECISION=5.0000000000000001E-3,
           VALE_CALC=1.003474225,
           VALE_REFE=1.0017199999999999,
           NOM_PARA='K1',
           TABLE=G_1,
           FILTRE=_F(NOM_PARA='NOM_CAS',
                     VALE_K='CH_SINH1',),
           )

TEST_TABLE(CRITERE='ABSOLU',
           REFERENCE='ANALYTIQUE',
           PRECISION=1.E-2,
           VALE_CALC= 2.56870980E-15,
           VALE_REFE=0.0,
           NOM_PARA='K2',
           TABLE=G_1,
           FILTRE=_F(NOM_PARA='NOM_CAS',
                     VALE_K='CH_SINH1',),
           )

#

TEST_TABLE(REFERENCE='ANALYTIQUE',
           PRECISION=0.014999999999999999,
           VALE_CALC=1.838150272,
           VALE_REFE=1.86052,
           NOM_PARA='G',
           TABLE=G_1,
           FILTRE=_F(NOM_PARA='NOM_CAS',
                     VALE_K='CH_SINH5',),
           )

TEST_TABLE(REFERENCE='ANALYTIQUE',
           PRECISION=5.0000000000000001E-3,
           VALE_CALC=43.209124513,
           VALE_REFE=43.133800000000001,
           NOM_PARA='K1',
           TABLE=G_1,
           FILTRE=_F(NOM_PARA='NOM_CAS',
                     VALE_K='CH_SINH5',),
           )

TEST_TABLE(CRITERE='ABSOLU',
           REFERENCE='ANALYTIQUE',
           PRECISION=1.E-2,
           VALE_CALC= 8.03212405E-14,
           VALE_REFE=0.0,
           NOM_PARA='K2',
           TABLE=G_1,
           FILTRE=_F(NOM_PARA='NOM_CAS',
                     VALE_K='CH_SINH5',),
           )

#

TEST_TABLE(REFERENCE='ANALYTIQUE',
           PRECISION=1.E-2,
           VALE_CALC= 5.06346214E-03,
           VALE_REFE=5.0357099999999997E-3,
           NOM_PARA='G',
           TABLE=G_1,
           FILTRE=_F(NOM_PARA='NOM_CAS',
                     VALE_K='CH_COSH1',),
           )

TEST_TABLE(REFERENCE='ANALYTIQUE',
           PRECISION=5.0000000000000001E-3,
           VALE_CALC=2.253117233,
           VALE_REFE=2.24404,
           NOM_PARA='K1',
           TABLE=G_1,
           FILTRE=_F(NOM_PARA='NOM_CAS',
                     VALE_K='CH_COSH1',),
           )

TEST_TABLE(CRITERE='ABSOLU',
           REFERENCE='ANALYTIQUE',
           PRECISION=1.E-2,
           VALE_CALC= 1.94140534E-16,
           VALE_REFE=0.0,
           NOM_PARA='K2',
           TABLE=G_1,
           FILTRE=_F(NOM_PARA='NOM_CAS',
                     VALE_K='CH_COSH1',),
           )

#

TEST_TABLE(REFERENCE='ANALYTIQUE',
           PRECISION=0.014999999999999999,
           VALE_CALC=2.302632362,
           VALE_REFE=2.3310949999999999,
           NOM_PARA='G',
           TABLE=G_1,
           FILTRE=_F(NOM_PARA='NOM_CAS',
                     VALE_K='CH_COSH5',),
           )

TEST_TABLE(REFERENCE='ANALYTIQUE',
           PRECISION=5.0000000000000001E-3,
           VALE_CALC=48.318800983,
           VALE_REFE=48.281419999999997,
           NOM_PARA='K1',
           TABLE=G_1,
           FILTRE=_F(NOM_PARA='NOM_CAS',
                     VALE_K='CH_COSH5',),
           )

TEST_TABLE(CRITERE='ABSOLU',
           REFERENCE='ANALYTIQUE',
           PRECISION=1.E-2,
           VALE_CALC= 6.94401269E-14,
           VALE_REFE=0.0,
           NOM_PARA='K2',
           TABLE=G_1,
           FILTRE=_F(NOM_PARA='NOM_CAS',
                     VALE_K='CH_COSH5',),
           )

#

TEST_TABLE(REFERENCE='ANALYTIQUE',
           PRECISION=0.014999999999999999,
           VALE_CALC= 1.86065496E-03,
           VALE_REFE=1.8394800000000001E-3,
           NOM_PARA='G',
           TABLE=G_1,
           FILTRE=_F(NOM_PARA='NOM_CAS',
                     VALE_K='CH_COS1',),
           )

TEST_TABLE(REFERENCE='ANALYTIQUE',
           PRECISION=1.E-2,
           VALE_CALC=1.363910522,
           VALE_REFE=1.356277,
           NOM_PARA='K1',
           TABLE=G_1,
           FILTRE=_F(NOM_PARA='NOM_CAS',
                     VALE_K='CH_COS1',),
           )

TEST_TABLE(CRITERE='ABSOLU',
           REFERENCE='ANALYTIQUE',
           PRECISION=1.E-2,
           VALE_CALC=-3.68329127E-16,
           VALE_REFE=0.0,
           NOM_PARA='K2',
           TABLE=G_1,
           FILTRE=_F(NOM_PARA='NOM_CAS',
                     VALE_K='CH_COS1',),
           )

#

TEST_TABLE(CRITERE='ABSOLU',
           REFERENCE='ANALYTIQUE',
           PRECISION=1.0000000000000001E-05,
           VALE_CALC= 3.98112495E-08,
           VALE_REFE=0.0,
           NOM_PARA='G',
           TABLE=G_1,
           FILTRE=_F(NOM_PARA='NOM_CAS',
                     VALE_K='CH_COS5',),
           )

TEST_TABLE(CRITERE='ABSOLU',
           REFERENCE='ANALYTIQUE',
           PRECISION=5.0000000000000001E-3,
           VALE_CALC= 4.72022546E-03,
           VALE_REFE=0.0,
           NOM_PARA='K1',
           TABLE=G_1,
           FILTRE=_F(NOM_PARA='NOM_CAS',
                     VALE_K='CH_COS5',),
           )

TEST_TABLE(CRITERE='ABSOLU',
           REFERENCE='ANALYTIQUE',
           PRECISION=1.0000000000000001E-05,
           VALE_CALC=-2.08657852E-15,
           VALE_REFE=0.0,
           NOM_PARA='K2',
           TABLE=G_1,
           FILTRE=_F(NOM_PARA='NOM_CAS',
                     VALE_K='CH_COS5',),
           )

# IMPRESSION DES RESULTATS COURONNE 2 (QUADRANGLES)  ;
# -------------------------------------------------


TEST_TABLE(REFERENCE='ANALYTIQUE',
           PRECISION=1.E-2,
           VALE_CALC= 3.16779256E-03,
           VALE_REFE=3.1415800000000002E-3,
           NOM_PARA='G',
           TABLE=G_2,
           FILTRE=_F(NOM_PARA='NOM_CAS',
                     VALE_K='CH_UNI',),
           )

TEST_TABLE(REFERENCE='ANALYTIQUE',
           PRECISION=5.0000000000000001E-3,
           VALE_CALC=1.780746342,
           VALE_REFE=1.7724500000000001,
           NOM_PARA='K1',
           TABLE=G_2,
           FILTRE=_F(NOM_PARA='NOM_CAS',
                     VALE_K='CH_UNI',),
           )

TEST_TABLE(CRITERE='ABSOLU',
           REFERENCE='ANALYTIQUE',
           PRECISION=0.014999999999999999,
           VALE_CALC=-2.59898090E-15,
           VALE_REFE=0.0,
           NOM_PARA='K2',
           TABLE=G_2,
           FILTRE=_F(NOM_PARA='NOM_CAS',
                     VALE_K='CH_UNI',),
           )

#

TEST_TABLE(REFERENCE='ANALYTIQUE',
           PRECISION=5.0000000000000001E-3,
           VALE_CALC=0.010569458,
           VALE_REFE=0.0105349,
           NOM_PARA='G',
           TABLE=G_2,
           FILTRE=_F(NOM_PARA='NOM_CAS',
                     VALE_K='CH_EXP1',),
           )

TEST_TABLE(REFERENCE='ANALYTIQUE',
           PRECISION=5.0000000000000001E-3,
           VALE_CALC=3.256523381,
           VALE_REFE=3.2457600000000002,
           NOM_PARA='K1',
           TABLE=G_2,
           FILTRE=_F(NOM_PARA='NOM_CAS',
                     VALE_K='CH_EXP1',),
           )

TEST_TABLE(CRITERE='ABSOLU',
           REFERENCE='ANALYTIQUE',
           PRECISION=1.E-2,
           VALE_CALC= 1.99695323E-16,
           VALE_REFE=0.0,
           NOM_PARA='K2',
           TABLE=G_2,
           FILTRE=_F(NOM_PARA='NOM_CAS',
                     VALE_K='CH_EXP1',),
           )

#

TEST_TABLE(REFERENCE='ANALYTIQUE',
           PRECISION=0.014999999999999999,
           VALE_CALC=8.257953370,
           VALE_REFE=8.3567420000000006,
           NOM_PARA='G',
           TABLE=G_2,
           FILTRE=_F(NOM_PARA='NOM_CAS',
                     VALE_K='CH_EXP5',),
           )

TEST_TABLE(REFERENCE='ANALYTIQUE',
           PRECISION=5.0000000000000001E-3,
           VALE_CALC=91.527147296,
           VALE_REFE=91.415220000000005,
           NOM_PARA='K1',
           TABLE=G_2,
           FILTRE=_F(NOM_PARA='NOM_CAS',
                     VALE_K='CH_EXP5',),
           )

TEST_TABLE(CRITERE='ABSOLU',
           REFERENCE='ANALYTIQUE',
           PRECISION=1.E-2,
           VALE_CALC= 8.68387270E-14,
           VALE_REFE=0.0,
           NOM_PARA='K2',
           TABLE=G_2,
           FILTRE=_F(NOM_PARA='NOM_CAS',
                     VALE_K='CH_EXP5',),
           )

#

TEST_TABLE(REFERENCE='ANALYTIQUE',
           PRECISION=5.0000000000000001E-3,
           VALE_CALC= 1.00108525E-03,
           VALE_REFE=1.00344E-3,
           NOM_PARA='G',
           TABLE=G_2,
           FILTRE=_F(NOM_PARA='NOM_CAS',
                     VALE_K='CH_SINH1',),
           )

TEST_TABLE(REFERENCE='ANALYTIQUE',
           PRECISION=5.0000000000000001E-3,
           VALE_CALC=1.003457705,
           VALE_REFE=1.0017199999999999,
           NOM_PARA='K1',
           TABLE=G_2,
           FILTRE=_F(NOM_PARA='NOM_CAS',
                     VALE_K='CH_SINH1',),
           )

TEST_TABLE(CRITERE='ABSOLU',
           REFERENCE='ANALYTIQUE',
           PRECISION=1.E-2,
           VALE_CALC= 2.32408232E-15,
           VALE_REFE=0.0,
           NOM_PARA='K2',
           TABLE=G_2,
           FILTRE=_F(NOM_PARA='NOM_CAS',
                     VALE_K='CH_SINH1',),
           )

#

TEST_TABLE(REFERENCE='ANALYTIQUE',
           PRECISION=0.014999999999999999,
           VALE_CALC=1.838714788,
           VALE_REFE=1.86052,
           NOM_PARA='G',
           TABLE=G_2,
           FILTRE=_F(NOM_PARA='NOM_CAS',
                     VALE_K='CH_SINH5',),
           )

TEST_TABLE(REFERENCE='ANALYTIQUE',
           PRECISION=5.0000000000000001E-3,
           VALE_CALC=43.208815689,
           VALE_REFE=43.133800000000001,
           NOM_PARA='K1',
           TABLE=G_2,
           FILTRE=_F(NOM_PARA='NOM_CAS',
                     VALE_K='CH_SINH5',),
           )

TEST_TABLE(CRITERE='ABSOLU',
           REFERENCE='ANALYTIQUE',
           PRECISION=1.E-2,
           VALE_CALC= 7.13212752E-14,
           VALE_REFE=0.0,
           NOM_PARA='K2',
           TABLE=G_2,
           FILTRE=_F(NOM_PARA='NOM_CAS',
                     VALE_K='CH_SINH5',),
           )

#

TEST_TABLE(REFERENCE='ANALYTIQUE',
           PRECISION=1.E-2,
           VALE_CALC= 5.06486470E-03,
           VALE_REFE=5.0357099999999997E-3,
           NOM_PARA='G',
           TABLE=G_2,
           FILTRE=_F(NOM_PARA='NOM_CAS',
                     VALE_K='CH_COSH1',),
           )

TEST_TABLE(REFERENCE='ANALYTIQUE',
           PRECISION=5.0000000000000001E-3,
           VALE_CALC=2.253065676,
           VALE_REFE=2.24404,
           NOM_PARA='K1',
           TABLE=G_2,
           FILTRE=_F(NOM_PARA='NOM_CAS',
                     VALE_K='CH_COSH1',),
           )

TEST_TABLE(CRITERE='ABSOLU',
           REFERENCE='ANALYTIQUE',
           PRECISION=1.E-2,
           VALE_CALC=-2.26754098E-15,
           VALE_REFE=0.0,
           NOM_PARA='K2',
           TABLE=G_2,
           FILTRE=_F(NOM_PARA='NOM_CAS',
                     VALE_K='CH_COSH1',),
           )

#

TEST_TABLE(REFERENCE='ANALYTIQUE',
           PRECISION=0.014999999999999999,
           VALE_CALC=2.303330451,
           VALE_REFE=2.3310949999999999,
           NOM_PARA='G',
           TABLE=G_2,
           FILTRE=_F(NOM_PARA='NOM_CAS',
                     VALE_K='CH_COSH5',),
           )

TEST_TABLE(REFERENCE='ANALYTIQUE',
           PRECISION=5.0000000000000001E-3,
           VALE_CALC=48.318331607,
           VALE_REFE=48.281419999999997,
           NOM_PARA='K1',
           TABLE=G_2,
           FILTRE=_F(NOM_PARA='NOM_CAS',
                     VALE_K='CH_COSH5',),
           )

TEST_TABLE(CRITERE='ABSOLU',
           REFERENCE='ANALYTIQUE',
           PRECISION=1.E-2,
           VALE_CALC= 1.94862262E-14,
           VALE_REFE=0.0,
           NOM_PARA='K2',
           TABLE=G_2,
           FILTRE=_F(NOM_PARA='NOM_CAS',
                     VALE_K='CH_COSH5',),
           )

#

TEST_TABLE(REFERENCE='ANALYTIQUE',
           PRECISION=0.014999999999999999,
           VALE_CALC= 1.86116042E-03,
           VALE_REFE=1.8394800000000001E-3,
           NOM_PARA='G',
           TABLE=G_2,
           FILTRE=_F(NOM_PARA='NOM_CAS',
                     VALE_K='CH_COS1',),
           )

TEST_TABLE(REFERENCE='ANALYTIQUE',
           PRECISION=1.E-2,
           VALE_CALC=1.363873774,
           VALE_REFE=1.356277,
           NOM_PARA='K1',
           TABLE=G_2,
           FILTRE=_F(NOM_PARA='NOM_CAS',
                     VALE_K='CH_COS1',),
           )

TEST_TABLE(CRITERE='ABSOLU',
           REFERENCE='ANALYTIQUE',
           PRECISION=1.E-2,
           VALE_CALC=-2.31116915E-15,
           VALE_REFE=0.0,
           NOM_PARA='K2',
           TABLE=G_2,
           FILTRE=_F(NOM_PARA='NOM_CAS',
                     VALE_K='CH_COS1',),
           )

#

TEST_TABLE(CRITERE='ABSOLU',
           REFERENCE='ANALYTIQUE',
           PRECISION=1.0000000000000001E-05,
           VALE_CALC= 3.99815030E-08,
           VALE_REFE=0.0,
           NOM_PARA='G',
           TABLE=G_2,
           FILTRE=_F(NOM_PARA='NOM_CAS',
                     VALE_K='CH_COS5',),
           )

TEST_TABLE(CRITERE='ABSOLU',
           REFERENCE='ANALYTIQUE',
           PRECISION=5.0000000000000001E-3,
           VALE_CALC= 4.71015644E-03,
           VALE_REFE=0.0,
           NOM_PARA='K1',
           TABLE=G_2,
           FILTRE=_F(NOM_PARA='NOM_CAS',
                     VALE_K='CH_COS5',),
           )

TEST_TABLE(CRITERE='ABSOLU',
           REFERENCE='ANALYTIQUE',
           PRECISION=1.0000000000000001E-05,
           VALE_CALC=-2.62693833E-15,
           VALE_REFE=0.0,
           NOM_PARA='K2',
           TABLE=G_2,
           FILTRE=_F(NOM_PARA='NOM_CAS',
                     VALE_K='CH_COS5',),
           )

# IMPRESSION DES RESULTATS COURONNE 3 (QUADRANGLES)  ;
# -------------------------------------------------


TEST_TABLE(REFERENCE='ANALYTIQUE',
           PRECISION=1.E-2,
           VALE_CALC= 3.16792586E-03,
           VALE_REFE=3.1415800000000002E-3,
           NOM_PARA='G',
           TABLE=G_3,
           FILTRE=_F(NOM_PARA='NOM_CAS',
                     VALE_K='CH_UNI',),
           )

TEST_TABLE(REFERENCE='ANALYTIQUE',
           PRECISION=5.0000000000000001E-3,
           VALE_CALC=1.780785500,
           VALE_REFE=1.7724500000000001,
           NOM_PARA='K1',
           TABLE=G_3,
           FILTRE=_F(NOM_PARA='NOM_CAS',
                     VALE_K='CH_UNI',),
           )

TEST_TABLE(CRITERE='ABSOLU',
           REFERENCE='ANALYTIQUE',
           PRECISION=0.014999999999999999,
           VALE_CALC=-4.55885329E-15,
           VALE_REFE=0.0,
           NOM_PARA='K2',
           TABLE=G_3,
           FILTRE=_F(NOM_PARA='NOM_CAS',
                     VALE_K='CH_UNI',),
           )

#

TEST_TABLE(REFERENCE='ANALYTIQUE',
           PRECISION=5.0000000000000001E-3,
           VALE_CALC=0.010569916,
           VALE_REFE=0.0105349,
           NOM_PARA='G',
           TABLE=G_3,
           FILTRE=_F(NOM_PARA='NOM_CAS',
                     VALE_K='CH_EXP1',),
           )

TEST_TABLE(REFERENCE='ANALYTIQUE',
           PRECISION=5.0000000000000001E-3,
           VALE_CALC=3.256595516,
           VALE_REFE=3.2457600000000002,
           NOM_PARA='K1',
           TABLE=G_3,
           FILTRE=_F(NOM_PARA='NOM_CAS',
                     VALE_K='CH_EXP1',),
           )

TEST_TABLE(CRITERE='ABSOLU',
           REFERENCE='ANALYTIQUE',
           PRECISION=1.E-2,
           VALE_CALC=-2.78423118E-15,
           VALE_REFE=0.0,
           NOM_PARA='K2',
           TABLE=G_3,
           FILTRE=_F(NOM_PARA='NOM_CAS',
                     VALE_K='CH_EXP1',),
           )

#

TEST_TABLE(REFERENCE='ANALYTIQUE',
           PRECISION=0.014999999999999999,
           VALE_CALC=8.258360953,
           VALE_REFE=8.3567420000000006,
           NOM_PARA='G',
           TABLE=G_3,
           FILTRE=_F(NOM_PARA='NOM_CAS',
                     VALE_K='CH_EXP5',),
           )

TEST_TABLE(REFERENCE='ANALYTIQUE',
           PRECISION=5.0000000000000001E-3,
           VALE_CALC=91.529247333,
           VALE_REFE=91.415220000000005,
           NOM_PARA='K1',
           TABLE=G_3,
           FILTRE=_F(NOM_PARA='NOM_CAS',
                     VALE_K='CH_EXP5',),
           )

TEST_TABLE(CRITERE='ABSOLU',
           REFERENCE='ANALYTIQUE',
           PRECISION=1.E-2,
           VALE_CALC= 6.33382236E-14,
           VALE_REFE=0.0,
           NOM_PARA='K2',
           TABLE=G_3,
           FILTRE=_F(NOM_PARA='NOM_CAS',
                     VALE_K='CH_EXP5',),
           )

#

TEST_TABLE(REFERENCE='ANALYTIQUE',
           PRECISION=5.0000000000000001E-3,
           VALE_CALC= 1.00112994E-03,
           VALE_REFE=1.00344E-3,
           NOM_PARA='G',
           TABLE=G_3,
           FILTRE=_F(NOM_PARA='NOM_CAS',
                     VALE_K='CH_SINH1',),
           )

TEST_TABLE(REFERENCE='ANALYTIQUE',
           PRECISION=5.0000000000000001E-3,
           VALE_CALC=1.003480092,
           VALE_REFE=1.0017199999999999,
           NOM_PARA='K1',
           TABLE=G_3,
           FILTRE=_F(NOM_PARA='NOM_CAS',
                     VALE_K='CH_SINH1',),
           )

TEST_TABLE(CRITERE='ABSOLU',
           REFERENCE='ANALYTIQUE',
           PRECISION=1.E-2,
           VALE_CALC= 2.38090797E-15,
           VALE_REFE=0.0,
           NOM_PARA='K2',
           TABLE=G_3,
           FILTRE=_F(NOM_PARA='NOM_CAS',
                     VALE_K='CH_SINH1',),
           )

#

TEST_TABLE(REFERENCE='ANALYTIQUE',
           PRECISION=0.014999999999999999,
           VALE_CALC=1.838806506,
           VALE_REFE=1.86052,
           NOM_PARA='G',
           TABLE=G_3,
           FILTRE=_F(NOM_PARA='NOM_CAS',
                     VALE_K='CH_SINH5',),
           )

TEST_TABLE(REFERENCE='ANALYTIQUE',
           PRECISION=5.0000000000000001E-3,
           VALE_CALC=43.209809751,
           VALE_REFE=43.133800000000001,
           NOM_PARA='K1',
           TABLE=G_3,
           FILTRE=_F(NOM_PARA='NOM_CAS',
                     VALE_K='CH_SINH5',),
           )

TEST_TABLE(CRITERE='ABSOLU',
           REFERENCE='ANALYTIQUE',
           PRECISION=1.E-2,
           VALE_CALC= 7.45237205E-14,
           VALE_REFE=0.0,
           NOM_PARA='K2',
           TABLE=G_3,
           FILTRE=_F(NOM_PARA='NOM_CAS',
                     VALE_K='CH_SINH5',),
           )

#

TEST_TABLE(REFERENCE='ANALYTIQUE',
           PRECISION=1.E-2,
           VALE_CALC= 5.06508120E-03,
           VALE_REFE=5.0357099999999997E-3,
           NOM_PARA='G',
           TABLE=G_3,
           FILTRE=_F(NOM_PARA='NOM_CAS',
                     VALE_K='CH_COSH1',),
           )

TEST_TABLE(REFERENCE='ANALYTIQUE',
           PRECISION=5.0000000000000001E-3,
           VALE_CALC=2.253115424,
           VALE_REFE=2.24404,
           NOM_PARA='K1',
           TABLE=G_3,
           FILTRE=_F(NOM_PARA='NOM_CAS',
                     VALE_K='CH_COSH1',),
           )

TEST_TABLE(CRITERE='ABSOLU',
           REFERENCE='ANALYTIQUE',
           PRECISION=1.E-2,
           VALE_CALC=-5.75754722E-15,
           VALE_REFE=0.0,
           NOM_PARA='K2',
           TABLE=G_3,
           FILTRE=_F(NOM_PARA='NOM_CAS',
                     VALE_K='CH_COSH1',),
           )

#

TEST_TABLE(REFERENCE='ANALYTIQUE',
           PRECISION=0.014999999999999999,
           VALE_CALC=2.303443061,
           VALE_REFE=2.3310949999999999,
           NOM_PARA='G',
           TABLE=G_3,
           FILTRE=_F(NOM_PARA='NOM_CAS',
                     VALE_K='CH_COSH5',),
           )

TEST_TABLE(PRECISION=5.0000000000000001E-3,
           VALE_CALC=48.319437581,
           VALE_REFE=48.281419999999997,
           REFERENCE='NON_DEFINI',
           NOM_PARA='K1',
           TABLE=G_3,
           FILTRE=_F(NOM_PARA='NOM_CAS',
                     VALE_K='CH_COSH5',),
           )

TEST_TABLE(CRITERE='ABSOLU',
           REFERENCE='ANALYTIQUE',
           PRECISION=1.E-2,
           VALE_CALC=-5.82867088E-15,
           VALE_REFE=0.0,
           NOM_PARA='K2',
           TABLE=G_3,
           FILTRE=_F(NOM_PARA='NOM_CAS',
                     VALE_K='CH_COSH5',),
           )

#

TEST_TABLE(REFERENCE='ANALYTIQUE',
           PRECISION=0.014999999999999999,
           VALE_CALC= 1.86123716E-03,
           VALE_REFE=1.8394800000000001E-3,
           NOM_PARA='G',
           TABLE=G_3,
           FILTRE=_F(NOM_PARA='NOM_CAS',
                     VALE_K='CH_COS1',),
           )

TEST_TABLE(REFERENCE='ANALYTIQUE',
           PRECISION=1.E-2,
           VALE_CALC=1.363903608,
           VALE_REFE=1.356277,
           NOM_PARA='K1',
           TABLE=G_3,
           FILTRE=_F(NOM_PARA='NOM_CAS',
                     VALE_K='CH_COS1',),
           )

TEST_TABLE(CRITERE='ABSOLU',
           REFERENCE='ANALYTIQUE',
           PRECISION=1.E-2,
           VALE_CALC=-4.48426019E-15,
           VALE_REFE=0.0,
           NOM_PARA='K2',
           TABLE=G_3,
           FILTRE=_F(NOM_PARA='NOM_CAS',
                     VALE_K='CH_COS1',),
           )

#

TEST_TABLE(CRITERE='ABSOLU',
           REFERENCE='ANALYTIQUE',
           PRECISION=1.0000000000000001E-05,
           VALE_CALC= 4.00366033E-08,
           VALE_REFE=0.0,
           NOM_PARA='G',
           TABLE=G_COS53,)

TEST_TABLE(CRITERE='ABSOLU',
           REFERENCE='ANALYTIQUE',
           PRECISION=5.0000000000000001E-3,
           VALE_CALC= 4.70984197E-03,
           VALE_REFE=0.0,
           NOM_PARA='K1',
           TABLE=G_COS53,)

TEST_TABLE(CRITERE='ABSOLU',
           REFERENCE='ANALYTIQUE',
           PRECISION=1.0000000000000001E-05,
           VALE_CALC=-3.22420042E-15,
           VALE_REFE=0.0,
           NOM_PARA='K2',
           TABLE=G_COS53,)

# VALIDATION INFORMATION CALC_G
# PRISE EN COMPTE DES COMBINAISONS DE CHARGEMENT
# -----------------------------
LI1 = DEFI_LIST_REEL (DEBUT = -1., INTERVALLE=_F(JUSQU_A=1., PAS=0.01),)

CO1 = CALC_FONC_INTERP (FONCTION= COS1, LIST_PARA = LI1,
            INTERPOL='LIN', TITRE='FONCTION COS1' )

CH_COS1F=AFFE_CHAR_MECA_F(   MODELE=MO, 
                 PRES_REP=_F(   GROUP_MA = ( 'LEV_SUP', 
                                             'LEV_INF' ), 
                                 PRES = CO1)
                                  )
RE_TMP=MECA_STATIQUE(   MODELE=MO,   
                        CHAM_MATER=CHMAT,
                        EXCIT=( _F( CHARGE = CH_UNI), 
                                _F( CHARGE = CH_COS1F),
                                _F( CHARGE = CL))
                         )

G_TMP=CALC_G(              RESULTAT=RE_TMP,
                           THETA=_F(THETA = THETA0,
                                     FOND_FISS=FOND),
                           OPTION='CALC_K_G'
                          )
TEST_TABLE(CRITERE='RELATIF',
           VALE_CALC=2.9234900000000001,
           TOLE_MACHINE=1.0000000000000001E-05,
           NOM_PARA='K1',
           TABLE=G_TMP,
           )

FIN( )
#
