# MODIF  DATE 07/03/2005   AUTEUR CIBHHLV L.VIVAN 
# TITRE DISQUE MINCE EN APPUI SOUS CHARGE CONCENTREE (AXIS)
#            CONFIGURATION MANAGEMENT OF EDF VERSION
# ======================================================================
# COPYRIGHT (C) 1991 - 2001  EDF R&D                  WWW.CODE-ASTER.ORG
# THIS PROGRAM IS FREE SOFTWARE; YOU CAN REDISTRIBUTE IT AND/OR MODIFY
# IT UNDER THE TERMS OF THE GNU GENERAL PUBLIC LICENSE AS PUBLISHED BY
# THE FREE SOFTWARE FOUNDATION; EITHER VERSION 2 OF THE LICENSE, OR   
# (AT YOUR OPTION) ANY LATER VERSION.                                 
#
# THIS PROGRAM IS DISTRIBUTED IN THE HOPE THAT IT WILL BE USEFUL, BUT 
# WITHOUT ANY WARRANTY; WITHOUT EVEN THE IMPLIED WARRANTY OF          
# MERCHANTABILITY OR FITNESS FOR A PARTICULAR PURPOSE. SEE THE GNU    
# GENERAL PUBLIC LICENSE FOR MORE DETAILS.                            
#
# YOU SHOULD HAVE RECEIVED A COPY OF THE GNU GENERAL PUBLIC LICENSE   
# ALONG WITH THIS PROGRAM; IF NOT, WRITE TO EDF R&D CODE_ASTER,       
#    1 AVENUE DU GENERAL DE GAULLE, 92141 CLAMART CEDEX, FRANCE.      
# ======================================================================
DEBUT( CODE=_F(  NOM = 'SSLP305A',NIV_PUB_WEB='INTERNET') )

MAIL=LIRE_MAILLAGE()

#
MAIL=DEFI_GROUP( reuse=MAIL,   MAILLAGE=MAIL,CREA_GROUP_NO=(
                       _F(  GROUP_MA = 'LAG'),
                       _F(  GROUP_MA = 'LBD'))
                    )

#
# DEFINITION DU MODELE
MODELE=AFFE_MODELE(    MAILLAGE=MAIL,
                         AFFE=_F(  TOUT = 'OUI',
                       PHENOMENE = 'MECANIQUE',
                       MODELISATION = 'AXIS')  )

#
# DEFINITION DU MATERIAU
ACIER=DEFI_MATERIAU(    ELAS=_F(  E = 2.1E11,  NU = 0.3,
                                 ALPHA = 1.E-5,  RHO = 7800.)
                      )

#
# ATTRIBUTION DU MATERIAU
CHMAT=AFFE_MATERIAU(    MAILLAGE=MAIL,
                          AFFE=_F(  TOUT = 'OUI',
                                 MATER = ACIER)  )

#
# DEFINITION DES CONDITIONS AUX LIMITES ET CHARGEMENTS
CHARGT=AFFE_CHAR_MECA(    MODELE=MODELE,DDL_IMPO=(
                           _F(  GROUP_NO = 'B',   DY = 0.),
                           _F(  GROUP_NO = 'LAG', DX = 0.)),
                           FORCE_NODALE=_F(  GROUP_NO = 'A',
                                           FY = -55.704)
                        )

#
# RESOLUTION
DEF=MECA_STATIQUE(    MODELE=MODELE,
                        CHAM_MATER=CHMAT,
                        EXCIT=_F(  CHARGE = CHARGT)  )

#
# RECUPERATION DU CHAMP DE DEPLACEMENTS
U=CREA_CHAMP(  OPERATION='EXTR', TYPE_CHAM='NOEU_DEPL_R',
NOM_CHAM='DEPL', RESULTAT=DEF,
                 NUME_ORDRE=1
                  )

ENERGIE=POST_ELEM(    ENER_POT=_F(  TOUT = 'OUI'),
                        MODELE=MODELE,
                        CHAM_MATER=CHMAT,
                        CHAM_GD=U
                    )

#
# TEST_RESU DE L ENERGIE POTENTIELLE
#
TEST_TABLE(      TABLE=ENERGIE,
                 FILTRE=_F(  NOM_PARA = 'LIEU',
                          VALE_K = 'MAIL'),
                NOM_PARA='TOTALE',
               PRECISION=0.005,
                    VALE=1.2799E-2           )

#
# TEST_RESU DES DEPLACEMENTS
#
#
TEST_RESU(   CHAM_NO=_F(   CHAM_GD = U,
                         NOM_CMP = 'DY',
                         NOEUD = 'N1',
                         VALE = -0.4596E-3,
                         PRECISION = 0.005)
          )

FIN()
#
