# TITRE BIBLIO_65 FISSURE CENTRALE DANS UN BIMATERIAU
# ======================================================================
# COPYRIGHT (C) 1991 - 2012  EDF R&D                  WWW.CODE-ASTER.ORG
# THIS PROGRAM IS FREE SOFTWARE; YOU CAN REDISTRIBUTE IT AND/OR MODIFY
# IT UNDER THE TERMS OF THE GNU GENERAL PUBLIC LICENSE AS PUBLISHED BY
# THE FREE SOFTWARE FOUNDATION; EITHER VERSION 2 OF THE LICENSE, OR   
# (AT YOUR OPTION) ANY LATER VERSION.                                 
#
# THIS PROGRAM IS DISTRIBUTED IN THE HOPE THAT IT WILL BE USEFUL, BUT 
# WITHOUT ANY WARRANTY; WITHOUT EVEN THE IMPLIED WARRANTY OF          
# MERCHANTABILITY OR FITNESS FOR A PARTICULAR PURPOSE. SEE THE GNU    
# GENERAL PUBLIC LICENSE FOR MORE DETAILS.                            
#
# YOU SHOULD HAVE RECEIVED A COPY OF THE GNU GENERAL PUBLIC LICENSE   
# ALONG WITH THIS PROGRAM; IF NOT, WRITE TO EDF R&D CODE_ASTER,       
#    1 AVENUE DU GENERAL DE GAULLE, 92141 CLAMART CEDEX, FRANCE.      
# ======================================================================
#       PLAQUE RECTANGULAIRE FINIE SOUMISE A L'ACTION D'UNE TRACTION
#       THETA = 60 DEGRES

DEBUT( CODE=_F(NIV_PUB_WEB='INTERNET'))

#
MA=LIRE_MAILLAGE(VERI_MAIL=_F(VERIF='OUI'),FORMAT='MED',  )

MO=AFFE_MODELE(  MAILLAGE=MA, 
      AFFE=_F( TOUT = 'OUI',PHENOMENE = 'MECANIQUE',MODELISATION = 'C_PLAN'))

#
MAT1=DEFI_MATERIAU(ELAS=_F(  E = 2.E12, NU = 0.3, RHO = 0., ALPHA = 0.))

MAT2=DEFI_MATERIAU(ELAS=_F(  E = 2.E11, NU = 0.3, RHO = 0., ALPHA = 0.))

#
CHMAT=AFFE_MATERIAU(  MAILLAGE=MA,AFFE=(
                           _F(  GROUP_MA = 'VTOT1',  MATER = MAT1),
                           _F(  GROUP_MA = 'LP3P4',  MATER = MAT1),
                           _F(  GROUP_MA = 'LP2P3',  MATER = MAT1),
                           _F(  GROUP_MA = 'VTOT2',  MATER = MAT2),
                           _F(  GROUP_MA = 'LP7P8',  MATER = MAT2),
                           _F(  GROUP_MA = 'LP6P7',  MATER = MAT2))
                       )

#
#
MA=DEFI_GROUP( reuse=MA,   MAILLAGE=MA, 
                     CREA_GROUP_NO=_F( 
                         GROUP_MA = ( 'LP3P4',  'LP2P3',  
                                      'LP6P7',  'LP7P8',  ))
                 )

#
#
CH=AFFE_CHAR_MECA(  MODELE=MO,DDL_IMPO=( 
            _F(  GROUP_NO = 'LP6P7',   DY = 0.),
                     _F(  GROUP_NO = 'LP7P8',   DY = 0.),
                     _F(  GROUP_NO = 'P6',      DX = 0.)),FORCE_CONTOUR=(
            
                     _F(  GROUP_MA = 'LP3P4',  FY = 100.E6), 
                     _F(  GROUP_MA = 'LP2P3',  FY = 100.E6))

                          )

#
CHAMDEPL=MECA_STATIQUE(   MODELE=MO,   CHAM_MATER=CHMAT, 
                              EXCIT=_F( CHARGE = CH)
                          )

#
#
# POINT DROIT
#
FOND1=DEFI_FOND_FISS(    MAILLAGE=MA,
                            FOND_FISS=_F( GROUP_NO = ('P0',)),
                      )

#
THETA01A=CALC_THETA(    MODELE=MO,
                          THETA_2D=_F(  GROUP_NO = ('P0',),
                                     MODULE = 1.,
                                     R_INF = 0.,
                                     R_SUP = 0.001875E-2),
                          DIRECTION=(0.5, 0.866025404, 0.,)
                      )

#
G01A=CALC_G(    RESULTAT=CHAMDEPL,
                THETA=_F(THETA=THETA01A),
                      )

#

TEST_TABLE(REFERENCE='ANALYTIQUE',
           PRECISION=0.050000000000000003,
           VALE_CALC=31.182600476,
           VALE_REFE=32.243639999999999,
           NOM_PARA='G',
           TABLE=G01A,)

#
THETA01B=CALC_THETA(    MODELE=MO,
                          THETA_2D=_F(  GROUP_NO = ('P0',),
                                     MODULE = 1.,
                                     R_INF = 0.001875E-2,
                                     R_SUP = 0.003750E-2),
                          DIRECTION=(0.5, 0.866025404, 0.,)
                      )

#
G01B=CALC_G(    RESULTAT=CHAMDEPL,
                THETA=_F(THETA=THETA01B),
                      )

#

TEST_TABLE(REFERENCE='ANALYTIQUE',
           PRECISION=1.E-2,
           VALE_CALC=32.532261604,
           VALE_REFE=32.243639999999999,
           NOM_PARA='G',
           TABLE=G01B,)

#

THETA01C=CALC_THETA(    MODELE=MO,
                          THETA_2D=_F(  GROUP_NO = ('P0',),
                                     MODULE = 1.,
                                     R_INF = 0.003750E-2,
                                     R_SUP = 0.005625E-2),
                          DIRECTION=(0.5, 0.866025404, 0.,)
                      )

#
G01C=CALC_G(    RESULTAT=CHAMDEPL,
                THETA=_F(THETA=THETA01C),
                      )

#

TEST_TABLE(REFERENCE='ANALYTIQUE',
           PRECISION=1.E-2,
           VALE_CALC=32.538459486,
           VALE_REFE=32.243639999999999,
           NOM_PARA='G',
           TABLE=G01C,)

#
THETA01D=CALC_THETA(    MODELE=MO,
                          THETA_2D=_F(  GROUP_NO = ('P0',),
                                     MODULE = 1.,
                                     R_INF = 0.005625E-2,
                                     R_SUP = 0.007500E-2),
                          DIRECTION=(0.5, 0.866025404, 0.,)
                      )

#
G01D=CALC_G(    RESULTAT=CHAMDEPL,
                THETA=_F(THETA=THETA01D),
                      )

#

TEST_TABLE(REFERENCE='ANALYTIQUE',
           PRECISION=1.E-2,
           VALE_CALC=32.539879150,
           VALE_REFE=32.243639999999999,
           NOM_PARA='G',
           TABLE=G01D,)

#
# POINT GAUCHE
#
FOND2=DEFI_FOND_FISS(    MAILLAGE=MA,
                            FOND_FISS=_F( GROUP_NO = ('P0G',)),
                       )

#
THETA02A=CALC_THETA(    MODELE=MO,
                          THETA_2D=_F(  GROUP_NO = ('P0G',),
                                     MODULE = 1.,
                                     R_INF = 0.,
                                     R_SUP = 0.001875E-2),
                          DIRECTION=(-0.5, -0.866025404, 0.,)
                      )

#
G02A=CALC_G(    RESULTAT=CHAMDEPL,
                THETA=_F(THETA=THETA02A),
                      )

#

TEST_TABLE(REFERENCE='ANALYTIQUE',
           PRECISION=0.059999999999999998,
           VALE_CALC=31.068151497,
           VALE_REFE=32.801580000000001,
           NOM_PARA='G',
           TABLE=G02A,)

#
THETA02B=CALC_THETA(    MODELE=MO,
                          THETA_2D=_F(  GROUP_NO = ('P0G',),
                                     MODULE = 1.,
                                     R_INF = 0.001875E-2,
                                     R_SUP = 0.003750E-2),
                          DIRECTION=(-0.5, -0.866025404, 0.,)
                      )

#
G02B=CALC_G(    RESULTAT=CHAMDEPL,
                THETA=_F(THETA=THETA02B),
                     )

#

TEST_TABLE(REFERENCE='ANALYTIQUE',
           PRECISION=0.014999999999999999,
           VALE_CALC=32.403880392,
           VALE_REFE=32.801580000000001,
           NOM_PARA='G',
           TABLE=G02B,)

#
#
THETA02C=CALC_THETA(    MODELE=MO,
                          THETA_2D=_F(  GROUP_NO = ('P0G',),
                                     MODULE = 1.,
                                     R_INF = 0.003750E-2,
                                     R_SUP = 0.005625E-2),
                          DIRECTION=(-0.5, -0.866025404, 0.,)
                      )

#
G02C=CALC_G(    RESULTAT=CHAMDEPL,
                THETA=_F(THETA=THETA02C),
                      )

#

TEST_TABLE(REFERENCE='ANALYTIQUE',
           PRECISION=0.014999999999999999,
           VALE_CALC=32.414172316,
           VALE_REFE=32.801580000000001,
           NOM_PARA='G',
           TABLE=G02C,)

#
#
THETA02D=CALC_THETA(    MODELE=MO,
                          THETA_2D=_F(  GROUP_NO = ('P0G',),
                                     MODULE = 1.,
                                     R_INF = 0.005625E-2,
                                     R_SUP = 0.007500E-2),
                          DIRECTION=(-0.5, -0.866025404, 0.,)
                      )

#
G02D=CALC_G(    RESULTAT=CHAMDEPL,
                THETA=_F(THETA=THETA02D),
                      )

#

TEST_TABLE(REFERENCE='ANALYTIQUE',
           PRECISION=0.014999999999999999,
           VALE_CALC=32.415712976,
           VALE_REFE=32.801580000000001,
           NOM_PARA='G',
           TABLE=G02D,)

FIN()
