# TITRE TEST DE NON-REGRESSION ASTER : MECANIQUE LINEAIRE 2D C_PLAN
# person_in_charge: jacques.pellet at edf.fr
# ======================================================================
# COPYRIGHT (C) 1991 - 2012  EDF R&D                  WWW.CODE-ASTER.ORG
# THIS PROGRAM IS FREE SOFTWARE; YOU CAN REDISTRIBUTE IT AND/OR MODIFY
# IT UNDER THE TERMS OF THE GNU GENERAL PUBLIC LICENSE AS PUBLISHED BY
# THE FREE SOFTWARE FOUNDATION; EITHER VERSION 2 OF THE LICENSE, OR
# (AT YOUR OPTION) ANY LATER VERSION.
#
# THIS PROGRAM IS DISTRIBUTED IN THE HOPE THAT IT WILL BE USEFUL, BUT
# WITHOUT ANY WARRANTY; WITHOUT EVEN THE IMPLIED WARRANTY OF
# MERCHANTABILITY OR FITNESS FOR A PARTICULAR PURPOSE. SEE THE GNU
# GENERAL PUBLIC LICENSE FOR MORE DETAILS.
#
# YOU SHOULD HAVE RECEIVED A COPY OF THE GNU GENERAL PUBLIC LICENSE
# ALONG WITH THIS PROGRAM; IF NOT, WRITE TO EDF R&D CODE_ASTER,
#    1 AVENUE DU GENERAL DE GAULLE, 92141 CLAMART CEDEX, FRANCE.
# ======================================================================
DEBUT(CODE=_F(NIV_PUB_WEB='INTERNET'),DEBUG=_F(SDVERI='NON'))

# ========================================================================
# TEST DE NON REGRESSION :
# (les valeurs de reference ont ete obtenues par Code_Aster)
#
# - On utilise dans le maillage de nombreux types de mailles
#   (pour valider le plus d'elements finis)
#
# - domaines testes :
#      MECANIQUE LINEAIRE, MODELISATION='C_PLAN'
# =========================================================================

# ----------------------------------------------------------------------
#    DEFINITION DU MODELE
# ----------------------------------------------------------------------
MA=LIRE_MAILLAGE(  )


DEFI_GROUP( reuse=MA, MAILLAGE=MA,
                   CREA_GROUP_MA=(
                        _F(  NOM = 'TOUT', TOUT = 'OUI'),
                        _F(  NOM = 'CHEM1', MAILLE = ('M99', 'M147', 'M148', 'M100',)),
                   ),
                   CREA_GROUP_NO=(
                        _F(  NOM = 'CHEM1', GROUP_MA = 'CHEM1'),
                   ))

MO=AFFE_MODELE(    MAILLAGE=MA,
                         AFFE=_F(  TOUT = 'OUI',
                                PHENOMENE = 'MECANIQUE',
                                MODELISATION = 'C_PLAN') )

MOTH=AFFE_MODELE(    MAILLAGE=MA,
                           AFFE=_F(  TOUT = 'OUI',
                                  PHENOMENE = 'THERMIQUE',
                                  MODELISATION = 'PLAN') )

# ----------------------------------------------------------------------
#    DEFINITION DE CHAMPS
# ----------------------------------------------------------------------
LR1=DEFI_LIST_REEL(         DEBUT=-0.5,
                         INTERVALLE=_F(  JUSQU_A = 11.5,
                                      NOMBRE = 2) )

FO1=DEFI_FONCTION(    NOM_PARA='TEMP',

                        VALE=( -5.1, 1.05,
                                4.8, 1.12,
                               17.3, 1.14,),
                         PROL_DROITE='LINEAIRE',
                        PROL_GAUCHE='CONSTANT' )

FO2=DEFI_FONCTION(    NOM_PARA='TEMP',
                        VALE=( -8.1,  0.28,
                               12.5,  0.33,
                               25.7,  0.31,      ),
                         PROL_DROITE='LINEAIRE',
                        PROL_GAUCHE='CONSTANT' )

FO2_NU=DEFI_FONCTION(    NOM_PARA='TEMP',
                        VALE=( -8.1,  0.13674,
                               12.5,  0.185909619,
                               25.7,  0.14058841,      ),
                         PROL_DROITE='LINEAIRE',
                        PROL_GAUCHE='CONSTANT' )

FO3=DEFI_FONCTION(    NOM_PARA='TEMP',
                        VALE=( -5.1, 1.06,
                                4.8, 1.11,
                               17.3, 1.02,   ),
                         PROL_DROITE='LINEAIRE',
                        PROL_GAUCHE='CONSTANT' )

FO4=DEFI_FONCTION(    NOM_PARA='INST',
                        VALE=( -1.5, 0.85,
                                0.8, 0.98,
                                8.5, 0.94,   ),
                         PROL_DROITE='LINEAIRE',
                        PROL_GAUCHE='CONSTANT' )

FO5=DEFI_FONCTION(    NOM_PARA='X',
                        VALE=(  0.8, -0.91,
                                1.5, -0.94,
                                3.8, -0.89,  ),
                         PROL_DROITE='CONSTANT',
                        PROL_GAUCHE='LINEAIRE' )

FO6=DEFI_FONCTION(    NOM_PARA='Y',
                        VALE=( -2.1,  1.02E1,
                                3.3,  0.98,
                                8.9,  1.13E1,  ),
                         PROL_DROITE='LINEAIRE',
                        PROL_GAUCHE='LINEAIRE' )

FO7=DEFI_FONCTION(    NOM_PARA='INST',
                        VALE=(  0.,  -4.91,
                               11.2, -1.98,  ),
                         PROL_DROITE='LINEAIRE',
                        PROL_GAUCHE='LINEAIRE' )

FO8=DEFI_FONCTION(    NOM_PARA='X',
                        VALE=( -5.2,  6.11,
                                8.5,  6.04,  ),
                         PROL_DROITE='CONSTANT',
                        PROL_GAUCHE='CONSTANT' )

FO9=DEFI_FONCTION(    NOM_PARA='Y',
                        VALE=( -0.5, -6.05,
                               15.7, -5.88,  ),
                         PROL_DROITE='CONSTANT',
                        PROL_GAUCHE='LINEAIRE' )

FO10=DEFI_FONCTION(    NOM_PARA='INST',
                        VALE=(  2.6,  11.6,
                               19.2,  15.2,      ),
                         PROL_DROITE='CONSTANT',
                        PROL_GAUCHE='LINEAIRE' )

FO11=DEFI_FONCTION(    NOM_PARA='INST',
                        VALE=(  0.6,  0.94,
                               37.3,  1.02,      ),
                         PROL_DROITE='CONSTANT',
                        PROL_GAUCHE='LINEAIRE' )

FO12=DEFI_FONCTION(    NOM_PARA='INST',
                        VALE=( -5.4,  0.91,
                               31.4,  1.08,      ),
                         PROL_DROITE='LINEAIRE',
                        PROL_GAUCHE='LINEAIRE' )

FO13=DEFI_FONCTION(    NOM_PARA='TEMP',
                         VALE=( -1.1, 2.15,
                                 7.8, 1.82,
                                22.4, 2.41, ),
                          PROL_DROITE='LINEAIRE',
                         PROL_GAUCHE='CONSTANT' )

FO14=DEFI_FONCTION(    NOM_PARA='TEMP',
                         VALE=( -8.1,  0.19,
                                12.5,  0.25,
                                25.7,  0.34,      ),
                          PROL_DROITE='LINEAIRE',
                         PROL_GAUCHE='CONSTANT' )

FO15=DEFI_FONCTION(    NOM_PARA='TEMP',
                         VALE=( 9.2,  2.2,
                               11.4,  1.7,
                               15.8,  2.4,    ),
                          PROL_DROITE='LINEAIRE',
                         PROL_GAUCHE='CONSTANT' )

FO16=DEFI_FONCTION(    NOM_PARA='TEMP',
                         VALE=(  8.4, 5.15E1,
                                19.8, 2.82E1,
                                21.4, 4.74E1,   ),
                          PROL_DROITE='LINEAIRE',
                         PROL_GAUCHE='CONSTANT' )

FO17=DEFI_FONCTION(    NOM_PARA='TEMP',
                         VALE=( -12.5, 5.2E1,
                                  6.4, 6.8E1,
                                 11.2, 3.7E1,   ),
                          PROL_DROITE='LINEAIRE',
                         PROL_GAUCHE='CONSTANT' )

# ----------------------------------------------------------------------
#    DEFINITION DES CARACTERISTIQUES ELEMENTAIRES : AXES LOCAUX
# ----------------------------------------------------------------------
CARA1=AFFE_CARA_ELEM(    MODELE=MO,MASSIF=(
                           _F( GROUP_MA = 'TOUT', ANGL_REP = 21.4),
                           _F(  GROUP_MA = ('GMA10', 'GMA11', 'GMA12',), ANGL_REP = 0.),
                          ))

# ----------------------------------------------------------------------
#    DEFINITION ET AFFECTATION DES MATERIAUX : COMPORTEMENTS ELASTIQUES
# ----------------------------------------------------------------------
MAT1=DEFI_MATERIAU(    ELAS=_F(  E = 1.2,
                                NU = 0.3,
                                RHO = 7800.,
                                ALPHA = 1.2),
                         THER=_F(  RHO_CP = 1.4,
                                LAMBDA = 0.8) )

MAT2=DEFI_MATERIAU(    ELAS_FO=_F(  E = FO1,
                                   NU = FO2,
                                   RHO = 7820.,
                                   ALPHA = FO3,TEMP_DEF_ALPHA=6.9),
                         THER=_F(  RHO_CP = 1.2,
                                LAMBDA = 0.9) )

MAT3=DEFI_MATERIAU(    ELAS_ISTR=_F(  E_L = 1.5,
                                     E_N = 0.4,
                                     NU_LT = 0.25,
                                     NU_LN = 0.4,
                                     G_LN = 3.1E1,
                                     RHO = 8500.,
                                     ALPHA_L = 2.1,
                                     ALPHA_N = 0.8),
                         THER=_F(  RHO_CP = 2.2,
                                LAMBDA = 1.9) )

MAT4=DEFI_MATERIAU(    ELAS_ISTR_FO=_F(  E_L = FO1,
                                        E_N = FO13,
                                        NU_LT = FO2,
                                        NU_LN = FO14,
                                        G_LN = FO16,
                                        RHO = 6700.,
                                        ALPHA_L = FO3,
                                        ALPHA_N = FO15,
                                        TEMP_DEF_ALPHA=11.7),
                         THER=_F(  RHO_CP = 2.7,
                                LAMBDA = 0.4) )

MAT5=DEFI_MATERIAU(    ELAS_ORTH=_F(  E_L = 1.6,
                                     E_T = 0.8,
                                     E_N = 2.8,
                                     NU_LT = 0.4,
                                     NU_LN = 0.3,
                                     NU_TN = 0.4,
                                     G_LT = 1.1E1,
                                     G_LN = 2.2E1,
                                     G_TN = 3.5E1,
                                     RHO = 6820.,
                                     ALPHA_L = 3.2,
                                     ALPHA_T = 1.9,
                                     ALPHA_N = 1.7,
                                     XT = 1.2,
                                     XC = 3.5,
                                     YT = 2.7,
                                     YC = 3.4,
                                     S_LT = 2.6),
                         THER=_F(  RHO_CP = 3.2,
                                LAMBDA = 1.9) )

MAT6=DEFI_MATERIAU(    ELAS_ORTH_FO=_F(  E_L = FO1,
                                        E_T = FO13,
                                        E_N = FO1,
                                        NU_LT = FO2_NU,
                                        NU_LN = FO14,
                                        NU_TN = FO14,
                                        G_LT = FO16,
                                        G_LN = FO17,
                                        G_TN = FO16,
                                        RHO = 5240.,
                                        ALPHA_L = FO3,
                                        ALPHA_T = FO15,
                                        ALPHA_N = FO15,
                                        TEMP_DEF_ALPHA=0.),
                         THER=_F(  RHO_CP = 2.5,
                                LAMBDA = 1.7) )

CHMAT=AFFE_MATERIAU(    MAILLAGE=MA,AFFE=(
                          _F(  TOUT = 'OUI',
                                 MATER = MAT1),
                          _F(  GROUP_MA = 'GMA0',
                                 MATER = MAT2),
                          _F(  GROUP_MA = 'GMA9',
                                 MATER = MAT3),
                          _F(  GROUP_MA = 'GMA10',
                                 MATER = MAT4),
                          _F(  GROUP_MA = 'GMA11',
                                 MATER = MAT5),
                          _F(  GROUP_MA = 'GMA12',
                                 MATER = MAT6)) )

# DANS CHAQUE GROUP_MA, TOUS LES TYPES DE MAILLES SONT REPRESENTES

# ----------------------------------------------------------------------
#    AFFECTATION DES CHARGEMENTS ET DES CONDITIONS LIMITES
# ----------------------------------------------------------------------
CHTHF=AFFE_CHAR_THER_F(       MODELE=MOTH,TEMP_IMPO=(
                             _F(  TOUT = 'OUI',
                                         TEMP = FO11),
                             _F(  NOEUD = ('N85', 'N109', 'N38', 'N143',),
                                         TEMP = FO10)) )

THLIN=THER_LINEAIRE(        MODELE=MOTH,
                          CHAM_MATER=CHMAT,
                           CARA_ELEM=CARA1,
                           INCREMENT=_F(  LIST_INST = LR1),
                               EXCIT=_F(  CHARGE = CHTHF) )

ENGENDRE_TEST (  CO = THLIN, )



CHMAT2=AFFE_MATERIAU(    MAILLAGE=MA,AFFE=(
                          _F(  TOUT = 'OUI',
                                 MATER = MAT1,),
                          _F(  GROUP_MA = 'GMA0',
                                 MATER = MAT2,),
                          _F(  GROUP_MA = 'GMA9',
                                 MATER = MAT3),
                          _F(  GROUP_MA = 'GMA10',
                                 MATER = MAT4,),
                          _F(  GROUP_MA = 'GMA11',
                                 MATER = MAT5),
                          _F(  GROUP_MA = 'GMA12',
                                 MATER = MAT6)),
                                     AFFE_VARC=(
                          _F(  TOUT = 'OUI',
                                 EVOL=THLIN,
                                 NOM_VARC='TEMP',
                                 VALE_REF = 4.8),
                          _F(  GROUP_MA = 'GMA0',
                                 EVOL=THLIN,
                                 NOM_VARC='TEMP',
                                 VALE_REF = 6.9),
                          _F(  GROUP_MA = 'GMA9',
                                 EVOL=THLIN,
                                 VALE_REF=0.,
                                 NOM_VARC='TEMP',),
                          _F(  GROUP_MA = 'GMA10',
                                 EVOL=THLIN,
                                 NOM_VARC='TEMP',
                                 VALE_REF = 11.7),
                          _F(  GROUP_MA = 'GMA11',
                                 EVOL=THLIN,
                                 VALE_REF=0.,
                                 NOM_VARC='TEMP',),
                          _F(  GROUP_MA = 'GMA12',
                                 EVOL=THLIN,
                                 VALE_REF=0.,
                                 NOM_VARC='TEMP')) )


CHMEC=AFFE_CHAR_MECA(           MODELE=MO,
                               VERI_NORM='NON',
                               PESANTEUR=_F(GRAVITE=9.8,
                                            DIRECTION=(0.3,  0.1, -0.4,),),
                               ROTATION=_F(VITESSE = 0.069631062,
                                           AXE =(0., 0.,   1.,),),
#  ----  MAILLES 2D
                           FORCE_INTERNE=_F(  MAILLE = ('M42', 'M77',),
                                           FX = 0.84),
                           PRE_EPSI=_F(  MAILLE = 'M67',
                                       EPXX = 2.2),
#  ----  MAILLES DE FACE 1D
                           FACE_IMPO=_F(  MAILLE = 'M101',
                                       DNOR = -6.07),
                           FORCE_CONTOUR=_F(  MAILLE = 'M126',
                                           FX = 2.01E1,
                                           FY = 1.05E1),
                           PRES_REP=_F(  MAILLE = 'M120',
                                      PRES = -1.07E1),
#  ----  MAILLES DE TYPE QUELCONQUE
                           LIAISON_GROUP=_F(  MAILLE_1 = 'M87',
                                           GROUP_MA_2 = 'GMA6',
                                           DDL_1 = 'DX',
                                           COEF_MULT_1 = 1.8,
                                           DDL_2 = 'DY',
                                           COEF_MULT_2 = 0.7,
                                           COEF_IMPO = -5.22,
                                           TRAN = (1.6, 1.1,),
                                           SOMMET = 'OUI'),
                           LIAISON_UNIF=_F(  MAILLE = 'M24',
                                          DDL = ('DX', 'DY',)),LIAISON_SOLIDE=(
                           _F(  MAILLE = ('M31', 'M135',),
                                            NUME_LAGR = 'NORMAL'),
                           _F(  NOEUD = ('N37', 'N195',),
                                            NUME_LAGR = 'NORMAL')),
#  ----  NOEUDS
                           DDL_IMPO=_F(  NOEUD = 'N130',
                                      DY = 7.1),
                           LIAISON_DDL=_F(  NOEUD = ('N97', 'N97',),
                                         DDL = ('DY', 'DX',),
                                         COEF_MULT = (1.3,   1.1,),
                                         COEF_IMPO = 6.1),
                           LIAISON_OBLIQUE=_F(  NOEUD = 'N76',
                                             ANGL_NAUT = (18.7, 35.1,),
                                             DX = 5.95),
                           FORCE_NODALE=_F(  NOEUD = 'N30',
                                          FX = 0.86,
                                          FY = 0.98,
                                          ANGL_NAUT = (25.8, 7.1, 29.3,)))

CHMECF=AFFE_CHAR_MECA_F(         MODELE=MO,
                                VERI_NORM='NON',

#  ----  MAILLES 2D
                              FORCE_INTERNE=_F(  GROUP_MA = 'GMA1',
                                              FY = FO4),
                              PRE_EPSI=_F(  GROUP_MA = 'GMA2',
                                          EPYY = FO7),
#  ----  MAILLES DE BORD 1D
                              FACE_IMPO=_F(  GROUP_MA = 'GMA3',
                                          DX = FO9),
                              FORCE_CONTOUR=_F(  GROUP_MA = 'GMA4',
                                              FX = FO6),
                              PRES_REP=_F(  GROUP_MA = 'GMA5',
                                         CISA_2D = FO6),
#  ----  MAILLES DE TYPE QUELCONQUE
                              LIAISON_UNIF=_F(  GROUP_MA = 'GMA7',
                                             DDL = 'DY'),
#  ----  NOEUDS
                              DDL_IMPO=_F(  GROUP_NO = 'GNO1',
                                         DY = FO7),
                              LIAISON_DDL=_F(  GROUP_NO = 'GNO2',
                                            DDL = ('DX', 'DY',),
                                            COEF_MULT = (2.5,  -1.3,),
                                            COEF_IMPO = FO9),
                              LIAISON_OBLIQUE=_F(  GROUP_NO = 'GNO3',
                                                ANGL_NAUT = (-25.4, 2.7,
                                                              18.9, ),
                                                DX = FO9),
                              LIAISON_GROUP=_F(  NOEUD_1 = ('N145', 'N168',),
                                              GROUP_NO_2 = 'GNO4',
                                              SANS_NOEUD = 'N168',
                                              DDL_1 = ('DY', 'DX',),
                                              COEF_MULT_1 = (1.1,  -3.7,),
                                              DDL_2 = 'DX',
                                              COEF_MULT_2 = 2.8,
                                              COEF_IMPO = FO8,
                                             TRAN = (-0.2, -3.1,)),
                              FORCE_NODALE=_F(  GROUP_NO = 'GNO6',
                                             FY = FO6) )

CHCI=AFFE_CHAR_CINE(       MODELE=MO,
                          MECA_IMPO=_F(  NOEUD = 'N199',
                                      DY = 0.0) )

CHCIF=AFFE_CHAR_CINE_F(       MODELE=MO,
                             MECA_IMPO=_F(  GROUP_NO = 'GNO7',
                                         DX = FO7,
                                         DY = FO9) )


# ----------------------------------------------------------------------
#   COMMANDES GLOBALES DE MECANIQUE : STATIQUE LINEAIRE
# ----------------------------------------------------------------------

MSLIN=MECA_STATIQUE(        MODELE=MO,
                           CHAM_MATER=CHMAT2,
                            CARA_ELEM=CARA1,
                           EXCIT=_F(  CHARGE = CHMEC,
                                   FONC_MULT = FO11),
                           LIST_INST=LR1,
                        )

CALC_CHAMP(reuse=MSLIN,
           RESULTAT=MSLIN,
           LIST_INST=LR1,
           CRITERES=('SIEQ_ELNO','SIEQ_ELGA','EPEQ_ELNO','EPEQ_ELGA'),
           DEFORMATION=('EPME_ELGA','EPME_ELNO','EPSI_ELGA','EPSI_ELNO'),
           ENERGIE=('EPOT_ELEM'),
           CONTRAINTE=('SIGM_ELNO'),);


ENGENDRE_TEST (  CO = MSLIN )

TEST_RESU(RESU=(_F(NUME_ORDRE=1,
                   TYPE_TEST='SOMM_ABS',
                   RESULTAT=MSLIN,
                   NOM_CHAM='DEPL',
                   VALE_CALC=2005861117.22,
                   ),
                _F(NUME_ORDRE=2,
                   TYPE_TEST='SOMM_ABS',
                   RESULTAT=MSLIN,
                   NOM_CHAM='DEPL',
                   VALE_CALC=2033950002.97,
                   ),
                _F(NUME_ORDRE=3,
                   TYPE_TEST='SOMM_ABS',
                   RESULTAT=MSLIN,
                   NOM_CHAM='DEPL',
                   VALE_CALC=2062041839.95,
                   ),
                _F(NUME_ORDRE=1,
                   TYPE_TEST='SOMM_ABS',
                   RESULTAT=MSLIN,
                   NOM_CHAM='EPSI_ELGA',
                   VALE_CALC=269382459.185,
                   ),
                _F(NUME_ORDRE=2,
                   TYPE_TEST='SOMM_ABS',
                   RESULTAT=MSLIN,
                   NOM_CHAM='EPSI_ELGA',
                   VALE_CALC=273159370.613,
                   ),
                _F(NUME_ORDRE=3,
                   TYPE_TEST='SOMM_ABS',
                   RESULTAT=MSLIN,
                   NOM_CHAM='EPSI_ELGA',
                   VALE_CALC=276936822.598,
                   ),
                _F(NUME_ORDRE=1,
                   TYPE_TEST='SOMM_ABS',
                   RESULTAT=MSLIN,
                   NOM_CHAM='EPSI_ELNO',
                   VALE_CALC=351808449.455,
                   ),
                _F(NUME_ORDRE=2,
                   TYPE_TEST='SOMM_ABS',
                   RESULTAT=MSLIN,
                   NOM_CHAM='EPSI_ELNO',
                   VALE_CALC=356735588.284,
                   ),
                _F(NUME_ORDRE=3,
                   TYPE_TEST='SOMM_ABS',
                   RESULTAT=MSLIN,
                   NOM_CHAM='EPSI_ELNO',
                   VALE_CALC=361663283.777,
                   ),
                _F(NUME_ORDRE=1,
                   TYPE_TEST='SOMM_ABS',
                   RESULTAT=MSLIN,
                   NOM_CHAM='SIEF_ELGA',
                   VALE_CALC=320836859.868,
                   ),
                _F(NUME_ORDRE=2,
                   TYPE_TEST='SOMM_ABS',
                   RESULTAT=MSLIN,
                   NOM_CHAM='SIEF_ELGA',
                   VALE_CALC=325326120.43,
                   ),
                _F(NUME_ORDRE=3,
                   TYPE_TEST='SOMM_ABS',
                   RESULTAT=MSLIN,
                   NOM_CHAM='SIEF_ELGA',
                   VALE_CALC=329815759.057,
                   ),
                _F(NUME_ORDRE=1,
                   TYPE_TEST='SOMM_ABS',
                   RESULTAT=MSLIN,
                   NOM_CHAM='SIGM_ELNO',
                   VALE_CALC=399572825.801,
                   ),
                _F(NUME_ORDRE=2,
                   TYPE_TEST='SOMM_ABS',
                   RESULTAT=MSLIN,
                   NOM_CHAM='SIGM_ELNO',
                   VALE_CALC=405149518.008,
                   ),
                _F(NUME_ORDRE=3,
                   TYPE_TEST='SOMM_ABS',
                   RESULTAT=MSLIN,
                   NOM_CHAM='SIGM_ELNO',
                   VALE_CALC=410726353.387,
                   ),
                _F(NUME_ORDRE=1,
                   TYPE_TEST='SOMM_ABS',
                   RESULTAT=MSLIN,
                   NOM_CHAM='SIEQ_ELGA',
                   VALE_CALC=1370590525.38,
                   ),
                _F(NUME_ORDRE=2,
                   TYPE_TEST='SOMM_ABS',
                   RESULTAT=MSLIN,
                   NOM_CHAM='SIEQ_ELGA',
                   VALE_CALC=1389796860.16,
                   ),
                _F(NUME_ORDRE=3,
                   TYPE_TEST='SOMM_ABS',
                   RESULTAT=MSLIN,
                   NOM_CHAM='SIEQ_ELGA',
                   VALE_CALC=1409005444.77,
                   ),
                _F(NUME_ORDRE=1,
                   TYPE_TEST='SOMM_ABS',
                   RESULTAT=MSLIN,
                   NOM_CHAM='SIEQ_ELNO',
                   VALE_CALC=1681572222.47,
                   ),
                _F(NUME_ORDRE=2,
                   TYPE_TEST='SOMM_ABS',
                   RESULTAT=MSLIN,
                   NOM_CHAM='SIEQ_ELNO',
                   VALE_CALC=1705084251.75,
                   ),
                _F(NUME_ORDRE=3,
                   TYPE_TEST='SOMM_ABS',
                   RESULTAT=MSLIN,
                   NOM_CHAM='SIEQ_ELNO',
                   VALE_CALC=1728597912.49,
                   ),
                _F(NUME_ORDRE=1,
                   TYPE_TEST='SOMM_ABS',
                   RESULTAT=MSLIN,
                   NOM_CHAM='EPEQ_ELGA',
                   VALE_CALC=552263729.322,
                   ),
                _F(NUME_ORDRE=2,
                   TYPE_TEST='SOMM_ABS',
                   RESULTAT=MSLIN,
                   NOM_CHAM='EPEQ_ELGA',
                   VALE_CALC=559997027.265,
                   ),
                _F(NUME_ORDRE=3,
                   TYPE_TEST='SOMM_ABS',
                   RESULTAT=MSLIN,
                   NOM_CHAM='EPEQ_ELGA',
                   VALE_CALC=567731223.575,
                   ),
                _F(NUME_ORDRE=1,
                   TYPE_TEST='SOMM_ABS',
                   RESULTAT=MSLIN,
                   NOM_CHAM='EPEQ_ELNO',
                   VALE_CALC=720011460.298,
                   ),
                _F(NUME_ORDRE=2,
                   TYPE_TEST='SOMM_ABS',
                   RESULTAT=MSLIN,
                   NOM_CHAM='EPEQ_ELNO',
                   VALE_CALC=730086069.932,
                   ),
                _F(NUME_ORDRE=3,
                   TYPE_TEST='SOMM_ABS',
                   RESULTAT=MSLIN,
                   NOM_CHAM='EPEQ_ELNO',
                   VALE_CALC=740161640.103,
                   ),
                _F(NUME_ORDRE=1,
                   TYPE_TEST='SOMM_ABS',
                   RESULTAT=MSLIN,
                   NOM_CHAM='EPOT_ELEM',
                   VALE_CALC=1.12777580524E+13,
                   ),
                _F(NUME_ORDRE=2,
                   TYPE_TEST='SOMM_ABS',
                   RESULTAT=MSLIN,
                   NOM_CHAM='EPOT_ELEM',
                   VALE_CALC=1.1595281483E+13,
                   ),
                _F(NUME_ORDRE=3,
                   TYPE_TEST='SOMM_ABS',
                   RESULTAT=MSLIN,
                   NOM_CHAM='EPOT_ELEM',
                   VALE_CALC=1.19172320923E+13,
                   ),
                _F(NUME_ORDRE=1,
                   TYPE_TEST='SOMM_ABS',
                   RESULTAT=MSLIN,
                   NOM_CHAM='EPME_ELNO',
                   VALE_CALC=351807691.128,
                   ),
                _F(NUME_ORDRE=2,
                   TYPE_TEST='SOMM_ABS',
                   RESULTAT=MSLIN,
                   NOM_CHAM='EPME_ELNO',
                   VALE_CALC=356734831.721,
                   ),
                _F(NUME_ORDRE=3,
                   TYPE_TEST='SOMM_ABS',
                   RESULTAT=MSLIN,
                   NOM_CHAM='EPME_ELNO',
                   VALE_CALC=361662529.016,
                   ),
                _F(NUME_ORDRE=1,
                   TYPE_TEST='SOMM_ABS',
                   RESULTAT=MSLIN,
                   NOM_CHAM='EPME_ELGA',
                   VALE_CALC=269381834.223,
                   ),
                _F(NUME_ORDRE=2,
                   TYPE_TEST='SOMM_ABS',
                   RESULTAT=MSLIN,
                   NOM_CHAM='EPME_ELGA',
                   VALE_CALC=273158748.645,
                   ),
                _F(NUME_ORDRE=3,
                   TYPE_TEST='SOMM_ABS',
                   RESULTAT=MSLIN,
                   NOM_CHAM='EPME_ELGA',
                   VALE_CALC=276936203.632,
                   ),
                ),
          )

MSLI2=MECA_STATIQUE(        MODELE=MO,
                          CHAM_MATER=CHMAT2,
                           CARA_ELEM=CARA1,EXCIT=(
                          _F(  CHARGE = CHCI,
                                  FONC_MULT = FO12),
                          _F(  CHARGE = CHMECF,
                                 FONC_MULT = FO12),
                          _F(  CHARGE = CHCIF,
                                 FONC_MULT = FO11),),
                          LIST_INST=LR1)

# ----------------------------------------------------------------------
#   POST_TRAITEMENT DU CALCUL
# ----------------------------------------------------------------------
CALC_CHAMP(reuse=MSLI2,
           RESULTAT=MSLI2,
           NUME_ORDRE=(1,2,3),
           CRITERES=('SIEQ_ELNO','SIEQ_ELGA','EPEQ_ELNO','EPEQ_ELGA'),
           DEFORMATION=('EPME_ELGA','EPME_ELNO','EPSI_ELGA','EPSI_ELNO'),
           ENERGIE=('EPOT_ELEM'),
           CONTRAINTE=('SIGM_ELNO'),);

CALC_CHAMP( reuse=MSLI2,DEFORMATION='EPSI_NOEU',CRITERES=('SIEQ_NOEU','EPEQ_NOEU'),CONTRAINTE='SIGM_NOEU',
                       RESULTAT=MSLI2,
                      PRECISION=1.000000000E-03,
                        CRITERE='ABSOLU',
                           INST=11.5   )

ENGENDRE_TEST (  CO = MSLI2, )

TEST_RESU(RESU=(_F(NUME_ORDRE=1,
                   TYPE_TEST='SOMM_ABS',
                   RESULTAT=MSLI2,
                   NOM_CHAM='DEPL',
                   VALE_CALC=7765.12805536,
                   ),
                _F(NUME_ORDRE=2,
                   TYPE_TEST='SOMM_ABS',
                   RESULTAT=MSLI2,
                   NOM_CHAM='DEPL',
                   VALE_CALC=7990.43066141,
                   ),
                _F(NUME_ORDRE=3,
                   TYPE_TEST='SOMM_ABS',
                   RESULTAT=MSLI2,
                   NOM_CHAM='DEPL',
                   VALE_CALC=8220.13901503,
                   ),
                _F(NUME_ORDRE=1,
                   TYPE_TEST='SOMM_ABS',
                   RESULTAT=MSLI2,
                   NOM_CHAM='EPSI_ELGA',
                   VALE_CALC=7776.79712805,
                   ),
                _F(NUME_ORDRE=2,
                   TYPE_TEST='SOMM_ABS',
                   RESULTAT=MSLI2,
                   NOM_CHAM='EPSI_ELGA',
                   VALE_CALC=7820.87429543,
                   ),
                _F(NUME_ORDRE=3,
                   TYPE_TEST='SOMM_ABS',
                   RESULTAT=MSLI2,
                   NOM_CHAM='EPSI_ELGA',
                   VALE_CALC=7877.12333835,
                   ),
                _F(NUME_ORDRE=1,
                   TYPE_TEST='SOMM_ABS',
                   RESULTAT=MSLI2,
                   NOM_CHAM='EPSI_ELNO',
                   VALE_CALC=10053.0677058,
                   ),
                _F(NUME_ORDRE=2,
                   TYPE_TEST='SOMM_ABS',
                   RESULTAT=MSLI2,
                   NOM_CHAM='EPSI_ELNO',
                   VALE_CALC=10115.1183806,
                   ),
                _F(NUME_ORDRE=3,
                   TYPE_TEST='SOMM_ABS',
                   RESULTAT=MSLI2,
                   NOM_CHAM='EPSI_ELNO',
                   VALE_CALC=10197.6799736,
                   ),
                _F(NUME_ORDRE=3,
                   TYPE_TEST='SOMM_ABS',
                   RESULTAT=MSLI2,
                   NOM_CHAM='EPSI_NOEU',
                   VALE_CALC=3771.37320849,
                   ),
                _F(NUME_ORDRE=1,
                   TYPE_TEST='SOMM_ABS',
                   RESULTAT=MSLI2,
                   NOM_CHAM='SIEF_ELGA',
                   VALE_CALC=5688.21333095,
                   ),
                _F(NUME_ORDRE=2,
                   TYPE_TEST='SOMM_ABS',
                   RESULTAT=MSLI2,
                   NOM_CHAM='SIEF_ELGA',
                   VALE_CALC=5759.82517816,
                   ),
                _F(NUME_ORDRE=3,
                   TYPE_TEST='SOMM_ABS',
                   RESULTAT=MSLI2,
                   NOM_CHAM='SIEF_ELGA',
                   VALE_CALC=5857.99139186,
                   ),
                _F(NUME_ORDRE=1,
                   TYPE_TEST='SOMM_ABS',
                   RESULTAT=MSLI2,
                   NOM_CHAM='SIGM_ELNO',
                   VALE_CALC=7370.29520235,
                   ),
                _F(NUME_ORDRE=2,
                   TYPE_TEST='SOMM_ABS',
                   RESULTAT=MSLI2,
                   NOM_CHAM='SIGM_ELNO',
                   VALE_CALC=7494.78516741,
                   ),
                _F(NUME_ORDRE=3,
                   TYPE_TEST='SOMM_ABS',
                   RESULTAT=MSLI2,
                   NOM_CHAM='SIGM_ELNO',
                   VALE_CALC=7646.67857645,
                   ),
                _F(NUME_ORDRE=3,
                   TYPE_TEST='SOMM_ABS',
                   RESULTAT=MSLI2,
                   NOM_CHAM='SIGM_NOEU',
                   VALE_CALC=2465.22028741,
                   ),
                _F(NUME_ORDRE=1,
                   TYPE_TEST='SOMM_ABS',
                   RESULTAT=MSLI2,
                   NOM_CHAM='SIEQ_ELGA',
                   VALE_CALC=24818.3449288,
                   ),
                _F(NUME_ORDRE=2,
                   TYPE_TEST='SOMM_ABS',
                   RESULTAT=MSLI2,
                   NOM_CHAM='SIEQ_ELGA',
                   VALE_CALC=25240.8425469,
                   ),
                _F(NUME_ORDRE=3,
                   TYPE_TEST='SOMM_ABS',
                   RESULTAT=MSLI2,
                   NOM_CHAM='SIEQ_ELGA',
                   VALE_CALC=25746.3730511,
                   ),
                _F(NUME_ORDRE=1,
                   TYPE_TEST='SOMM_ABS',
                   RESULTAT=MSLI2,
                   NOM_CHAM='SIEQ_ELNO',
                   VALE_CALC=31652.0367527,
                   ),
                _F(NUME_ORDRE=2,
                   TYPE_TEST='SOMM_ABS',
                   RESULTAT=MSLI2,
                   NOM_CHAM='SIEQ_ELNO',
                   VALE_CALC=32254.0398949,
                   ),
                _F(NUME_ORDRE=3,
                   TYPE_TEST='SOMM_ABS',
                   RESULTAT=MSLI2,
                   NOM_CHAM='SIEQ_ELNO',
                   VALE_CALC=32974.4669547,
                   ),
                _F(NUME_ORDRE=3,
                   TYPE_TEST='SOMM',
                   RESULTAT=MSLI2,
                   NOM_CHAM='SIEQ_NOEU',
                   VALE_CALC=4737.71744704,
                   ),
                _F(NUME_ORDRE=1,
                   TYPE_TEST='SOMM_ABS',
                   RESULTAT=MSLI2,
                   NOM_CHAM='EPEQ_ELGA',
                   VALE_CALC=13486.1111377,
                   ),
                _F(NUME_ORDRE=2,
                   TYPE_TEST='SOMM_ABS',
                   RESULTAT=MSLI2,
                   NOM_CHAM='EPEQ_ELGA',
                   VALE_CALC=13581.552371,
                   ),
                _F(NUME_ORDRE=3,
                   TYPE_TEST='SOMM_ABS',
                   RESULTAT=MSLI2,
                   NOM_CHAM='EPEQ_ELGA',
                   VALE_CALC=13711.8496534,
                   ),
                _F(NUME_ORDRE=1,
                   TYPE_TEST='SOMM_ABS',
                   RESULTAT=MSLI2,
                   NOM_CHAM='EPEQ_ELNO',
                   VALE_CALC=17638.7433822,
                   ),
                _F(NUME_ORDRE=2,
                   TYPE_TEST='SOMM_ABS',
                   RESULTAT=MSLI2,
                   NOM_CHAM='EPEQ_ELNO',
                   VALE_CALC=17781.7628776,
                   ),
                _F(NUME_ORDRE=3,
                   TYPE_TEST='SOMM_ABS',
                   RESULTAT=MSLI2,
                   NOM_CHAM='EPEQ_ELNO',
                   VALE_CALC=17976.9990731,
                   ),
                _F(NUME_ORDRE=3,
                   TYPE_TEST='SOMM',
                   RESULTAT=MSLI2,
                   NOM_CHAM='EPEQ_NOEU',
                   VALE_CALC=-787.977738895,
                   ),
                _F(NUME_ORDRE=1,
                   TYPE_TEST='SOMM_ABS',
                   RESULTAT=MSLI2,
                   NOM_CHAM='EPOT_ELEM',
                   VALE_CALC=1880.47147566,
                   ),
                _F(NUME_ORDRE=2,
                   TYPE_TEST='SOMM_ABS',
                   RESULTAT=MSLI2,
                   NOM_CHAM='EPOT_ELEM',
                   VALE_CALC=1945.26236335,
                   ),
                _F(NUME_ORDRE=3,
                   TYPE_TEST='SOMM_ABS',
                   RESULTAT=MSLI2,
                   NOM_CHAM='EPOT_ELEM',
                   VALE_CALC=2029.08252323,
                   ),
                _F(NUME_ORDRE=1,
                   TYPE_TEST='SOMM_ABS',
                   RESULTAT=MSLI2,
                   NOM_CHAM='EPME_ELNO',
                   VALE_CALC=5768.25829102,
                   ),
                _F(NUME_ORDRE=2,
                   TYPE_TEST='SOMM_ABS',
                   RESULTAT=MSLI2,
                   NOM_CHAM='EPME_ELNO',
                   VALE_CALC=5850.95203584,
                   ),
                _F(NUME_ORDRE=3,
                   TYPE_TEST='SOMM_ABS',
                   RESULTAT=MSLI2,
                   NOM_CHAM='EPME_ELNO',
                   VALE_CALC=5957.90230901,
                   ),
                _F(NUME_ORDRE=1,
                   TYPE_TEST='SOMM_ABS',
                   RESULTAT=MSLI2,
                   NOM_CHAM='EPME_ELGA',
                   VALE_CALC=4223.45342041,
                   ),
                _F(NUME_ORDRE=2,
                   TYPE_TEST='SOMM_ABS',
                   RESULTAT=MSLI2,
                   NOM_CHAM='EPME_ELGA',
                   VALE_CALC=4270.0152395,
                   ),
                _F(NUME_ORDRE=3,
                   TYPE_TEST='SOMM_ABS',
                   RESULTAT=MSLI2,
                   NOM_CHAM='EPME_ELGA',
                   VALE_CALC=4342.80721247,
                   ),
                ),
          )

TEST_RESU(RESU=(_F(INST=11.5,
                   TYPE_TEST='SOMM_ABS',
                   RESULTAT=MSLI2,
                   NOM_CHAM='EPSI_NOEU',
                   VALE_CALC=3771.37320849,
                   ),
                _F(INST=11.5,
                   TYPE_TEST='SOMM',
                   RESULTAT=MSLI2,
                   NOM_CHAM='SIEQ_NOEU',
                   VALE_CALC=4737.71744704,
                   ),
                _F(INST=11.5,
                   TYPE_TEST='SOMM',
                   RESULTAT=MSLI2,
                   NOM_CHAM='EPEQ_NOEU',
                   VALE_CALC=-787.977738895,
                   ),
                _F(INST=11.5,
                   TYPE_TEST='SOMM_ABS',
                   RESULTAT=MSLI2,
                   NOM_CHAM='SIGM_NOEU',
                   VALE_CALC=2465.22028741,
                   ),
                ),
          )

# --------------------------------------------------------------------

CHAMNO1=CREA_CHAMP(  OPERATION='EXTR', TYPE_CHAM='NOEU_DEPL_R',
                     NOM_CHAM='DEPL', RESULTAT=MSLI2,
                       INST=0.7,
                       INTERPOL='LIN'
                        )

CHAMNO2=CREA_CHAMP(  OPERATION='EXTR', TYPE_CHAM='NOEU_DEPL_R',
                     NOM_CHAM='DEPL', RESULTAT=MSLI2,
                         TYPE_MAXI='NORM_TRAN',
                         TYPE_RESU='INST',
                         LIST_INST=LR1    )

CHAMEL1=CREA_CHAMP(  OPERATION='EXTR', TYPE_CHAM='ELGA_SIEF_R',
                     NOM_CHAM='SIEF_ELGA', RESULTAT=MSLI2,
                       INST=1.8,
                       INTERPOL='LIN'
                        )

CHAMEL2=CREA_CHAMP(  OPERATION='EXTR', TYPE_CHAM='ELGA_EPSI_R',
                     NOM_CHAM='EPSI_ELGA', RESULTAT=MSLI2,
                       INST=1.8,
                       INTERPOL='LIN'
                        )

CHAMEL3=CREA_CHAMP(  OPERATION='EXTR', TYPE_CHAM='ELNO_SIEF_R',
                     NOM_CHAM='SIGM_ELNO', RESULTAT=MSLI2,
                       INST=1.8,
                       INTERPOL='LIN'
                        )

CHAMEL4=CREA_CHAMP(  OPERATION='EXTR', TYPE_CHAM='ELNO_EPSI_R',
                     NOM_CHAM='EPSI_ELNO', RESULTAT=MSLI2,
                       INST=7.1,
                       INTERPOL='LIN'
                        )

CHAMEL5=CREA_CHAMP(  OPERATION='EXTR', TYPE_CHAM='ELNO_SIEF_R',
                     NOM_CHAM='SIEQ_ELNO', RESULTAT=MSLI2,
                        INST=6.4,
                        INTERPOL='LIN'   )

CHAMEL6=CREA_CHAMP(  OPERATION='EXTR', TYPE_CHAM='ELGA_EPSI_R',
                      NOM_CHAM='EPSI_ELGA', RESULTAT=MSLI2,
                        TYPE_MAXI='MINI',
                        TYPE_RESU='VALE',
                        TOUT_ORDRE='OUI' )

ENGENDRE_TEST (  CO = (CHAMNO1, CHAMNO2 ), )
ENGENDRE_TEST (  CO = (CHAMEL1,CHAMEL2,CHAMEL3,CHAMEL4,CHAMEL5,CHAMEL6 ), )

TEST_RESU(CHAM_NO=_F(
                     TYPE_TEST='SOMM_ABS',
                     CHAM_GD=CHAMNO1,
                     VALE_CALC=7809.46442866,),
          )

TEST_RESU(CHAM_NO=_F(
                     TYPE_TEST='SOMM_ABS',
                     CHAM_GD=CHAMNO2,
                     VALE_CALC=3156.79171474,),
          )

TEST_RESU(CHAM_ELEM=_F(
                       TYPE_TEST='SOMM_ABS',
                       CHAM_GD=CHAMEL5,
                       VALE_CALC=32340.9782339,),
          )

TEST_RESU(CHAM_ELEM=_F(
                       TYPE_TEST='SOMM_ABS',
                       CHAM_GD=CHAMEL6,
                       VALE_CALC=7884.52218041,),
          )

TEST_RESU(CHAM_ELEM=_F(
                       TYPE_TEST='SOMM_ABS',
                       CHAM_GD=CHAMEL1,
                       VALE_CALC=5712.93868576,),
          )

TEST_RESU(CHAM_ELEM=_F(
                       TYPE_TEST='SOMM_ABS',
                       CHAM_GD=CHAMEL2,
                       VALE_CALC=7791.4002595,),
          )

TEST_RESU(CHAM_ELEM=_F(
                       TYPE_TEST='SOMM_ABS',
                       CHAM_GD=CHAMEL3,
                       VALE_CALC=7414.44822372,),
          )

TEST_RESU(CHAM_ELEM=_F(
                       TYPE_TEST='SOMM_ABS',
                       CHAM_GD=CHAMEL4,
                       VALE_CALC=10134.7817214,),
          )

# --------------------------------------------------------------------

TABLE1=POST_ELEM(        MODELE=MO,
                        CHAM_MATER=CHMAT2,
                         CARA_ELEM=CARA1,
                             TITRE='MASSE INERTIE ET CENTRE DE GRAVITE',MASS_INER=(
                         _F( GROUP_MA = 'GMA8'),
                         _F( TOUT = 'OUI'),
                         _F( MAILLE = 'M54')) )

TABLE2=POST_ELEM(
                          RESULTAT=MSLI2,
                              INST=5.5,
                          ENER_POT=(_F( TOUT = 'OUI',),
                                    _F(GROUP_MA = 'GMA8',),
                                    _F(MAILLE = ('M44', 'M99',))) )

ENGENDRE_TEST (  CO=(TABLE1,TABLE2), )

TEST_TABLE(
           VALE_CALC=498641.937514,
           NOM_PARA='MASSE',
           TYPE_TEST='SOMM_ABS',
           TABLE=TABLE1,
           )

TEST_TABLE(
           VALE_CALC=9.71577272487,
           NOM_PARA='CDG_X',
           TYPE_TEST='SOMM_ABS',
           TABLE=TABLE1,
           )

TEST_TABLE(
           VALE_CALC=8.47710842426,
           NOM_PARA='CDG_Y',
           TYPE_TEST='SOMM_ABS',
           TABLE=TABLE1,
           )

TEST_TABLE(CRITERE='ABSOLU',
           VALE_CALC=0.,
           NOM_PARA='CDG_Z',
           TYPE_TEST='SOMM_ABS',
           TABLE=TABLE1,
           )

TEST_TABLE(
           VALE_CALC=3997020.08169,
           NOM_PARA='IX_G',
           TYPE_TEST='SOMM_ABS',
           TABLE=TABLE1,
           )

TEST_TABLE(
           VALE_CALC=1546154.5423,
           NOM_PARA='IY_G',
           TYPE_TEST='SOMM_ABS',
           TABLE=TABLE1,
           )

TEST_TABLE(
           VALE_CALC=5543174.62399,
           NOM_PARA='IZ_G',
           TYPE_TEST='SOMM_ABS',
           TABLE=TABLE1,
           )

TEST_TABLE(
           VALE_CALC=21213.9847974,
           NOM_PARA='IXY_G',
           TYPE_TEST='SOMM_ABS',
           TABLE=TABLE1,
           )

TEST_TABLE(CRITERE='ABSOLU',
           VALE_CALC=0.,
           NOM_PARA='IXZ_G',
           TYPE_TEST='SOMM_ABS',
           TABLE=TABLE1,
           )

TEST_TABLE(CRITERE='ABSOLU',
           VALE_CALC=0.,
           NOM_PARA='IYZ_G',
           TYPE_TEST='SOMM_ABS',
           TABLE=TABLE1,
           )

TEST_TABLE(
           VALE_CALC=1544259.05269,
           NOM_PARA='IX_PRIN_G',
           TYPE_TEST='SOMM_ABS',
           TABLE=TABLE1,
           )

TEST_TABLE(
           VALE_CALC=3998915.57131,
           NOM_PARA='IY_PRIN_G',
           TYPE_TEST='SOMM_ABS',
           TABLE=TABLE1,
           )

TEST_TABLE(
           VALE_CALC=5543174.62399,
           NOM_PARA='IZ_PRIN_G',
           TYPE_TEST='SOMM_ABS',
           TABLE=TABLE1,
           )

TEST_TABLE(
           VALE_CALC=205.458759566,
           NOM_PARA='ALPHA',
           TYPE_TEST='SOMM_ABS',
           TABLE=TABLE1,
           )

TEST_TABLE(CRITERE='ABSOLU',
           VALE_CALC=0.,
           NOM_PARA='BETA',
           TYPE_TEST='SOMM_ABS',
           TABLE=TABLE1,
           )

TEST_TABLE(
           VALE_CALC=360.0,
           NOM_PARA='GAMMA',
           TYPE_TEST='SOMM_ABS',
           TABLE=TABLE1,
           )

TEST_TABLE(
           VALE_CALC_I=8,
           NOM_PARA='NUME_ORDRE',
           TYPE_TEST='SOMM',
           TABLE=TABLE2,
           )

TEST_TABLE(
           VALE_CALC=2200.47157434,
           NOM_PARA='TOTALE',
           TYPE_TEST='SOMM_ABS',
           TABLE=TABLE2,
           )

TEST_TABLE(
           VALE_CALC=113.119526486,
           NOM_PARA='POUR_CENT',
           TYPE_TEST='SOMM_ABS',
           TABLE=TABLE2,
           )

LR3=DEFI_LIST_REEL(         DEBUT=0.,
                         INTERVALLE=_F(  JUSQU_A = 10.,
                                      NOMBRE = 5) )

FO18=RECU_FONCTION(       RESULTAT=MSLI2,
                            NOM_CHAM='SIGM_ELNO',
                              MAILLE='M71',
                               NOEUD='N156',
                             NOM_CMP='SIXY',
                           LIST_INST=LR3,
                         INTERP_NUME='LIN',
                            NOM_PARA='INST',
                            NOM_RESU='VITE',
                            INTERPOL=('LIN', 'LOG',),
                          PROL_DROITE='LINEAIRE',
                         PROL_GAUCHE='CONSTANT'  )

FO19=RECU_FONCTION(        CHAM_GD=CHAMEL2,
                              MAILLE='M88',
                               POINT=2,
                             NOM_CMP='EPXX',
                            INTERPOL=('LIN', 'LOG',),
                          PROL_DROITE='CONSTANT',
                         PROL_GAUCHE='CONSTANT'  )

FO20=RECU_FONCTION(        CHAM_GD=CHAMNO1,
                             NOM_CMP='DX',
                               NOEUD='N137',
                            INTERPOL=('LIN', 'LOG',),
                          PROL_DROITE='CONSTANT',
                         PROL_GAUCHE='CONSTANT'  )

FO21=CALC_FONCTION( COMB=(   _F(  FONCTION = FO10,
                                COEF = 5.1),
                         _F(  FONCTION = FO11,
                                COEF = -3.7),
                         _F(  FONCTION = FO12,
                                COEF = 0.8)),
                            NOM_PARA='INST',
                            NOM_RESU='VITE',
                          PROL_DROITE='LINEAIRE',
                         PROL_GAUCHE='LINEAIRE'  )

FO22=CALC_FONCTION(      DERIVE=_F(  FONCTION = FO18) )

FO23=CALC_FONCTION(     INTEGRE=_F(  FONCTION = FO21,
                                    COEF = 1.4) )

FO24=INFO_FONCTION(         MAX=_F(  FONCTION = FO21),  )

FO25=CALC_FONCTION(    ENVELOPPE=_F(  FONCTION = ( FO10, FO11, FO12, ),
                                     CRITERE = 'INF') )

FO26=CALC_FONCTION(    ENVELOPPE=_F(  FONCTION = ( FO11, FO12, ),
                                     CRITERE = 'SUP') )

TABLE3A=POST_RELEVE_T(ACTION=(_F(OPERATION='EXTRACTION',
                                INTITULE='TABLE_3A',
                                RESULTAT=MSLI2,
                                NOM_CHAM='EPSI_ELNO',
                                NUME_ORDRE=2,
                                CRITERE='RELATIF',
                                PRECISION=1.E-05,
                                NOEUD=('N109','N110','N111','N104','N103',),
                                NOM_CMP=('EPXX','EPXY',),
                                REPERE='LOCAL',
                                TRAC_DIR='OUI',
                                DIRECTION=(0.5,0.6,0.3,),),
                              ))


TABLE3B=MACR_LIGN_COUPE(CHAM_GD = CHAMNO1, MODELE=MO, NOM_CHAM='DEPL',
                     LIGN_COUPE=(
                        _F(INTITULE='TABLE_3B',
                           RESULTANTE = ('DY', 'DX',),
                           OPERATION = 'MOYENNE',
                           TYPE='GROUP_NO',GROUP_NO='CHEM1',),
                       ))


TEST_TABLE(
           VALE_CALC=38.5231645534,
           NOM_PARA='DX',
           TYPE_TEST='SOMM_ABS',
           TABLE=TABLE3B,
           )

TEST_TABLE(
           VALE_CALC=285.840420592,
           NOM_PARA='DY',
           TYPE_TEST='SOMM_ABS',
           TABLE=TABLE3B,
           )

TEST_TABLE(
           VALE_CALC=-20.7728568578,
           NOM_PARA='TR_DIR_1',
           TYPE_TEST='SOMM',
           TABLE=TABLE3A,
           )

TEST_TABLE(
           VALE_CALC=25.8786080063,
           NOM_PARA='TR_DIR_2',
           TYPE_TEST='SOMM_ABS',
           TABLE=TABLE3A,
           )

TEST_TABLE(
           VALE_CALC=3.29165342753,
           NOM_PARA='TR_DIR_2',
           TYPE_TEST='MAX',
           TABLE=TABLE3A,
           )

TEST_TABLE(
           VALE_CALC=-8.33383657049,
           NOM_PARA='TR_DIR_2',
           TYPE_TEST='MIN',
           TABLE=TABLE3A,
           )

TEST_TABLE(
           VALE_CALC=-6.34962568101,
           NOM_PARA='TR_DIR_3',
           TYPE_TEST='SOMM',
           TABLE=TABLE3A,
           )

FIN( )
#
