# TITRE PLAQUE ORTHOTROPE EN TRACTION UNIAXIALE HORS AXES D'ORTHOTROPIE
# person_in_charge: jean-michel.proix at edf.fr
# ======================================================================
# COPYRIGHT (C) 1991 - 2012  EDF R&D                  WWW.CODE-ASTER.ORG
# THIS PROGRAM IS FREE SOFTWARE; YOU CAN REDISTRIBUTE IT AND/OR MODIFY
# IT UNDER THE TERMS OF THE GNU GENERAL PUBLIC LICENSE AS PUBLISHED BY
# THE FREE SOFTWARE FOUNDATION; EITHER VERSION 2 OF THE LICENSE, OR
# (AT YOUR OPTION) ANY LATER VERSION.
#
# THIS PROGRAM IS DISTRIBUTED IN THE HOPE THAT IT WILL BE USEFUL, BUT
# WITHOUT ANY WARRANTY; WITHOUT EVEN THE IMPLIED WARRANTY OF
# MERCHANTABILITY OR FITNESS FOR A PARTICULAR PURPOSE. SEE THE GNU
# GENERAL PUBLIC LICENSE FOR MORE DETAILS.
#
# YOU SHOULD HAVE RECEIVED A COPY OF THE GNU GENERAL PUBLIC LICENSE
# ALONG WITH THIS PROGRAM; IF NOT, WRITE TO EDF R&D CODE_ASTER,
#    1 AVENUE DU GENERAL DE GAULLE, 92141 CLAMART CEDEX, FRANCE.
# ======================================================================
# MODELISATION COQUE_3D GROT_GDEP
#


DEBUT(CODE=_F(NOM='SSLP304D',NIV_PUB_WEB='INTERNET'),);

MAINI=LIRE_MAILLAGE(FORMAT='MED',);

MAINI=DEFI_GROUP(reuse =MAINI,
                 MAILLAGE=MAINI,
                 CREA_GROUP_MA=_F(NOM='TOUT',
                                  TOUT='OUI',),
                 CREA_GROUP_NO=_F(GROUP_MA='TOUT',),);

MAIL=CREA_MAILLAGE(MAILLAGE=MAINI,
                   MODI_MAILLE=(_F(TOUT='OUI',
                                   OPTION='QUAD8_9',),
                                _F(TOUT='OUI',
                                   OPTION='TRIA6_7',),),);
#
# DEFINITION DES GROUPES DE NOEUDS
#


MAIL=DEFI_GROUP(reuse =MAIL,
                MAILLAGE=MAIL,
                CREA_GROUP_NO=(_F(GROUP_MA='BORD_CH1',),
                               _F(GROUP_MA='BORD_CH2',),
                               _F(NOEUD=('N171','N336','N345'),
                                  NOM='RESULT',),),);
#
# DEFINITION DU MODELE
#


MODELE=AFFE_MODELE(MAILLAGE=MAIL,
                   AFFE=_F(TOUT='OUI',
                           PHENOMENE='MECANIQUE',
                           MODELISATION='COQUE_3D',),);
#
# DEFINITION DU MATERIAU
#


ACIER=DEFI_MATERIAU(ELAS_ORTH=_F(E_L=4.E10,
                                 E_T=1.E10,
                                 NU_LT=0.3,
                                 G_LT=4.500000000E9,
                                 G_TN=3.500000000E9,),);
#
#


CARA=AFFE_CARA_ELEM(MODELE=MODELE,
                    COQUE=_F(GROUP_MA='TOUT',
                             EPAIS=1.0,COQUE_NCOU=1,
                             ANGL_REP=(30.0,0.0),),);
#
# ATTRIBUTION DU MATERIAU
#


CHMAT=AFFE_MATERIAU(MAILLAGE=MAIL,
                    AFFE=_F(TOUT='OUI',
                            MATER=ACIER,),);
#
# DEFINITION DES CONDITIONS AUX LIMITES ET CHARGEMENTS
#


CHARGT=AFFE_CHAR_MECA(MODELE=MODELE,
                      DDL_IMPO=(_F(GROUP_NO='A',
                                   DX=0.0,
                                   DY=0.0,),
                                _F(GROUP_NO='TOUT',
                                   DZ=0.0,
                                   DRX=0.0,
                                   DRY=0.0,
                                   DRZ=0.0,),
                                _F(GROUP_NO='B',
                                   DX=0.0,),),
                      FORCE_ARETE=(_F(GROUP_MA='BORD_CH2',
                                      FX=1.E4,),
                                   _F(GROUP_MA='BORD_CH1',
                                      FX=-1.E4,),),);

linst=DEFI_LIST_REEL(DEBUT=0.0,
                     INTERVALLE=_F(JUSQU_A=1.0,
                                   NOMBRE=1,),);

DEF=STAT_NON_LINE(MODELE=MODELE,
                  CHAM_MATER=CHMAT,
                  CARA_ELEM=CARA,
                  EXCIT=_F(CHARGE=CHARGT,),
                  COMPORTEMENT=_F(RELATION='ELAS',
                               DEFORMATION='GROT_GDEP',),
                  INCREMENT=_F(LIST_INST=linst,),);
#
# RESOLUTION
#


U=CREA_CHAMP(TYPE_CHAM='NOEU_DEPL_R',
             OPERATION='EXTR',
             RESULTAT=DEF,
             NOM_CHAM='DEPL',
             NUME_ORDRE=1,);
#
#
# TEST_RESU DU DEPLACEMENT
#
#


TEST_RESU(CHAM_NO=(_F(NOEUD='N171',
                      CRITERE='ABSOLU',
                      REFERENCE='ANALYTIQUE',
                      NOM_CMP='DX',
                      PRECISION=1.E-3,
                      CHAM_GD=U,
                      VALE_CALC=-3.20331813E-29,
                      VALE_REFE=0.0,),
                   _F(NOEUD='N171',
                      REFERENCE='ANALYTIQUE',
                      NOM_CMP='DY',
                      PRECISION=1.E-3,
                      CHAM_GD=U,
                      VALE_CALC=-2.29166315E-07,
                      VALE_REFE=-2.2919999999999999E-07,),
                   _F(NOEUD='N336',
                      REFERENCE='ANALYTIQUE',
                      NOM_CMP='DX',
                      PRECISION=1.E-3,
                      CHAM_GD=U,
                      VALE_CALC= 5.91667962E-07,
                      VALE_REFE=5.9169999999999998E-07,),
                   _F(NOEUD='N336',
                      REFERENCE='ANALYTIQUE',
                      NOM_CMP='DY',
                      PRECISION=1.E-3,
                      CHAM_GD=U,
                      VALE_CALC=-5.02771318E-07,
                      VALE_REFE=-5.0279999999999998E-07,),
                   _F(NOEUD='N345',
                      REFERENCE='ANALYTIQUE',
                      NOM_CMP='DX',
                      PRECISION=1.E-3,
                      CHAM_GD=U,
                      VALE_CALC= 5.91662559E-07,
                      VALE_REFE=5.9169999999999998E-07,),
                   _F(NOEUD='N345',
                      REFERENCE='ANALYTIQUE',
                      NOM_CMP='DY',
                      PRECISION=1.E-3,
                      CHAM_GD=U,
                      VALE_CALC=-7.31938155E-07,
                      VALE_REFE=-7.3190000000000004E-07,),
                   ),
          )

# CALCUL DES CONTRAINTES

DEF=CALC_CHAMP(reuse=DEF,CONTRAINTE=('SIGM_ELNO'),VARI_INTERNE=('VARI_ELNO'),RESULTAT=DEF)


DEFPOS=POST_CHAMP(RESULTAT=DEF,
                  EXTR_COQUE=_F(NOM_CHAM='SIGM_ELNO',
                                NUME_COUCHE=1,
                                NIVE_COUCHE='MOY',),);
#
# TEST_RESU DE LA CONTRAINTE DANS LE REPERE D'ORTHOTROPIE=REPERE UTILISATEUR COQUE
#
TEST_RESU(RESU=(_F(NUME_ORDRE=1,
                   REFERENCE='ANALYTIQUE',
                   RESULTAT=DEFPOS,
                   NOM_CHAM='SIGM_ELNO',
                   NOEUD='N171',
                   NOM_CMP='SIXX',
                   VALE_CALC= 7.49991819E+03,
                   VALE_REFE=7500.0,
                   PRECISION=1.E-3,
                   MAILLE='M46',),
                _F(NUME_ORDRE=1,
                   REFERENCE='ANALYTIQUE',
                   RESULTAT=DEFPOS,
                   NOM_CHAM='SIGM_ELNO',
                   NOEUD='N171',
                   NOM_CMP='SIYY',
                   VALE_CALC= 2.49992634E+03,
                   VALE_REFE=2500.0,
                   PRECISION=1.E-3,
                   MAILLE='M46',),
                _F(NUME_ORDRE=1,
                   REFERENCE='ANALYTIQUE',
                   RESULTAT=DEFPOS,
                   NOM_CHAM='SIGM_ELNO',
                   NOEUD='N171',
                   NOM_CMP='SIXY',
                   VALE_CALC=-4.32999044E+03,
                   VALE_REFE=-4330.0,
                   PRECISION=1.E-3,
                   MAILLE='M46',),
                _F(NUME_ORDRE=1,
                   REFERENCE='ANALYTIQUE',
                   RESULTAT=DEFPOS,
                   NOM_CHAM='SIGM_ELNO',
                   NOEUD='N336',
                   NOM_CMP='SIXX',
                   VALE_CALC= 7.50000078E+03,
                   VALE_REFE=7500.0,
                   PRECISION=1.E-3,
                   MAILLE='M59',),
                _F(NUME_ORDRE=1,
                   REFERENCE='ANALYTIQUE',
                   RESULTAT=DEFPOS,
                   NOM_CHAM='SIGM_ELNO',
                   NOEUD='N336',
                   NOM_CMP='SIYY',
                   VALE_CALC= 2.50000149E+03,
                   VALE_REFE=2500.0,
                   PRECISION=1.E-3,
                   MAILLE='M59',),
                _F(NUME_ORDRE=1,
                   REFERENCE='ANALYTIQUE',
                   RESULTAT=DEFPOS,
                   NOM_CHAM='SIGM_ELNO',
                   NOEUD='N336',
                   NOM_CMP='SIXY',
                   VALE_CALC=-4.33013145E+03,
                   VALE_REFE=-4330.0,
                   PRECISION=1.E-3,
                   MAILLE='M59',),
                _F(NUME_ORDRE=1,
                   REFERENCE='ANALYTIQUE',
                   RESULTAT=DEFPOS,
                   NOM_CHAM='SIGM_ELNO',
                   NOEUD='N345',
                   NOM_CMP='SIXX',
                   VALE_CALC= 7.49999826E+03,
                   VALE_REFE=7500.0,
                   PRECISION=1.E-3,
                   MAILLE='M150',),
                _F(NUME_ORDRE=1,
                   REFERENCE='ANALYTIQUE',
                   RESULTAT=DEFPOS,
                   NOM_CHAM='SIGM_ELNO',
                   NOEUD='N345',
                   NOM_CMP='SIYY',
                   VALE_CALC= 2.50000362E+03,
                   VALE_REFE=2500.0,
                   PRECISION=1.E-3,
                   MAILLE='M150',),
                _F(NUME_ORDRE=1,
                   REFERENCE='ANALYTIQUE',
                   RESULTAT=DEFPOS,
                   NOM_CHAM='SIGM_ELNO',
                   NOEUD='N345',
                   NOM_CMP='SIXY',
                   VALE_CALC=-4.33012699E+03,
                   VALE_REFE=-4330.0,
                   PRECISION=1.E-3,
                   MAILLE='M150',),
                ),
          )

FIN()
#
