# TITRE VALIDATION DE L'ESTIMATEUR D'ERREUR XFEM SUR UNE PLAQUE FISSUREE
# ======================================================================
# COPYRIGHT (C) 1991 - 2012  EDF R&D                  WWW.CODE-ASTER.ORG
# THIS PROGRAM IS FREE SOFTWARE; YOU CAN REDISTRIBUTE IT AND/OR MODIFY
# IT UNDER THE TERMS OF THE GNU GENERAL PUBLIC LICENSE AS PUBLISHED BY
# THE FREE SOFTWARE FOUNDATION; EITHER VERSION 2 OF THE LICENSE, OR
# (AT YOUR OPTION) ANY LATER VERSION.
#
# THIS PROGRAM IS DISTRIBUTED IN THE HOPE THAT IT WILL BE USEFUL, BUT
# WITHOUT ANY WARRANTY; WITHOUT EVEN THE IMPLIED WARRANTY OF
# MERCHANTABILITY OR FITNESS FOR A PARTICULAR PURPOSE. SEE THE GNU
# GENERAL PUBLIC LICENSE FOR MORE DETAILS.
#
# YOU SHOULD HAVE RECEIVED A COPY OF THE GNU GENERAL PUBLIC LICENSE
# ALONG WITH THIS PROGRAM; IF NOT, WRITE TO EDF R&D CODE_ASTER,
#    1 AVENUE DU GENERAL DE GAULLE, 92141 CLAMART CEDEX, FRANCE.
# ======================================================================
# person_in_charge: josselin.delmas at edf.fr
# TEST V3.02.316
# CHARGEMENT EN DEPLACEMENT
# MAILLAGE : QUAD LINEAIRE
# COMPORTEMENT ELASTIQUE C_PLAN

DEBUT(CODE=_F(
              NIV_PUB_WEB='INTERNET',),
      DEBUG=_F(SDVERI='OUI',),);
e = 100000.0;

nu = 0.0;


ACIER=DEFI_MATERIAU(ELAS=_F(E=e,
                            NU=nu,
                            RHO=7800.0,),);
lx = 1.0;

ly = 1.0;


# a : profondeur de la fissure
# h : hauteur du plan de fissure
a = 0.5;

h = 0.5;


LN = FORMULE(VALE='Y-h',
             NOM_PARA=('X','Y',),);

LT = FORMULE(VALE='-X+a',
             NOM_PARA=('X','Y',),);

R = FORMULE(VALE='sqrt((X-0.5)**2+(Y-0.5)**2)',
            NOM_PARA=('X','Y',),);

T = FORMULE(VALE='atan2(Y-0.5,-X+0.5)',
            NOM_PARA=('X','Y',),);
coef = ((1 + nu) / (e * sqrt(6.28318530718)));


# CHAMPS DE DEPLACEMENT

OUAUX1 = FORMULE(VALE='-1.*coef*sqrt(R(X,Y))*cos(T(X,Y)/2.)*(3.-4.*nu-cos(T(X,Y)))',
                 NOM_PARA=('X','Y',),);

UAUX2 = FORMULE(VALE=' coef*sqrt(R(X,Y))*sin(T(X,Y)/2.)*(3.-4.*nu-cos(T(X,Y)))',
                NOM_PARA=('X','Y',),);

UAUX1 = FORMULE(VALE='-1.* OUAUX1(X,Y)',
                NOM_PARA=('X','Y',),);

H1YSUP = FORMULE(VALE='coef*sqrt(R(X,0.5))*(4.-4.*nu)',
                 NOM_PARA=('X','Y',),);

# INSTANTS

L_INS1=DEFI_LIST_REEL(DEBUT=0.0,
                      INTERVALLE=_F(JUSQU_A=3.0,
                                    NOMBRE=3,),);

MA=LIRE_MAILLAGE(FORMAT='MED',);

MA=DEFI_GROUP(reuse =MA,
              MAILLAGE=MA,
              CREA_GROUP_NO=(_F(GROUP_MA=('LIGSUP','LIGINF','LIGGAU','LIGDRO',),),
                             _F(OPTION='ENV_SPHERE',
                                NOM='NHSUP',
                                POINT=(lx,0.545454545455,),
                                RAYON=0.0227272727273,
                                PRECISION=0.0227272727273,),
                             _F(OPTION='ENV_SPHERE',
                                NOM='NHINF',
                                POINT=(lx,0.454545454545,),
                                RAYON=0.0227272727273,
                                PRECISION=0.0227272727273,),
                             _F(UNION=('LIGSUP','LIGINF','LIGGAU','LIGDRO',),
                                NOM='ENVELTOU',),
                             _F(DIFFE=('ENVELTOU','NHSUP','NHINF',),
                                NOM='ENVELCLA',),),);

MOD=AFFE_MODELE(MAILLAGE=MA,
                AFFE=_F(GROUP_MA='SURF',
                        PHENOMENE='MECANIQUE',
                        MODELISATION='C_PLAN',),);

FISS=DEFI_FISS_XFEM(MODELE=MOD,
                    DEFI_FISS=_F(FONC_LT=LT,
                                 FONC_LN=LN,),);

MODK=MODI_MODELE_XFEM(MODELE_IN=MOD,
                      FISSURE=FISS,);


MAT=AFFE_MATERIAU(MAILLAGE=MA,
                  MODELE=MODK,
                  AFFE=_F(GROUP_MA='SURF',
                          MATER=ACIER,),);

CH2=AFFE_CHAR_MECA_F(MODELE=MODK,
                     DDL_IMPO=(_F(GROUP_NO='ENVELCLA',
                                  DX=OUAUX1,
                                  DY=UAUX2,),
                               _F(GROUP_NO='NHSUP',
                                  DX=OUAUX1,
                                  DY=UAUX2,
                                  H1X=OUAUX1,
                                  H1Y=H1YSUP,),
                               _F(GROUP_NO='NHINF',
                                  DX=OUAUX1,
                                  DY=UAUX2,
                                  H1X=UAUX1,
                                  H1Y=H1YSUP,),),);

UTOT=MECA_STATIQUE(MODELE=MODK,
                   CHAM_MATER=MAT,
                   EXCIT=(
                          _F(CHARGE=CH2),
                          ),
                   );

UTOT=CALC_ERREUR(reuse =UTOT,
                 RESULTAT=UTOT,
                 NUME_ORDRE=1,
                 OPTION='ERME_ELEM',);

UTOT=CALC_CHAMP(reuse=UTOT,RESULTAT=UTOT,NUME_ORDRE=1,CONTRAINTE=('SIEF_ELNO'))


# RQ: LES CHAMPS SISE_ELNO (CAS XFEM) ET SIGM_ELNO SONT AUTOMATIQUEMENT
#     CALCULES DANS LA COMMANDE CALC_ERREUR POUR TROUVER L'ESTIMATEUR
#     D'ERREUR EN RESIDU


TEST_RESU(RESU=(_F(INST=0.0,
                   REFERENCE='NON_DEFINI',
                   TYPE_TEST='MAX',
                   RESULTAT=UTOT,
                   NOM_CHAM='SIEF_ELNO',
                   NOM_CMP='SIXX',
                   VALE_CALC=1.417636780,
                   VALE_REFE=1.4199999999999999,
                   CRITERE='RELATIF',
                   PRECISION=5.0000000000000001E-3,
                   ),
                _F(INST=0.0,
                   REFERENCE='NON_DEFINI',
                   TYPE_TEST='MIN',
                   RESULTAT=UTOT,
                   NOM_CHAM='SIEF_ELNO',
                   NOM_CMP='SIXX',
                   VALE_CALC=0.049048134,
                   VALE_REFE=0.049000000000000002,
                   CRITERE='RELATIF',
                   PRECISION=5.0000000000000001E-3,
                   ),
                _F(INST=0.0,
                   REFERENCE='NON_DEFINI',
                   TYPE_TEST='MAX',
                   RESULTAT=UTOT,
                   NOM_CHAM='SIEF_ELNO',
                   NOM_CMP='SIXY',
                   VALE_CALC=1.463360589,
                   VALE_REFE=1.46,
                   CRITERE='RELATIF',
                   PRECISION=5.0000000000000001E-3,
                   ),
                _F(INST=0.0,
                   REFERENCE='NON_DEFINI',
                   TYPE_TEST='MIN',
                   RESULTAT=UTOT,
                   NOM_CHAM='SIEF_ELNO',
                   NOM_CMP='SIXY',
                   VALE_CALC=-1.282251604,
                   VALE_REFE=-1.28,
                   CRITERE='RELATIF',
                   PRECISION=5.0000000000000001E-3,
                   ),
                _F(INST=0.0,
                   REFERENCE='NON_DEFINI',
                   TYPE_TEST='MAX',
                   RESULTAT=UTOT,
                   NOM_CHAM='SIGM_ELNO',
                   NOM_CMP='SIXX',
                   VALE_CALC=1.417636780,
                   VALE_REFE=1.4199999999999999,
                   CRITERE='RELATIF',
                   PRECISION=5.0000000000000001E-3,
                   ),
                _F(INST=0.0,
                   REFERENCE='NON_DEFINI',
                   TYPE_TEST='MIN',
                   RESULTAT=UTOT,
                   NOM_CHAM='SIGM_ELNO',
                   NOM_CMP='SIXX',
                   VALE_CALC=0.049048134,
                   VALE_REFE=0.049000000000000002,
                   CRITERE='RELATIF',
                   PRECISION=5.0000000000000001E-3,
                   ),
                _F(INST=0.0,
                   REFERENCE='NON_DEFINI',
                   TYPE_TEST='MAX',
                   RESULTAT=UTOT,
                   NOM_CHAM='SIGM_ELNO',
                   NOM_CMP='SIXY',
                   VALE_CALC=1.463360589,
                   VALE_REFE=1.46,
                   CRITERE='RELATIF',
                   PRECISION=5.0000000000000001E-3,
                   ),
                _F(INST=0.0,
                   REFERENCE='NON_DEFINI',
                   TYPE_TEST='MIN',
                   RESULTAT=UTOT,
                   NOM_CHAM='SIGM_ELNO',
                   NOM_CMP='SIXY',
                   VALE_CALC=-1.282251604,
                   VALE_REFE=-1.28,
                   CRITERE='RELATIF',
                   PRECISION=5.0000000000000001E-3,
                   ),
                _F(INST=0.0,
                   REFERENCE='NON_DEFINI',
                   TYPE_TEST='MAX',
                   RESULTAT=UTOT,
                   NOM_CHAM='SISE_ELNO',
                   NOM_CMP='X4',
                   VALE_CALC=0.244848765,
                   VALE_REFE=0.24399999999999999,
                   CRITERE='RELATIF',
                   PRECISION=5.0000000000000001E-3,
                   ),
                _F(INST=0.0,
                   REFERENCE='NON_DEFINI',
                   TYPE_TEST='MIN',
                   RESULTAT=UTOT,
                   NOM_CHAM='SISE_ELNO',
                   NOM_CMP='X4',
                   VALE_CALC=-0.698096563,
                   VALE_REFE=-0.69799999999999995,
                   CRITERE='RELATIF',
                   PRECISION=5.0000000000000001E-3,
                   ),
                _F(INST=0.0,
                   REFERENCE='NON_DEFINI',
                   TYPE_TEST='MAX',
                   RESULTAT=UTOT,
                   NOM_CHAM='ERME_ELEM',
                   NOM_CMP='ERREST',
                   VALE_CALC= 5.73877986E-04,
                   VALE_REFE=5.7300000000000005E-4,
                   CRITERE='RELATIF',
                   PRECISION=5.0000000000000001E-3,
                   ),
                _F(INST=0.0,
                   REFERENCE='NON_DEFINI',
                   TYPE_TEST='MIN',
                   RESULTAT=UTOT,
                   NOM_CHAM='ERME_ELEM',
                   NOM_CMP='ERREST',
                   VALE_CALC= 3.69908749E-06,
                   VALE_REFE=3.6899999999999998E-06,
                   CRITERE='RELATIF',
                   PRECISION=5.0000000000000001E-3,
                   ),
                ),
          )

FIN();
