# MODIF  DATE 30/07/2012   AUTEUR LEFEBVRE J-P.LEFEBVRE 
# TITRE VALIDATION DE L'ESTIMATEUR D'ERREUR XFEM SUR UNE PLAQUE FISSUREE
# sslp316b.para = tps_job 60 mem_job 256Mo ncpus 1 liste_test R
#            CONFIGURATION MANAGEMENT OF EDF VERSION
# ======================================================================
# COPYRIGHT (C) 1991 - 2012  EDF R&D                  WWW.CODE-ASTER.ORG
# THIS PROGRAM IS FREE SOFTWARE; YOU CAN REDISTRIBUTE IT AND/OR MODIFY
# IT UNDER THE TERMS OF THE GNU GENERAL PUBLIC LICENSE AS PUBLISHED BY
# THE FREE SOFTWARE FOUNDATION; EITHER VERSION 2 OF THE LICENSE, OR
# (AT YOUR OPTION) ANY LATER VERSION.
#
# THIS PROGRAM IS DISTRIBUTED IN THE HOPE THAT IT WILL BE USEFUL, BUT
# WITHOUT ANY WARRANTY; WITHOUT EVEN THE IMPLIED WARRANTY OF
# MERCHANTABILITY OR FITNESS FOR A PARTICULAR PURPOSE. SEE THE GNU
# GENERAL PUBLIC LICENSE FOR MORE DETAILS.
#
# YOU SHOULD HAVE RECEIVED A COPY OF THE GNU GENERAL PUBLIC LICENSE
# ALONG WITH THIS PROGRAM; IF NOT, WRITE TO EDF R&D CODE_ASTER,
#    1 AVENUE DU GENERAL DE GAULLE, 92141 CLAMART CEDEX, FRANCE.
# ======================================================================
# RESPONSABLE DELMAS J.DELMAS
# TEST V3.02.316
# CHARGEMENT EN DEPLACEMENT
# MAILLAGE : QUAD LINEAIRE
# COMPORTEMENT ELASTIQUE D_PLAN

DEBUT(CODE=_F(NOM='SSLP316B',
              NIV_PUB_WEB='INTERNET',),
      DEBUG=_F(SDVERI='OUI',),);
e = 100000.0;

nu = 0.0;


ACIER=DEFI_MATERIAU(ELAS=_F(E=e,
                            NU=nu,
                            RHO=7800.0,),);
lx = 1.0;

ly = 1.0;


# a : profondeur de la fissure
# h : hauteur du plan de fissure
a = 0.5;

h = 0.5;


LN = FORMULE(VALE='Y-h',
             NOM_PARA=('X','Y',),);

LT = FORMULE(VALE='-X+a',
             NOM_PARA=('X','Y',),);

ZERO = FORMULE(VALE='0.',
               NOM_PARA=('X','Y',),);

EFFORT = FORMULE(VALE='-20.',
                 NOM_PARA=('X','Y',),);

L_INS1=DEFI_LIST_REEL(DEBUT=0.0,
                      INTERVALLE=_F(JUSQU_A=3.0,
                                    NOMBRE=3,),);

MA=LIRE_MAILLAGE(FORMAT='MED',);

MA=DEFI_GROUP(reuse =MA,
              MAILLAGE=MA,
              CREA_GROUP_NO=_F(GROUP_MA=('LIGSUP','LIGINF','LIGGAU','LIGDRO',),),);

MOD=AFFE_MODELE(MAILLAGE=MA,
                AFFE=_F(GROUP_MA=('SURF','LIGSUP','LIGINF','LIGGAU','LIGDRO',),
                        PHENOMENE='MECANIQUE',
                        MODELISATION='D_PLAN',),);

FISS=DEFI_FISS_XFEM(MODELE=MOD,
                    DEFI_FISS=_F(FONC_LT=LT,
                                 FONC_LN=LN,),);

MODK=MODI_MODELE_XFEM(MODELE_IN=MOD,
                      FISSURE=FISS,);


MAT=AFFE_MATERIAU(MAILLAGE=MA,
                  MODELE=MODK,
                  AFFE=_F(GROUP_MA='SURF',
                          MATER=ACIER,),);

CH2=AFFE_CHAR_MECA_F(MODELE=MODK,
                     DDL_IMPO=_F(GROUP_NO='LIGGAU',
                                 DX=ZERO,
                                 DY=ZERO,),
                     PRES_REP=_F(GROUP_MA='LIGDRO',
                                 PRES=EFFORT,),);

UTOT=MECA_STATIQUE(MODELE=MODK,
                   CHAM_MATER=MAT,
                   EXCIT=(
                          _F(CHARGE=CH2),
                          ),
                   );

UTOT=CALC_ERREUR(reuse =UTOT,
                 RESULTAT=UTOT,
                 NUME_ORDRE=1,
                 OPTION='ERME_ELEM',);

UTOT=CALC_CHAMP(reuse=UTOT,RESULTAT=UTOT,NUME_ORDRE=1,CONTRAINTE=('SIEF_ELNO'))


# RQ: LES CHAMPS SISE_ELNO (CAS XFEM) ET SIGM_ELNO SONT AUTOMATIQUEMENT
#     CALCULES DANS LA COMMANDE CALC_ERREUR POUR TROUVER L'ESTIMATEUR
#     D'ERREUR EN RESIDU

TEST_RESU(RESU=(_F(RESULTAT=UTOT,
                   INST=0.0,
                   NOM_CHAM='SIEF_ELNO',
                   NOM_CMP='SIXX',
                   TYPE_TEST='MAX',
                   VALE=20.1,
                   CRITERE='RELATIF',
                   PRECISION=0.005,
                   REFERENCE='NON_REGRESSION',
                   VERSION='9.03.16',),
                _F(RESULTAT=UTOT,
                   NUME_ORDRE=1,
                   NOM_CHAM='SIEF_ELNO',
                   NOM_CMP='SIXX',
                   TYPE_TEST='MIN',
                   VALE=19.7,
                   CRITERE='RELATIF',
                   PRECISION=0.005,
                   REFERENCE='NON_REGRESSION',
                   VERSION='9.03.16',),
                _F(RESULTAT=UTOT,
                   INST=0.0,
                   NOM_CHAM='SIEF_ELNO',
                   NOM_CMP='SIXY',
                   TYPE_TEST='MAX',
                   VALE=0.258,
                   CRITERE='RELATIF',
                   PRECISION=0.005,
                   REFERENCE='NON_REGRESSION',
                   VERSION='9.03.16',),
                _F(RESULTAT=UTOT,
                   INST=0.0,
                   NOM_CHAM='SIEF_ELNO',
                   NOM_CMP='SIXY',
                   TYPE_TEST='MIN',
                   VALE=-0.176,
                   CRITERE='RELATIF',
                   PRECISION=0.005,
                   REFERENCE='NON_REGRESSION',
                   VERSION='9.03.16',),
                _F(RESULTAT=UTOT,
                   INST=0.0,
                   NOM_CHAM='SIGM_ELNO',
                   NOM_CMP='SIXX',
                   TYPE_TEST='MAX',
                   VALE=20.1,
                   CRITERE='RELATIF',
                   PRECISION=0.005,
                   REFERENCE='NON_REGRESSION',
                   VERSION='9.03.16',),
                _F(RESULTAT=UTOT,
                   NUME_ORDRE=1,
                   NOM_CHAM='SIGM_ELNO',
                   NOM_CMP='SIXX',
                   TYPE_TEST='MIN',
                   VALE=19.7,
                   CRITERE='RELATIF',
                   PRECISION=0.005,
                   REFERENCE='NON_REGRESSION',
                   VERSION='9.03.16',),
                _F(RESULTAT=UTOT,
                   INST=0.0,
                   NOM_CHAM='SIGM_ELNO',
                   NOM_CMP='SIXY',
                   TYPE_TEST='MAX',
                   VALE=0.258,
                   CRITERE='RELATIF',
                   PRECISION=0.005,
                   REFERENCE='NON_REGRESSION',
                   VERSION='9.03.16',),
                _F(RESULTAT=UTOT,
                   INST=0.0,
                   NOM_CHAM='SIGM_ELNO',
                   NOM_CMP='SIXY',
                   TYPE_TEST='MIN',
                   VALE=-0.176,
                   CRITERE='RELATIF',
                   PRECISION=0.005,
                   REFERENCE='NON_REGRESSION',
                   VERSION='9.03.16',),
                _F(RESULTAT=UTOT,
                   INST=0.0,
                   NOM_CHAM='SISE_ELNO',
                   NOM_CMP='X4',
                   TYPE_TEST='MAX',
                   VALE=0.269,
                   CRITERE='RELATIF',
                   PRECISION=0.005,
                   REFERENCE='NON_REGRESSION',
                   VERSION='9.03.16',),
                _F(RESULTAT=UTOT,
                   INST=0.0,
                   NOM_CHAM='SISE_ELNO',
                   NOM_CMP='X4',
                   TYPE_TEST='MIN',
                   VALE=-0.121,
                   CRITERE='RELATIF',
                   PRECISION=0.005,
                   REFERENCE='NON_REGRESSION',
                   VERSION='9.03.16',),
                _F(RESULTAT=UTOT,
                   INST=0.0,
                   NOM_CHAM='ERME_ELEM',
                   NOM_CMP='ERREST',
                   TYPE_TEST='MAX',
                   VALE=0.00013,
                   CRITERE='RELATIF',
                   PRECISION=0.005,
                   REFERENCE='NON_REGRESSION',
                   VERSION='9.03.16',),
                _F(RESULTAT=UTOT,
                   INST=0.0,
                   NOM_CHAM='ERME_ELEM',
                   NOM_CMP='ERREST',
                   TYPE_TEST='MIN',
                   VALE=2.42e-09,
                   CRITERE='RELATIF',
                   PRECISION=0.005,
                   REFERENCE='NON_REGRESSION',
                   VERSION='9.03.16',),),);

FIN();
