# TITRE LIAISON DE TYPE RBE3 ENTRE UNE PLAQUE ET UN DISCRET
# ======================================================================
# COPYRIGHT (C) 1991 - 2015  EDF R&D                  WWW.CODE-ASTER.ORG
# THIS PROGRAM IS FREE SOFTWARE; YOU CAN REDISTRIBUTE IT AND/OR MODIFY  
# IT UNDER THE TERMS OF THE GNU GENERAL PUBLIC LICENSE AS PUBLISHED BY  
# THE FREE SOFTWARE FOUNDATION; EITHER VERSION 2 OF THE LICENSE, OR     
# (AT YOUR OPTION) ANY LATER VERSION.                                                    
#                                                                       
# THIS PROGRAM IS DISTRIBUTED IN THE HOPE THAT IT WILL BE USEFUL, BUT   
# WITHOUT ANY WARRANTY; WITHOUT EVEN THE IMPLIED WARRANTY OF            
# MERCHANTABILITY OR FITNESS FOR A PARTICULAR PURPOSE. SEE THE GNU      
# GENERAL PUBLIC LICENSE FOR MORE DETAILS.                              
#                                                                       
# YOU SHOULD HAVE RECEIVED A COPY OF THE GNU GENERAL PUBLIC LICENSE     
# ALONG WITH THIS PROGRAM; IF NOT, WRITE TO EDF R&D CODE_ASTER,         
#    1 AVENUE DU GENERAL DE GAULLE, 92141 CLAMART CEDEX, FRANCE.        
# ======================================================================

DEBUT(CODE=_F(
              NIV_PUB_WEB='INTERNET',VISU_EFICAS='OUI',),DEBUG=_F(SDVERI='OUI'))

MAIL=LIRE_MAILLAGE(FORMAT='ASTER',VERI_MAIL=_F(VERIF='OUI',))

MODMECA=AFFE_MODELE(MAILLAGE=MAIL,
                    AFFE=(
                          _F(GROUP_MA='GMA00001',PHENOMENE='MECANIQUE',MODELISATION='C_PLAN',), # COQUE
                          _F(GROUP_MA='GMA00003',PHENOMENE='MECANIQUE',MODELISATION='2D_DIS_T',), # DISCRET2D
                         )
                   )

MAT00001=DEFI_MATERIAU(ELAS=_F(E=4000000.0,NU=0.0,RHO=0.0))

CHMAT=AFFE_MATERIAU(MAILLAGE=MAIL,
                    AFFE=(_F(GROUP_MA='GMA00002', MATER=MAT00001))
                   )

CINE1=AFFE_CHAR_CINE(MODELE=MODMECA,
                        MECA_IMPO=(
                                 _F(GROUP_NO='GNO00001',DX=0.0,DY=0.0,),
                                 _F(GROUP_MA='GMA00003',DY=0.0),
        ),)


BRBE3=AFFE_CHAR_MECA(MODELE=MODMECA,
        LIAISON_RBE3=(
                _F(
                      NOEUD_MAIT='N000005',
                      DDL_MAIT=('DX'),
                      NOEUD_ESCL=('N000001','N000002','N000003','N000004'),
                      DDL_ESCL=('DX-DY-DZ'),
                      COEF_ESCL=(1.,)
                ),
        ),
)

CHARGE1=AFFE_CHAR_MECA(MODELE=MODMECA,
                       FORCE_NODALE=(_F(GROUP_NO='GNO00002',FX=100.0,),)
                      )

CAEL=AFFE_CARA_ELEM(MODELE=MODMECA,
        DISCRET_2D=(
                _F(CARA='K_T_D_N', GROUP_MA='GMA00003',VALE=(0,0,),),
              )
                   )


RES_RBE3=MECA_STATIQUE(MODELE=MODMECA,
                    OPTION='SANS',
                    CHAM_MATER=CHMAT,CARA_ELEM=CAEL,
                    EXCIT=(
                           _F(CHARGE=CHARGE1,),
                           _F(CHARGE=CINE1,),
                           _F(CHARGE=BRBE3,),
                           ),
                   )

IMPR_RESU(
      FORMAT='RESULTAT',
      RESU=(
      _F(RESULTAT = RES_RBE3,NOM_CHAM = 'DEPL',VALE_MAX = 'OUI',VALE_MIN= 'OUI',),
      ),)


TEST_RESU(RESU=(_F(NUME_ORDRE=1,
                   REFERENCE='SOURCE_EXTERNE',
                   RESULTAT=RES_RBE3,
                   NOM_CHAM='DEPL',
                   NOEUD='N000001',
                   NOM_CMP='DX',
                   VALE_CALC= 0.0000000000E+00,
                   VALE_REFE=0.0,
                   CRITERE='ABSOLU',
                   PRECISION=1.E-10,),
                _F(NUME_ORDRE=1,
                   REFERENCE='SOURCE_EXTERNE',
                   RESULTAT=RES_RBE3,
                   NOM_CHAM='DEPL',
                   NOEUD='N000001',
                   NOM_CMP='DY',
                   VALE_CALC= 0.0000000000E+00,
                   VALE_REFE=0.0,
                   CRITERE='ABSOLU',
                   PRECISION=1.E-10,),
                _F(NUME_ORDRE=1,
                   REFERENCE='SOURCE_EXTERNE',
                   RESULTAT=RES_RBE3,
                   NOM_CHAM='DEPL',
                   NOEUD='N000002',
                   NOM_CMP='DX',
                   VALE_CALC= 1.25000000E-05,
                   VALE_REFE=1.2500000000000001E-05,
                   CRITERE='RELATIF',
                   PRECISION=9.9999999999999995E-07,),
                _F(NUME_ORDRE=1,
                   REFERENCE='SOURCE_EXTERNE',
                   RESULTAT=RES_RBE3,
                   NOM_CHAM='DEPL',
                   NOEUD='N000002',
                   NOM_CMP='DY',
                   VALE_CALC=-2.1175823681E-21,
                   VALE_REFE=0.0,
                   CRITERE='ABSOLU',
                   PRECISION=1.E-10,),
                _F(NUME_ORDRE=1,
                   REFERENCE='SOURCE_EXTERNE',
                   RESULTAT=RES_RBE3,
                   NOM_CHAM='DEPL',
                   NOEUD='N000003',
                   NOM_CMP='DX',
                   VALE_CALC= 1.25000000E-05,
                   VALE_REFE=1.2500000000000001E-05,
                   CRITERE='RELATIF',
                   PRECISION=9.9999999999999995E-07,),
                _F(NUME_ORDRE=1,
                   REFERENCE='SOURCE_EXTERNE',
                   RESULTAT=RES_RBE3,
                   NOM_CHAM='DEPL',
                   NOEUD='N000003',
                   NOM_CMP='DY',
                   VALE_CALC=-1.8038311585E-21,
                   VALE_REFE=0.0,
                   CRITERE='ABSOLU',
                   PRECISION=1.E-10,),
                _F(NUME_ORDRE=1,
                   REFERENCE='SOURCE_EXTERNE',
                   RESULTAT=RES_RBE3,
                   NOM_CHAM='DEPL',
                   NOEUD='N000004',
                   NOM_CMP='DX',
                   VALE_CALC= 0.0000000000E+00,
                   VALE_REFE=0.0,
                   CRITERE='ABSOLU',
                   PRECISION=1.E-10,),
                _F(NUME_ORDRE=1,
                   REFERENCE='SOURCE_EXTERNE',
                   RESULTAT=RES_RBE3,
                   NOM_CHAM='DEPL',
                   NOEUD='N000004',
                   NOM_CMP='DY',
                   VALE_CALC= 0.0000000000E+00,
                   VALE_REFE=0.0,
                   CRITERE='ABSOLU',
                   PRECISION=1.E-10,),
                _F(NUME_ORDRE=1,
                   REFERENCE='SOURCE_EXTERNE',
                   RESULTAT=RES_RBE3,
                   NOM_CHAM='DEPL',
                   NOEUD='N000005',
                   NOM_CMP='DX',
                   VALE_CALC= 6.25000000E-06,
                   VALE_REFE=6.2500000000000003E-06,
                   CRITERE='RELATIF',
                   PRECISION=9.9999999999999995E-07,),
                _F(NUME_ORDRE=1,
                   REFERENCE='SOURCE_EXTERNE',
                   RESULTAT=RES_RBE3,
                   NOM_CHAM='DEPL',
                   NOEUD='N000005',
                   NOM_CMP='DY',
                   VALE_CALC= 0.0000000000E+00,
                   VALE_REFE=0.0,
                   CRITERE='ABSOLU',
                   PRECISION=1.E-10,),
                ),
          )

FIN(FORMAT_HDF='OUI')
