# MODIF  DATE 19/10/2010   AUTEUR DELMAS J.DELMAS 
# TITRE PLAQUE EN FLEXION ET CISAILLEMENT DANS SON PLAN
#            CONFIGURATION MANAGEMENT OF EDF VERSION
# ======================================================================
# COPYRIGHT (C) 1991 - 2001  EDF R&D                  WWW.CODE-ASTER.ORG
# THIS PROGRAM IS FREE SOFTWARE; YOU CAN REDISTRIBUTE IT AND/OR MODIFY
# IT UNDER THE TERMS OF THE GNU GENERAL PUBLIC LICENSE AS PUBLISHED BY
# THE FREE SOFTWARE FOUNDATION; EITHER VERSION 2 OF THE LICENSE, OR
# (AT YOUR OPTION) ANY LATER VERSION.
#
# THIS PROGRAM IS DISTRIBUTED IN THE HOPE THAT IT WILL BE USEFUL, BUT
# WITHOUT ANY WARRANTY; WITHOUT EVEN THE IMPLIED WARRANTY OF
# MERCHANTABILITY OR FITNESS FOR A PARTICULAR PURPOSE. SEE THE GNU
# GENERAL PUBLIC LICENSE FOR MORE DETAILS.
#
# YOU SHOULD HAVE RECEIVED A COPY OF THE GNU GENERAL PUBLIC LICENSE
# ALONG WITH THIS PROGRAM; IF NOT, WRITE TO EDF R&D CODE_ASTER,
#    1 AVENUE DU GENERAL DE GAULLE, 92141 CLAMART CEDEX, FRANCE.
# ======================================================================
DEBUT(CODE=_F(NOM='SSLP01A',NIV_PUB_WEB='INTERNET'),DEBUG=_F(SDVERI='OUI'))

MAIL=LIRE_MAILLAGE()

#
# DEFINITION DES GROUPES DE NOEUDS
MAIL=DEFI_GROUP( reuse=MAIL,   MAILLAGE=MAIL,CREA_GROUP_NO=(
                       _F(  GROUP_MA = 'ENCAST'),
                       _F(  GROUP_MA = 'BORD_CH'))
                   )

#
# DEFINITION DU MODELE
MODELE=AFFE_MODELE(    MAILLAGE=MAIL,
                         AFFE=_F(  TOUT = 'OUI',
                       PHENOMENE = 'MECANIQUE',
                       MODELISATION = 'C_PLAN')  )

#
# DEFINITION DU MATERIAU
ACIER=DEFI_MATERIAU(    ELAS=_F(  E = 3.E10,  NU = 0.25)
                      )

#
# ATTRIBUTION DU MATERIAU
CHMAT=AFFE_MATERIAU(    MAILLAGE=MAIL,
                          AFFE=_F(  TOUT = 'OUI',
                                 MATER = ACIER)  )

#
# DEFINITION DES CONDITIONS AUX LIMITES ET CHARGEMENTS
CLIM=AFFE_CHAR_MECA(    MODELE=MODELE,
                            DDL_IMPO=_F(  GROUP_NO = 'ENCAST',
                                       DX = 0.,   DY = 0.)
                        )

FONCT=DEFI_FONCTION(    NOM_PARA='Y',
                          VALE=( -0.006,   0.,
                                 -0.003,   3.750E6,
                                  0.,      5.000E6,
                                  0.003,   3.750E6,
                                  0.006,   0., )
                      )

CHARGT=AFFE_CHAR_MECA_F(    MODELE=MODELE,
                              PRES_REP=_F(  GROUP_MA = 'BORD_CH',
                                            CISA_2D = FONCT)
                        )

#
# RESOLUTION
DEF=MECA_STATIQUE(    MODELE=MODELE,
                        CHAM_MATER=CHMAT,
                       EXCIT=( _F(  CHARGE = CHARGT),
                               _F(  CHARGE = CLIM))
                    )

#
# RECUPERATION DU CHAMP DE DEPLACEMENTS
U=CREA_CHAMP(  OPERATION='EXTR', TYPE_CHAM='NOEU_DEPL_R',
                 NOM_CHAM='DEPL', RESULTAT=DEF,
                 NUME_ORDRE=1
                  )

#
# CALCUL DES CONTRAINTES

DEF=CALC_ELEM( reuse= DEF ,RESULTAT= DEF ,
               OPTION='SIGM_ELNO_DEPL',    )

#
# TEST_RESU DU DEPLACEMENT
#
TEST_RESU(   CHAM_NO=_F(  CHAM_GD = U,
                        NOEUD = 'N33',
                        NOM_CMP = 'DY',
                        VALE = 0.341E-03,
                        PRECISION = 0.023)
          )

#
# TEST_RESU DE LA CONTRAINTE
#
TEST_RESU(   RESU=_F(  RESULTAT = DEF,
                          MAILLE = 'M1',
                          NOEUD = 'N1',
                          NUME_ORDRE=1,
                          NOM_CHAM='SIGM_ELNO_DEPL',
                          NOM_CMP = 'SIXX',
                          VALE = 8.0E+7,
                          PRECISION = 0.015)
          )

#----------------------------------------------------------
# TEST DE IMPR_RESU
#----------------------------------------------------------
#

IMPR_RESU( FORMAT = 'IDEAS', UNITE = 38,
           RESU=_F( RESULTAT = DEF,
                    TOUT_ORDRE = 'OUI', ))

#
#----------------------------------------------------------
# TEST DE LIRE_RESU
#----------------------------------------------------------


DEF_R=LIRE_RESU(           UNITE=38,
                          FORMAT='IDEAS',
                       TYPE_RESU='EVOL_ELAS',
                        NOM_CHAM='DEPL',
                      TOUT_ORDRE='OUI',
                          MODELE=MODELE,
                      CHAM_MATER=CHMAT,
                           EXCIT=(_F(CHARGE=CHARGT),),
                  )

#
# RECUPERATION DU CHAMP DE DEPLACEMENTS
U_R=CREA_CHAMP(  OPERATION='EXTR', TYPE_CHAM='NOEU_DEPL_R',
                 NOM_CHAM='DEPL', RESULTAT=DEF_R,
                 NUME_ORDRE=1
                    )

#
# CALCUL DES CONTRAINTES

DEF_R=CALC_ELEM( reuse= DEF_R ,RESULTAT= DEF_R ,
                              OPTION=('SIGM_ELNO_DEPL',),
                )

#
# TEST_RESU DU DEPLACEMENT
#
TEST_RESU(   CHAM_NO=_F(  CHAM_GD = U_R,
                        NOEUD = 'N33',
                        NOM_CMP = 'DY',
                        VALE = 0.341E-03,
                        PRECISION = 0.023,
                        REFERENCE = 'AUTRE_ASTER')
          )

#
# TEST_RESU DE LA CONTRAINTE
#
TEST_RESU(   RESU=_F(  RESULTAT = DEF_R,
                          MAILLE = 'M1',
                          NOEUD = 'N1',
                          NUME_ORDRE=1,
                          NOM_CHAM='SIGM_ELNO_DEPL',
                          NOM_CMP = 'SIXX',
                          VALE = 8.0E+7,
                          PRECISION = 0.015,
                          REFERENCE = 'AUTRE_ASTER'),
                          )

FIN()
#
