# ======================================================================
# COPYRIGHT (C) 1991 - 2016  EDF R&D                  WWW.CODE-ASTER.ORG
# THIS PROGRAM IS FREE SOFTWARE; YOU CAN REDISTRIBUTE IT AND/OR MODIFY
# IT UNDER THE TERMS OF THE GNU GENERAL PUBLIC LICENSE AS PUBLISHED BY
# THE FREE SOFTWARE FOUNDATION; EITHER VERSION 2 OF THE LICENSE, OR   
# (AT YOUR OPTION) ANY LATER VERSION.                                 
#
# THIS PROGRAM IS DISTRIBUTED IN THE HOPE THAT IT WILL BE USEFUL, BUT 
# WITHOUT ANY WARRANTY; WITHOUT EVEN THE IMPLIED WARRANTY OF          
# MERCHANTABILITY OR FITNESS FOR A PARTICULAR PURPOSE. SEE THE GNU    
# GENERAL PUBLIC LICENSE FOR MORE DETAILS.                            
#
# YOU SHOULD HAVE RECEIVED A COPY OF THE GNU GENERAL PUBLIC LICENSE   
# ALONG WITH THIS PROGRAM; IF NOT, WRITE TO EDF R&D CODE_ASTER,       
#    1 AVENUE DU GENERAL DE GAULLE, 92141 CLAMART CEDEX, FRANCE.      
# ======================================================================
#       PLAQUE RECTANGULAIRE FINIE SOUMISE A L'ACTION D'UNE TRACTION
#       THETA = 15 DEGRES

DEBUT( CODE=_F(NIV_PUB_WEB='INTERNET'))

MA=LIRE_MAILLAGE(VERI_MAIL=_F(VERIF='OUI'),FORMAT='MED', )

MO=AFFE_MODELE(  MAILLAGE=MA, 
      AFFE=_F( TOUT = 'OUI',PHENOMENE = 'MECANIQUE',MODELISATION = 'C_PLAN'))

#
MAT1=DEFI_MATERIAU(ELAS=_F(  E = 2.E12, NU = 0.3, RHO = 0., ALPHA = 0.))

MAT2=DEFI_MATERIAU(ELAS=_F(  E = 2.E11, NU = 0.3, RHO = 0., ALPHA = 0.))

#
CHMAT=AFFE_MATERIAU(  MAILLAGE=MA,AFFE=(
                           _F(  GROUP_MA = 'VTOT1',  MATER = MAT1),
                           _F(  GROUP_MA = 'LP3P4',  MATER = MAT1),
                           _F(  GROUP_MA = 'LP2P3',  MATER = MAT1),
                           _F(  GROUP_MA = 'VTOT2',  MATER = MAT2),
                           _F(  GROUP_MA = 'LP7P8',  MATER = MAT2),
                           _F(  GROUP_MA = 'LP6P7',  MATER = MAT2))
                       )

#
#
MA=DEFI_GROUP( reuse=MA,   MAILLAGE=MA, 
                     CREA_GROUP_NO=_F( 
                         GROUP_MA = ( 'LP3P4',  'LP2P3',  
                                      'LP6P7',  'LP7P8',  ))
                 )

#
#
CH=AFFE_CHAR_MECA(  MODELE=MO,DDL_IMPO=( 
            _F(  GROUP_NO = 'LP6P7',   DY = 0.),
                     _F(  GROUP_NO = 'LP7P8',   DY = 0.),
                     _F(  GROUP_NO = 'P6',      DX = 0.)),FORCE_CONTOUR=(
            
                     _F(  GROUP_MA = 'LP3P4',  FY = 1.E8), 
                     _F(  GROUP_MA = 'LP2P3',  FY = 1.E8))

                          )

#
CHAMDEPL=MECA_STATIQUE(   MODELE=MO,   CHAM_MATER=CHMAT, 
                              EXCIT=_F( CHARGE = CH)
                          )

#
# POINT DROIT
#
FOND1=DEFI_FOND_FISS(    MAILLAGE=MA,
                            FOND_FISS=_F( GROUP_NO = ('P0',)),
                      )

#
G01A=CALC_G(    RESULTAT=CHAMDEPL,
                THETA=_F(
                         R_INF=0.,
                         R_SUP=0.001875E-2,
                         FOND_FISS=FOND1,
                         MODULE=1.,
                         DIRECTION=(0.9659258, 0.2588190, 0.,)),
                      )

#

TEST_TABLE(REFERENCE='ANALYTIQUE',
           PRECISION=0.050000000000000003,
           VALE_CALC=96.7633099691,
           VALE_REFE=101.25060000000001,
           NOM_PARA='G',
           TABLE=G01A,)


#
G01B=CALC_G(    RESULTAT=CHAMDEPL,
                THETA=_F(
                         R_INF=0.001875E-2,
                         R_SUP=0.003750E-2,
                         FOND_FISS=FOND1,
                         MODULE=1.,
                         DIRECTION=(0.9659258, 0.2588190, 0.,)),
                      )

#

TEST_TABLE(REFERENCE='ANALYTIQUE',
           PRECISION=5.0000000000000001E-3,
           VALE_CALC=100.931193667,
           VALE_REFE=101.25060000000001,
           NOM_PARA='G',
           TABLE=G01B,)

#
G01C=CALC_G(    RESULTAT=CHAMDEPL,
                THETA=_F(
                         R_INF=0.003750E-2,
                         R_SUP=0.005625E-2,
                         FOND_FISS=FOND1,
                         MODULE=1.,
                         DIRECTION=(0.9659258, 0.2588190, 0.,)),
                      )

#

#

TEST_TABLE(REFERENCE='ANALYTIQUE',
           PRECISION=5.0000000000000001E-3,
           VALE_CALC=100.951311739,
           VALE_REFE=101.25060000000001,
           NOM_PARA='G',
           TABLE=G01C,)

#

#
G01D=CALC_G(    RESULTAT=CHAMDEPL,
                THETA=_F(
                         R_INF=0.005625E-2,
                         FOND_FISS=FOND1,
                         MODULE=1.,
                         R_SUP=0.007500E-2,
                         DIRECTION=(0.9659258, 0.2588190, 0.,)),
                      )

#

TEST_TABLE(REFERENCE='ANALYTIQUE',
           PRECISION=5.0000000000000001E-3,
           VALE_CALC=100.955538185,
           VALE_REFE=101.25060000000001,
           NOM_PARA='G',
           TABLE=G01D,)

#
#
# POINT GAUCHE
#
FOND2=DEFI_FOND_FISS(    MAILLAGE=MA,
                            FOND_FISS=_F( GROUP_NO = ('P0G',)),
                       )

#
G02A=CALC_G(    RESULTAT=CHAMDEPL,
                THETA=_F(
                         R_INF=0.,
                         R_SUP=0.001875E-2,
                         FOND_FISS=FOND2,
                         MODULE=1.,
                         DIRECTION=(-0.9659258, -0.2588190, 0.,)),
                      )

#

TEST_TABLE(REFERENCE='ANALYTIQUE',
           PRECISION=0.050000000000000003,
           VALE_CALC=92.4288553948,
           VALE_REFE=96.736199999999997,
           NOM_PARA='G',
           TABLE=G02A,)

#
#

#
G02B=CALC_G(    RESULTAT=CHAMDEPL,
                THETA=_F(
                         R_INF=0.001875E-2,
                         FOND_FISS=FOND2,
                         MODULE=1.,
                         R_SUP=0.003750E-2,
                         DIRECTION=(-0.9659258, -0.2588190, 0.,)),
                     )

#

TEST_TABLE(REFERENCE='ANALYTIQUE',
           PRECISION=5.0000000000000001E-3,
           VALE_CALC=96.3921114735,
           VALE_REFE=96.736199999999997,
           NOM_PARA='G',
           TABLE=G02B,)


#
G02C=CALC_G(    RESULTAT=CHAMDEPL,
                THETA=_F(
                         R_INF=0.003750E-2,
                         R_SUP=0.005625E-2,
                         FOND_FISS=FOND2,
                         MODULE=1.,
                         DIRECTION=(-0.9659258, -0.2588190, 0.,)),
                      )

#

TEST_TABLE(REFERENCE='ANALYTIQUE',
           PRECISION=5.0000000000000001E-3,
           VALE_CALC=96.4170520275,
           VALE_REFE=96.736199999999997,
           NOM_PARA='G',
           TABLE=G02C,)

#
G02D=CALC_G(    RESULTAT=CHAMDEPL,
                THETA=_F(
                         R_INF=0.005625E-2,
                         R_SUP=0.007500E-2,
                         FOND_FISS=FOND2,
                         MODULE=1.,
                         DIRECTION=(-0.9659258, -0.2588190, 0.,)),
                      )

#

TEST_TABLE(REFERENCE='ANALYTIQUE',
           PRECISION=0.050000000000000003,
           VALE_CALC=96.421246924,
           VALE_REFE=96.736199999999997,
           NOM_PARA='G',
           TABLE=G02D,)

FIN()
