# MODIF  DATE 24/05/2004   AUTEUR GALENNE E.GALENNE 
# TITRE PLAQUE FISSUREE AVEC PRESSION LEVRE FISSURE (CALCUL G,K1,K2 )
#            CONFIGURATION MANAGEMENT OF EDF VERSION
# ======================================================================
# COPYRIGHT (C) 1991 - 2001  EDF R&D                  WWW.CODE-ASTER.ORG
# THIS PROGRAM IS FREE SOFTWARE; YOU CAN REDISTRIBUTE IT AND/OR MODIFY
# IT UNDER THE TERMS OF THE GNU GENERAL PUBLIC LICENSE AS PUBLISHED BY
# THE FREE SOFTWARE FOUNDATION; EITHER VERSION 2 OF THE LICENSE, OR   
# (AT YOUR OPTION) ANY LATER VERSION.                                 
#
# THIS PROGRAM IS DISTRIBUTED IN THE HOPE THAT IT WILL BE USEFUL, BUT 
# WITHOUT ANY WARRANTY; WITHOUT EVEN THE IMPLIED WARRANTY OF          
# MERCHANTABILITY OR FITNESS FOR A PARTICULAR PURPOSE. SEE THE GNU    
# GENERAL PUBLIC LICENSE FOR MORE DETAILS.                            
#
# YOU SHOULD HAVE RECEIVED A COPY OF THE GNU GENERAL PUBLIC LICENSE   
# ALONG WITH THIS PROGRAM; IF NOT, WRITE TO EDF R&D CODE_ASTER,       
#    1 AVENUE DU GENERAL DE GAULLE, 92141 CLAMART CEDEX, FRANCE.      
# ======================================================================
# SSLP20C
# PLAQUE FISSUREE EN TRACTION (MAILLAGE ALIBABA )
# CALCUL DE L'INTEGRALE G ET DES COEFFICIENTS D'INTENSITE DE CONTRAINTES
# K1 ET K2 AVEC PRESSION SUR LA LEVRE FISSURE
#
DEBUT(CODE=_F( NOM = 'SSLP101C',NIV_PUB_WEB='INTERNET'))

MA=LIRE_MAILLAGE(  )

MO=AFFE_MODELE(  MAILLAGE=MA, 
                             AFFE=_F( TOUT = 'OUI',
                                   PHENOMENE = 'MECANIQUE',
                                   MODELISATION = 'C_PLAN'))

MAT=DEFI_MATERIAU(ELAS=_F(  E = 200000., NU = 0.3, RHO = 0., ALPHA = 0.))

CHMAT=AFFE_MATERIAU(  MAILLAGE=MA,AFFE=_F(  TOUT = 'OUI',MATER = MAT))

CH=AFFE_CHAR_MECA(  MODELE=MO,DDL_IMPO=( 
                            _F(  GROUP_NO = 'GRNM5', DY = 0.),
                                     _F(  NOEUD = 'N451',  DX = 0.)),
                            PRES_REP=_F(  GROUP_MA = 'GRMA4', PRES = 1.) )

PRESF = FORMULE(REEL="""(REEL:X,REEL:Y) =
1.""")

CHFONC=AFFE_CHAR_MECA_F(  MODELE=MO, 
                            PRES_REP=_F(  GROUP_MA = 'GRMA4',
                                           PRES = PRESF)    )

L_INST=DEFI_LIST_REEL(  DEBUT=0.0,
               INTERVALLE=_F( JUSQU_A = 2.0, NOMBRE = 2)
              )

RESU=STAT_NON_LINE( 
                            MODELE=MO,
                        CHAM_MATER=CHMAT,
                             EXCIT=_F( 
                CHARGE = CH),
                         COMP_ELAS=_F( 
                RELATION = 'ELAS'),
                         INCREMENT=_F( 
                LIST_INST = L_INST),
                       CONVERGENCE=_F( 
                RESI_GLOB_RELA = 1.E-6)
              )

RESU=CALC_ELEM( reuse=RESU,
                            OPTION=(
                  'SIEF_ELNO_ELGA',  'VARI_ELNO_ELGA',),
                          RESULTAT=RESU,
                            MODELE=MO,
                        CHAM_MATER=CHMAT
              )

THETA1=CALC_THETA(      MODELE=MO,
                        THETA_2D=_F(  NOEUD = 'N668', MODULE = 1.,
                                 R_INF = 22.04078,
                                 R_SUP = 30.),
                       DIRECTION=( 1., 0., 0.,) )

THETA2=CALC_THETA(     MODELE=MO,
                       THETA_2D=_F(  NOEUD = 'N668', MODULE = 1.,
                                  R_SUP = 22.04078,
                                  R_INF = 15.3061094),
                       DIRECTION=( 1., 0., 0.,))

THETA3=CALC_THETA(     MODELE=MO,
                       THETA_2D=_F(  NOEUD = 'N668', MODULE = 1.,
                                  R_INF = 9.79591846,
                                  R_SUP = 15.3061094),
                       DIRECTION=( 1., 0., 0.,))

THETA4=CALC_THETA(     MODELE=MO,
                       THETA_2D=_F(  NOEUD = 'N668', MODULE = 1.,
                                  R_SUP = 9.79591846,
                                  R_INF = 5.510197639),
                       DIRECTION=( 1., 0., 0.,))

THETA5=CALC_THETA(     MODELE=MO,
                       THETA_2D=_F(  NOEUD = 'N668', MODULE = 1.,
                                  R_INF = 2.448979377,
                                  R_SUP = 5.510197639),
                       DIRECTION=( 1., 0., 0.,))

THETA6=CALC_THETA(     MODELE=MO,
                       THETA_2D=_F(  NOEUD = 'N668', MODULE = 1.,
                                  R_SUP = 2.448979377,
                                  R_INF = 0.61225116),
                       DIRECTION=( 1., 0., 0.,))

FOND=DEFI_FOND_FISS( MAILLAGE=MA,
                       FOND_FISS=_F( NOEUD = 'N668'),
                       NORMALE=(0., 1., 0.,))

G1=CALC_G_THETA_T(         MODELE=MO,
                         RESULTAT=RESU,
                            THETA=THETA1,
                           EXCIT=_F(CHARGE=CHFONC,),
                        SYME_CHAR='SYME',
                        COMP_ELAS=_F( RELATION = 'ELAS',
                                   DEFORMATION = 'PETIT'),
                       CHAM_MATER=CHMAT )

GK1=CALC_G_THETA_T(         MODELE=MO,
                          RESULTAT=RESU,
                             THETA=THETA1,
                              FOND_FISS=FOND,
                         SYME_CHAR='SYME',
                            EXCIT=_F(CHARGE=CHFONC,),
                        CHAM_MATER=CHMAT,
                            OPTION='CALC_K_G')

G2=CALC_G_THETA_T(         MODELE=MO,
                         RESULTAT=RESU,
                            THETA=THETA2,
                           EXCIT=_F(CHARGE=CHFONC,),
                        SYME_CHAR='SYME',
                        COMP_ELAS=_F( RELATION = 'ELAS',
                                   DEFORMATION = 'PETIT'),
                       CHAM_MATER=CHMAT )

GK2=CALC_G_THETA_T(         MODELE=MO,
                          RESULTAT=RESU,
                             THETA=THETA2,
                              FOND_FISS=FOND,
                         SYME_CHAR='SYME',
                            EXCIT=_F(CHARGE=CHFONC,),
                        CHAM_MATER=CHMAT,
                            OPTION='CALC_K_G')

G3=CALC_G_THETA_T(         MODELE=MO,
                         RESULTAT=RESU,
                            THETA=THETA3,
                           EXCIT=_F(CHARGE=CHFONC,),
                        SYME_CHAR='SYME',
                        COMP_ELAS=_F( RELATION = 'ELAS',
                                   DEFORMATION = 'PETIT'),
                       CHAM_MATER=CHMAT )

GK3=CALC_G_THETA_T(         MODELE=MO,
                          RESULTAT=RESU,
                             THETA=THETA3,
                              FOND_FISS=FOND,
                         SYME_CHAR='SYME',
                            EXCIT=_F(CHARGE=CHFONC,),
                        CHAM_MATER=CHMAT,
                            OPTION='CALC_K_G')

G4=CALC_G_THETA_T(         MODELE=MO,
                         RESULTAT=RESU,
                            THETA=THETA4,
                           EXCIT=_F(CHARGE=CHFONC,),
                        SYME_CHAR='SYME',
                        COMP_ELAS=_F( RELATION = 'ELAS',
                                   DEFORMATION = 'PETIT'),
                       CHAM_MATER=CHMAT )

GK4=CALC_G_THETA_T(         MODELE=MO,
                          RESULTAT=RESU,
                             THETA=THETA4,
                              FOND_FISS=FOND,
                         SYME_CHAR='SYME',
                            EXCIT=_F(CHARGE=CHFONC,),
                        CHAM_MATER=CHMAT,
                            OPTION='CALC_K_G')

G5=CALC_G_THETA_T(         MODELE=MO,
                         RESULTAT=RESU,
                            THETA=THETA5,
                           EXCIT=_F(CHARGE=CHFONC,),
                        SYME_CHAR='SYME',
                        COMP_ELAS=_F( RELATION = 'ELAS',
                                   DEFORMATION = 'PETIT'),
                       CHAM_MATER=CHMAT )

GK5=CALC_G_THETA_T(         MODELE=MO,
                          RESULTAT=RESU,
                             THETA=THETA5,
                              FOND_FISS=FOND,
                         SYME_CHAR='SYME',
                            EXCIT=_F(CHARGE=CHFONC,),
                        CHAM_MATER=CHMAT,
                            OPTION='CALC_K_G')

G6=CALC_G_THETA_T(         MODELE=MO,
                         RESULTAT=RESU,
                            THETA=THETA6,
                           EXCIT=_F(CHARGE=CHFONC,),
                        SYME_CHAR='SYME',
                        COMP_ELAS=_F( RELATION = 'ELAS',
                                   DEFORMATION = 'PETIT'),
                       CHAM_MATER=CHMAT )

GK6=CALC_G_THETA_T(         MODELE=MO,
                          RESULTAT=RESU,
                             THETA=THETA6,
                              FOND_FISS=FOND,
                         SYME_CHAR='SYME',
                            EXCIT=_F(CHARGE=CHFONC,),
                        CHAM_MATER=CHMAT,
                            OPTION='CALC_K_G')

TEST_TABLE(       TABLE=G1,
                         FILTRE=_F(  NOM_PARA = 'NUME_ORDRE',
                                  VALE_I = 2),
                       NOM_PARA='G',
                           VALE=2.3093E-3,
                      PRECISION=5.E-3   )

TEST_TABLE(       TABLE=GK1,
                         FILTRE=_F(  NOM_PARA = 'NUME_ORDRE',
                                  VALE_I = 2),
                       NOM_PARA='G',
                           VALE=2.3093E-3,
                      PRECISION=5.E-3   )

TEST_TABLE(       TABLE=GK1,
                         FILTRE=_F(  NOM_PARA = 'NUME_ORDRE',
                                  VALE_I = 2),
                       NOM_PARA='G_IRWIN',
                           VALE=2.3093E-3,
                      PRECISION=5.E-3   )

TEST_TABLE(       TABLE=GK1,
                         FILTRE=_F(  NOM_PARA = 'NUME_ORDRE',
                                  VALE_I = 2),
                       NOM_PARA='K1',
                           VALE=2.2529E+1,
                      PRECISION=5.E-2   )

TEST_TABLE(       TABLE=GK1,
                         FILTRE=_F(  NOM_PARA = 'NUME_ORDRE',
                                  VALE_I = 2),
                       NOM_PARA='K2',
                           VALE=0.0,
                        CRITERE='ABSOLU',
                      PRECISION=1.E-4   )

TEST_TABLE(       TABLE=G2,
                         FILTRE=_F(  NOM_PARA = 'NUME_ORDRE',
                                  VALE_I = 2),
                       NOM_PARA='G',
                           VALE=2.3093E-3,
                      PRECISION=5.E-3   )

TEST_TABLE(       TABLE=GK2,
                         FILTRE=_F(  NOM_PARA = 'NUME_ORDRE',
                                  VALE_I = 2),
                       NOM_PARA='G',
                           VALE=2.3093E-3,
                      PRECISION=5.E-3   )

TEST_TABLE(       TABLE=GK2,
                         FILTRE=_F(  NOM_PARA = 'NUME_ORDRE',
                                  VALE_I = 2),
                       NOM_PARA='G_IRWIN',
                           VALE=2.3093E-3,
                      PRECISION=5.E-3   )

TEST_TABLE(       TABLE=GK2,
                         FILTRE=_F(  NOM_PARA = 'NUME_ORDRE',
                                  VALE_I = 2),
                       NOM_PARA='K1',
                           VALE=2.2529E+1,
                      PRECISION=5.E-2   )

TEST_TABLE(       TABLE=GK2,
                         FILTRE=_F(  NOM_PARA = 'NUME_ORDRE',
                                  VALE_I = 2),
                       NOM_PARA='K2',
                           VALE=0.0,
                        CRITERE='ABSOLU',
                      PRECISION=1.E-4   )

TEST_TABLE(       TABLE=G3,
                         FILTRE=_F(  NOM_PARA = 'NUME_ORDRE',
                                  VALE_I = 2),
                       NOM_PARA='G',
                           VALE=2.3093E-3,
                      PRECISION=5.E-3   )

TEST_TABLE(       TABLE=GK3,
                         FILTRE=_F(  NOM_PARA = 'NUME_ORDRE',
                                  VALE_I = 2),
                       NOM_PARA='G',
                           VALE=2.3093E-3,
                      PRECISION=5.E-3   )

TEST_TABLE(       TABLE=GK3,
                         FILTRE=_F(  NOM_PARA = 'NUME_ORDRE',
                                  VALE_I = 2),
                       NOM_PARA='G_IRWIN',
                           VALE=2.3093E-3,
                      PRECISION=5.E-3   )

TEST_TABLE(       TABLE=GK3,
                         FILTRE=_F(  NOM_PARA = 'NUME_ORDRE',
                                  VALE_I = 2),
                       NOM_PARA='K1',
                           VALE=2.2529E+1,
                      PRECISION=5.E-2   )

TEST_TABLE(       TABLE=GK3,
                         FILTRE=_F(  NOM_PARA = 'NUME_ORDRE',
                                  VALE_I = 2),
                       NOM_PARA='K2',
                           VALE=0.0,
                        CRITERE='ABSOLU',
                      PRECISION=1.E-4   )

TEST_TABLE(       TABLE=G4,
                         FILTRE=_F(  NOM_PARA = 'NUME_ORDRE',
                                  VALE_I = 2),
                       NOM_PARA='G',
                           VALE=2.3093E-3,
                      PRECISION=5.E-3   )

TEST_TABLE(       TABLE=GK4,
                         FILTRE=_F(  NOM_PARA = 'NUME_ORDRE',
                                  VALE_I = 2),
                       NOM_PARA='G',
                           VALE=2.3093E-3,
                      PRECISION=5.E-3   )

TEST_TABLE(       TABLE=GK4,
                         FILTRE=_F(  NOM_PARA = 'NUME_ORDRE',
                                  VALE_I = 2),
                       NOM_PARA='G_IRWIN',
                           VALE=2.3093E-3,
                      PRECISION=5.E-3   )

TEST_TABLE(       TABLE=GK4,
                         FILTRE=_F(  NOM_PARA = 'NUME_ORDRE',
                                  VALE_I = 2),
                       NOM_PARA='K1',
                           VALE=2.2529E+1,
                      PRECISION=5.E-2   )

TEST_TABLE(       TABLE=GK4,
                         FILTRE=_F(  NOM_PARA = 'NUME_ORDRE',
                                  VALE_I = 2),
                       NOM_PARA='K2',
                           VALE=0.0,
                        CRITERE='ABSOLU',
                      PRECISION=1.E-4   )

TEST_TABLE(       TABLE=G5,
                         FILTRE=_F(  NOM_PARA = 'NUME_ORDRE',
                                  VALE_I = 2),
                       NOM_PARA='G',
                           VALE=2.3093E-3,
                      PRECISION=5.E-3   )

TEST_TABLE(       TABLE=GK5,
                         FILTRE=_F(  NOM_PARA = 'NUME_ORDRE',
                                  VALE_I = 2),
                       NOM_PARA='G',
                           VALE=2.3093E-3,
                      PRECISION=5.E-3   )

TEST_TABLE(       TABLE=GK5,
                         FILTRE=_F(  NOM_PARA = 'NUME_ORDRE',
                                  VALE_I = 2),
                       NOM_PARA='G_IRWIN',
                           VALE=2.3093E-3,
                      PRECISION=5.1E-3   )

TEST_TABLE(       TABLE=GK5,
                         FILTRE=_F(  NOM_PARA = 'NUME_ORDRE',
                                  VALE_I = 2),
                       NOM_PARA='K1',
                           VALE=2.2529E+1,
                      PRECISION=5.E-2   )

TEST_TABLE(       TABLE=GK5,
                         FILTRE=_F(  NOM_PARA = 'NUME_ORDRE',
                                  VALE_I = 2),
                       NOM_PARA='K2',
                           VALE=0.0,
                        CRITERE='ABSOLU',
                      PRECISION=1.E-4   )

TEST_TABLE(       TABLE=G6,
                         FILTRE=_F(  NOM_PARA = 'NUME_ORDRE',
                                  VALE_I = 2),
                       NOM_PARA='G',
                           VALE=2.3093E-3,
                      PRECISION=1.E-2   )

TEST_TABLE(       TABLE=GK6,
                         FILTRE=_F(  NOM_PARA = 'NUME_ORDRE',
                                  VALE_I = 2),
                       NOM_PARA='G',
                           VALE=2.3093E-3,
                      PRECISION=1.E-2   )

TEST_TABLE(       TABLE=GK6,
                         FILTRE=_F(  NOM_PARA = 'NUME_ORDRE',
                                  VALE_I = 2),
                       NOM_PARA='G_IRWIN',
                           VALE=2.3093E-3,
                      PRECISION=1.E-2   )

TEST_TABLE(       TABLE=GK6,
                         FILTRE=_F(  NOM_PARA = 'NUME_ORDRE',
                                  VALE_I = 2),
                       NOM_PARA='K1',
                           VALE=2.2529E+1,
                      PRECISION=5.1E-2   )

TEST_TABLE(       TABLE=GK6,
                         FILTRE=_F(  NOM_PARA = 'NUME_ORDRE',
                                  VALE_I = 2),
                       NOM_PARA='K2',
                           VALE=0.0,
                        CRITERE='ABSOLU',
                      PRECISION=1.E-4   )

FIN( )
#
