# ======================================================================
# COPYRIGHT (C) 1991 - 2016  EDF R&D                  WWW.CODE-ASTER.ORG
# THIS PROGRAM IS FREE SOFTWARE; YOU CAN REDISTRIBUTE IT AND/OR MODIFY
# IT UNDER THE TERMS OF THE GNU GENERAL PUBLIC LICENSE AS PUBLISHED BY
# THE FREE SOFTWARE FOUNDATION; EITHER VERSION 2 OF THE LICENSE, OR
# (AT YOUR OPTION) ANY LATER VERSION.
#
# THIS PROGRAM IS DISTRIBUTED IN THE HOPE THAT IT WILL BE USEFUL, BUT
# WITHOUT ANY WARRANTY; WITHOUT EVEN THE IMPLIED WARRANTY OF
# MERCHANTABILITY OR FITNESS FOR A PARTICULAR PURPOSE. SEE THE GNU
# GENERAL PUBLIC LICENSE FOR MORE DETAILS.
#
# YOU SHOULD HAVE RECEIVED A COPY OF THE GNU GENERAL PUBLIC LICENSE
# ALONG WITH THIS PROGRAM; IF NOT, WRITE TO EDF R&D CODE_ASTER,
#    1 AVENUE DU GENERAL DE GAULLE, 92141 CLAMART CEDEX, FRANCE.
# ======================================================================

DEBUT(CODE=_F(NIV_PUB_WEB='INTERNET', VISU_EFICAS='NON'), DEBUG=_F(SDVERI='OUI'))

MAILLAGE  =  LIRE_MAILLAGE(FORMAT='MED')


TEMPS     = DEFI_LIST_REEL( DEBUT=0.0,
                            INTERVALLE=_F(JUSQU_A=1.0,
                                          NOMBRE=1,)
                           )

MATER      = DEFI_MATERIAU( ELAS = _F(E  = 1.0,
                                      NU = 0.,),
                                     ),

CHMAT      = AFFE_MATERIAU(MAILLAGE=MAILLAGE,
                           AFFE=_F(TOUT='OUI',
                                   MATER=MATER),
                          ),

COEF1      = DEFI_FONCTION( NOM_PARA    = 'INST',
                            PROL_DROITE = 'LINEAIRE',
                            VALE=( 0.0,  0.0,
                                   1.0,  1.0E-6,),
                          )

MO         = AFFE_MODELE(MAILLAGE=MAILLAGE,
                         AFFE=_F(TOUT='OUI',
                                 PHENOMENE='MECANIQUE',
                                 MODELISATION='D_PLAN',),
                        );

#***********************************************************************
#    CHARGEMENT MECANIQUE
#***********************************************************************

CH_U1  = AFFE_CHAR_CINE( MODELE    = MO,
                         MECA_IMPO = _F( GROUP_NO  = 'nod1',
                                         DX        =  0.,)
                        )

CH_U2  = AFFE_CHAR_CINE( MODELE    = MO,
                         MECA_IMPO = _F( GROUP_NO  = 'nod2',
                                         DX        =  1.,)
                        )

CH_U3  = AFFE_CHAR_CINE( MODELE    = MO,
                         MECA_IMPO = _F( GROUP_NO  = 'nod3',
                                         DY        =  0.,)
                        )

CH_U4  = AFFE_CHAR_CINE( MODELE    = MO,
                         MECA_IMPO = _F( GROUP_NO  = 'nod4',
                                         DY        =  0.,)
                        )

EVOL   = STAT_NON_LINE( MODELE     = MO,
                        CHAM_MATER = CHMAT,
                        EXCIT      = ( _F( CHARGE       = CH_U1),
                                       _F( CHARGE       = CH_U2,
                                           FONC_MULT    = COEF1),
                                       _F( CHARGE       = CH_U3),
                                       _F( CHARGE       = CH_U4),
                                     ),
                        CRIT_STAB  = _F( TYPE           ='STABILITE',
                                         RIGI_GEOM      = 'NON',
                                         NB_FREQ        = 1,
                                         DDL_STAB       = ('DX','DY')
                                        ),
                        COMPORTEMENT  = _F( TOUT           = 'OUI',
                                         RELATION       = 'ELAS',
                                         ),
                        NEWTON     = _F( MATRICE        = 'TANGENTE',
                                         REAC_ITER      = 1,),
                        CONVERGENCE= _F( RESI_GLOB_RELA = 1.E-6,),
                        INCREMENT  = _F( LIST_INST      = TEMPS,),
                        AFFICHAGE  = _F( INFO_RESIDU    = 'OUI',)
                     )

#***********************************************************************
#    TEST DU CRITERE DE STABILITE
#***********************************************************************

TEST_RESU(RESU=_F(NUME_ORDRE=1,
                  PARA='CHAR_STAB',
                  RESULTAT=EVOL,
                  VALE_CALC=0.14644660940673,
                  ),
          )

FIN();
