# TITRE BIBLIO_65 FISSURE CENTRALE DANS UN BIMATERIAU
# ======================================================================
# COPYRIGHT (C) 1991 - 2013  EDF R&D                  WWW.CODE-ASTER.ORG
# THIS PROGRAM IS FREE SOFTWARE; YOU CAN REDISTRIBUTE IT AND/OR MODIFY
# IT UNDER THE TERMS OF THE GNU GENERAL PUBLIC LICENSE AS PUBLISHED BY
# THE FREE SOFTWARE FOUNDATION; EITHER VERSION 2 OF THE LICENSE, OR
# (AT YOUR OPTION) ANY LATER VERSION.
#
# THIS PROGRAM IS DISTRIBUTED IN THE HOPE THAT IT WILL BE USEFUL, BUT
# WITHOUT ANY WARRANTY; WITHOUT EVEN THE IMPLIED WARRANTY OF
# MERCHANTABILITY OR FITNESS FOR A PARTICULAR PURPOSE. SEE THE GNU
# GENERAL PUBLIC LICENSE FOR MORE DETAILS.
#
# YOU SHOULD HAVE RECEIVED A COPY OF THE GNU GENERAL PUBLIC LICENSE
# ALONG WITH THIS PROGRAM; IF NOT, WRITE TO EDF R&D CODE_ASTER,
#    1 AVENUE DU GENERAL DE GAULLE, 92141 CLAMART CEDEX, FRANCE.
# ======================================================================
#       PLAQUE RECTANGULAIRE FINIE SOUMISE A L'ACTION D'UNE TRACTION
#       THETA = 30 DEGRES

DEBUT(CODE=_F(NIV_PUB_WEB='INTERNET'))

#
MA=LIRE_MAILLAGE(FORMAT='MED',
                 VERI_MAIL=_F(VERIF='OUI',),);

MO=AFFE_MODELE(MAILLAGE=MA,
               AFFE=_F(TOUT='OUI',
                       PHENOMENE='MECANIQUE',
                       MODELISATION='C_PLAN',),);

#
# CE BLOC SERT A VALIDER LA VARIABLE DE COMMANDE ESPACE
# ON DEFINIT E COMME FONCTION DE L'ESPACE
#
CHGEOM=CREA_CHAMP(TYPE_CHAM='NOEU_GEOM_R',
                  OPERATION='EXTR',
                  MAILLAGE=MA,
                  NOM_CHAM='GEOMETRIE',);

def E(x,y) :
#   a=tan(30deg)
   a=sqrt(3.)/3.
   if (y-a*x)  > 0. :  return 20.E11
   if (y-a*x)  < 0. :  return  2.E11

E_F = FORMULE(NOM_PARA=('X','Y'),VALE='E(X,Y)');

NU_F=DEFI_CONSTANTE(VALE=0.3,);

RHO_F=0.0;

MAT=DEFI_MATERIAU(ELAS_FO=_F(E=E_F,NU=NU_F,RHO=RHO_F,),);

#
CHMAT=AFFE_MATERIAU(MAILLAGE=MA,
                    AFFE=(_F(GROUP_MA='VTOT1',MATER=MAT),
                          _F(GROUP_MA='LP3P4',MATER=MAT),
                          _F(GROUP_MA='LP2P3',MATER=MAT),
                          _F(GROUP_MA='VTOT2',MATER=MAT),
                          _F(GROUP_MA='LP7P8',MATER=MAT),
                          _F(GROUP_MA='LP6P7',MATER=MAT),),
                    AFFE_VARC=_F(NOM_VARC='GEOM',
                                 CHAM_GD=CHGEOM),);

#
#
MA=DEFI_GROUP(reuse =MA,
              MAILLAGE=MA,
              CREA_GROUP_NO=_F(GROUP_MA=('LP3P4','LP2P3','LP6P7','LP7P8',),),);

#
#
CH=AFFE_CHAR_MECA(MODELE=MO,
                  DDL_IMPO=(_F(GROUP_NO='LP6P7',
                               DY=0.,),
                            _F(GROUP_NO='LP7P8',
                               DY=0.,),
                            _F(GROUP_NO='P6',
                               DX=0.,),),
                  FORCE_CONTOUR=(_F(GROUP_MA='LP3P4',
                                    FY=100.E6,),
                                 _F(GROUP_MA='LP2P3',
                                    FY=100.E6,),),);

#
CHDEPL=MECA_STATIQUE(MODELE=MO,
                     CHAM_MATER=CHMAT,
                     EXCIT=_F(CHARGE=CH,),);

MAT1=DEFI_MATERIAU(ELAS=_F(E=20.E11,NU = 0.3,RHO=0.,ALPHA=0.,),);

MAT2=DEFI_MATERIAU(ELAS=_F(E=2.E11,NU=0.3,RHO=0.,ALPHA=0.,),);

#
CHMAT2=AFFE_MATERIAU(MAILLAGE=MA,
                     AFFE=(_F(GROUP_MA='VTOT1',MATER = MAT1),
                           _F(GROUP_MA='LP3P4',MATER = MAT1),
                           _F(GROUP_MA='LP2P3',MATER = MAT1),
                           _F(GROUP_MA='VTOT2',MATER = MAT2),
                           _F(GROUP_MA='LP7P8',MATER = MAT2),
                           _F(GROUP_MA='LP6P7',MATER = MAT2),),);

CHAMDEPL=MECA_STATIQUE(MODELE=MO,
                       CHAM_MATER=CHMAT2,
                       EXCIT=_F(CHARGE=CH,),);

#
# ON VALIDE QUE LES DEUX DEFINITIONS DES MATERIAUX SONT EQUIVALENTES :
#
# AVEC DEUX MATERIAUX :
#
TEST_RESU(RESU=_F(NUME_ORDRE=1,
                  TYPE_TEST='SOMM_ABS',
                  RESULTAT=CHAMDEPL,
                  NOM_CHAM='DEPL',
                  VALE_CALC=4.0000002676292998E5,
                  ),
          )

TEST_RESU(RESU=_F(NUME_ORDRE=1,
                  TYPE_TEST='SOMM_ABS',
                  RESULTAT=CHAMDEPL,
                  NOM_CHAM='SIEF_ELGA',
                  VALE_CALC=3.6201732221381001E12,
                  ),
          )

#
# AVEC UNE FORMULE FONCTION DE L'ESPACE :
#
TEST_RESU(RESU=_F(NUME_ORDRE=1,
                  REFERENCE='AUTRE_ASTER',
                  TYPE_TEST='SOMM_ABS',
                  RESULTAT=CHDEPL,
                  NOM_CHAM='DEPL',
                  VALE_CALC= 4.00000027E+05,
                  VALE_REFE=4.0000002676292998E5,),
          )

TEST_RESU(RESU=_F(NUME_ORDRE=1,
                  REFERENCE='AUTRE_ASTER',
                  TYPE_TEST='SOMM_ABS',
                  RESULTAT=CHDEPL,
                  NOM_CHAM='SIEF_ELGA',
                  VALE_CALC= 3.62017322E+12,
                  VALE_REFE=3.6201732221381001E12,
                  CRITERE='RELATIF',),
          )

#
# POINT DROIT
#
FOND1=DEFI_FOND_FISS(MAILLAGE=MA,
                     FOND_FISS=_F(GROUP_NO='P0',),);

#
THETA01A=CALC_THETA(MODELE=MO,
                    DIRECTION=(0.866025404,0.5,0.,),
                    THETA_2D=_F(GROUP_NO='P0',
                                MODULE=1.,
                                R_INF=0.,
                                R_SUP=0.001875E-2,),);

#
G01A=CALC_G(THETA=_F(THETA=THETA01A,),
            RESULTAT=CHAMDEPL,
            OPTION='CALC_G',);

#
TEST_TABLE(REFERENCE='ANALYTIQUE',
           PRECISION=0.050000000000000003,
           VALE_CALC=81.082988094,
           VALE_REFE=84.841769999999997,
           NOM_PARA='G',
           TABLE=G01A,)

#
THETA01B=CALC_THETA(MODELE=MO,
                    DIRECTION=(0.866025404,0.5,0.,),
                    THETA_2D=_F(GROUP_NO='P0',
                                MODULE=1.,
                                R_INF=0.001875E-2,
                                R_SUP=0.003750E-2,),);

#
G01B=CALC_G(THETA=_F(THETA=THETA01B,),
            RESULTAT=CHAMDEPL,
            OPTION='CALC_G',);

#
TEST_TABLE(REFERENCE='ANALYTIQUE',
           PRECISION=5.0000000000000001E-3,
           VALE_CALC=84.583131829,
           VALE_REFE=84.841769999999997,
           NOM_PARA='G',
           TABLE=G01B,)

#
THETA01C=CALC_THETA(MODELE=MO,
                    DIRECTION=(0.866025404,0.5,0.,),
                    THETA_2D=_F(GROUP_NO='P0',
                                MODULE=1.,
                                R_INF=0.003750E-2,
                                R_SUP=0.005625E-2,),);

#
G01C=CALC_G(THETA=_F(THETA=THETA01C,),
            RESULTAT=CHAMDEPL,
            OPTION='CALC_G',);

#
TEST_TABLE(REFERENCE='ANALYTIQUE',
           PRECISION=5.0000000000000001E-3,
           VALE_CALC=84.598823968,
           VALE_REFE=84.841769999999997,
           NOM_PARA='G',
           TABLE=G01C,)

#
THETA01D=CALC_THETA(MODELE=MO,
                    DIRECTION=(0.866025404,0.5,0.,),
                    THETA_2D=_F(GROUP_NO='P0',
                                MODULE=1.,
                                R_INF=0.005625E-2,
                                R_SUP=0.007500E-2,),);

#
G01D=CALC_G(THETA=_F(THETA=THETA01D,),
            RESULTAT=CHAMDEPL,
            OPTION='CALC_G',);

#
TEST_TABLE(REFERENCE='ANALYTIQUE',
           PRECISION=5.0000000000000001E-3,
           VALE_CALC=84.602380539,
           VALE_REFE=84.841769999999997,
           NOM_PARA='G',
           TABLE=G01D,)

#
#
# POINT GAUCHE
#
FOND2=DEFI_FOND_FISS(MAILLAGE=MA,
                     FOND_FISS=_F(GROUP_NO='P0G',),);

#
THETA02A=CALC_THETA(MODELE=MO,
                    DIRECTION=(-0.866025404,-0.5,0.,),
                    THETA_2D=_F(GROUP_NO='P0G',
                                MODULE=1.,
                                R_INF=0.,
                                R_SUP=0.001875E-2,),);

#
G02A=CALC_G(THETA=_F(THETA=THETA02A,),
            RESULTAT=CHAMDEPL,
            OPTION='CALC_G',);

#
TEST_TABLE(REFERENCE='ANALYTIQUE',
           PRECISION=0.050000000000000003,
           VALE_CALC=76.432100315,
           VALE_REFE=80.017070000000004,
           NOM_PARA='G',
           TABLE=G02A,)

#
#
THETA02B=CALC_THETA(MODELE=MO,
                    DIRECTION=(-0.866025404,-0.5,0.,),
                    THETA_2D=_F(GROUP_NO='P0G',
                                MODULE=1.,
                                R_INF=0.001875E-2,
                                R_SUP=0.003750E-2,),);

#
G02B=CALC_G(THETA=_F(THETA=THETA02B,),
            RESULTAT=CHAMDEPL,
            OPTION='CALC_G',);

#
TEST_TABLE(REFERENCE='ANALYTIQUE',
           PRECISION=5.0000000000000001E-3,
           VALE_CALC=79.708299832,
           VALE_REFE=80.017070000000004,
           NOM_PARA='G',
           TABLE=G02B,)

#
#
THETA02C=CALC_THETA(MODELE=MO,
                    DIRECTION=(-0.866025404,-0.5,0.,),
                    THETA_2D=_F(GROUP_NO='P0G',
                                MODULE=1.,
                                R_INF=0.003750E-2,
                                R_SUP=0.005625E-2,),);

#
G02C=CALC_G(THETA=_F(THETA=THETA02C,),
            RESULTAT=CHAMDEPL,
            OPTION='CALC_G',);

#
TEST_TABLE(REFERENCE='ANALYTIQUE',
           PRECISION=5.0000000000000001E-3,
           VALE_CALC=79.731473203,
           VALE_REFE=80.017070000000004,
           NOM_PARA='G',
           TABLE=G02C,)

#
THETA02D=CALC_THETA(MODELE=MO,
                    DIRECTION=(-0.866025404,-0.5,0.,),
                    THETA_2D=_F(GROUP_NO='P0G',
                                MODULE=1.,
                                R_INF=0.005625E-2,
                                R_SUP=0.007500E-2,),);

#
G02D=CALC_G(THETA=_F(THETA=THETA02D,),
            RESULTAT=CHAMDEPL,
            OPTION='CALC_G',);

#
TEST_TABLE(REFERENCE='ANALYTIQUE',
           PRECISION=5.0000000000000001E-3,
           VALE_CALC=79.735069554,
           VALE_REFE=80.017070000000004,
           NOM_PARA='G',
           TABLE=G02D,)

FIN()
