# MODIF  DATE 06/10/2009   AUTEUR MACOCCO K.MACOCCO 
# TITRE PLAQUE FISSUREE 2D EN MODE 1 - METHODE ARLEQUIN
# sslp108c.para = tps_job 200 mem_job 256Mo ncpus 1 liste_test S
#            CONFIGURATION MANAGEMENT OF EDF VERSION
# ======================================================================
# COPYRIGHT (C) 1991 - 2009  EDF R&D                  WWW.CODE-ASTER.ORG
# THIS PROGRAM IS FREE SOFTWARE; YOU CAN REDISTRIBUTE IT AND/OR MODIFY  
# IT UNDER THE TERMS OF THE GNU GENERAL PUBLIC LICENSE AS PUBLISHED BY  
# THE FREE SOFTWARE FOUNDATION; EITHER VERSION 2 OF THE LICENSE, OR     
# (AT YOUR OPTION) ANY LATER VERSION.                                                    
#                                                                       
# THIS PROGRAM IS DISTRIBUTED IN THE HOPE THAT IT WILL BE USEFUL, BUT   
# WITHOUT ANY WARRANTY; WITHOUT EVEN THE IMPLIED WARRANTY OF            
# MERCHANTABILITY OR FITNESS FOR A PARTICULAR PURPOSE. SEE THE GNU      
# GENERAL PUBLIC LICENSE FOR MORE DETAILS.                              
#                                                                       
# YOU SHOULD HAVE RECEIVED A COPY OF THE GNU GENERAL PUBLIC LICENSE     
# ALONG WITH THIS PROGRAM; IF NOT, WRITE TO EDF R&D CODE_ASTER,         
#    1 AVENUE DU GENERAL DE GAULLE, 92141 CLAMART CEDEX, FRANCE.        
# ======================================================================
# sslp108c.para = tps_job 200 mem_job 256Mo ncpus 1 liste_test S
#            CONFIGURATION MANAGEMENT OF EDF VERSION
# ======================================================================
# COPYRIGHT (C) 1991 - 2007  EDF R&D                  WWW.CODE-ASTER.ORG
# THIS PROGRAM IS FREE SOFTWARE; YOU CAN REDISTRIBUTE IT AND/OR MODIFY
# IT UNDER THE TERMS OF THE GNU GENERAL PUBLIC LICENSE AS PUBLISHED BY
# THE FREE SOFTWARE FOUNDATION; EITHER VERSION 2 OF THE LICENSE, OR
# (AT YOUR OPTION) ANY LATER VERSION.
#
# THIS PROGRAM IS DISTRIBUTED IN THE HOPE THAT IT WILL BE USEFUL, BUT
# WITHOUT ANY WARRANTY; WITHOUT EVEN THE IMPLIED WARRANTY OF
# MERCHANTABILITY OR FITNESS FOR A PARTICULAR PURPOSE. SEE THE GNU
# GENERAL PUBLIC LICENSE FOR MORE DETAILS.
#
# YOU SHOULD HAVE RECEIVED A COPY OF THE GNU GENERAL PUBLIC LICENSE
# ALONG WITH THIS PROGRAM; IF NOT, WRITE TO EDF R&D CODE_ASTER,
#    1 AVENUE DU GENERAL DE GAULLE, 92141 CLAMART CEDEX, FRANCE.
# ======================================================================
# ARLEQUIN : SUBSTITUTION 2D/2D INCOMPATIBLE.
#            MAILLAGES DE DENSITES DIFFERENTES

DEBUT(CODE=_F(NOM='SSLP108C',
              NIV_PUB_WEB='INTERNET',),
      DEBUG=_F(SDVERI='OUI',),);

MA=LIRE_MAILLAGE(UNITE=20,
                 FORMAT='MED',);

MA=MODI_MAILLAGE(reuse=MA,
                   MAILLAGE=MA,
                   MODI_MAILLE=_F(OPTION='NOEUD_QUART',
                                  GROUP_NO_FOND='P0',),);

MO=AFFE_MODELE(MAILLAGE=MA,
               AFFE=_F(TOUT='OUI',
                       PHENOMENE='MECANIQUE',
                       MODELISATION='C_PLAN',),);

MAT=DEFI_MATERIAU(ELAS=_F(E=200000000000.0,
                          NU=0.3,),
                  ECRO_LINE=_F(D_SIGM_EPSI=3.,
                               SY=2800000000.,),);

CHMAT=AFFE_MATERIAU(MAILLAGE=MA,
                    AFFE=_F(TOUT='OUI',
                            MATER=MAT,),);

BL=AFFE_CHAR_MECA(MODELE=MO,
                  DDL_IMPO=_F(GROUP_MA='L23',
                              LIAISON='ENCASTRE',),);

CH=AFFE_CHAR_MECA(MODELE=MO,
                  FORCE_CONTOUR=(_F(GROUP_MA='L12',
                                    FX=1.E8,
                                    FY=1.E8,),
                                 _F(GROUP_MA='L34',
                                    FX=-1.E8,
                                    FY=-1.E8,),),);
##################################################


# 1. Creation des relations de couplage Arlequin
#    entre les groupes de mailles
#    couronne et fissure (maillage fin)
#    et la plaque (maillage grossier)
#    Collage sur le modele fin
##################################################


AR=AFFE_CHAR_MECA(MODELE=MO,
                  ARLEQUIN=_F(GROUP_MA_1=('COUR','FISS',),
                              GROUP_MA_2='PLAQ',
                              GROUP_MA_COLL='COUR',
                              COLLAGE='GROUP_MA_1',
                              POIDS_1=0.99999,),);
##################################


# 2. CALCUL STATIQUE NON LINEAIRE
##################################


LIST=DEFI_LIST_REEL(DEBUT=0.0,
                    INTERVALLE=(_F(JUSQU_A=5.,
                                  NOMBRE=10,),
                                _F(JUSQU_A=10.,
                                  NOMBRE=10,),));

RESU=STAT_NON_LINE(MODELE=MO,
                   CHAM_MATER=CHMAT,
                   EXCIT=(_F(CHARGE=AR,),
                          _F(CHARGE=CH),
                          _F(CHARGE=BL,),),
                   COMP_INCR=_F(RELATION='VMIS_ISOT_LINE',),
                   INCREMENT=_F(LIST_INST=LIST,),);
                   
                   
############################


# 3. POST-TRAITEMENT GENERAL
#    => deplacements
#    => contraintes
############################


RESU=CALC_ELEM(reuse =RESU,
               RESULTAT=RESU,
               OPTION=('EQUI_ELNO_SIGM','SIEF_ELNO_ELGA','EPSP_ELNO','VARI_ELNO_ELGA',),);

RESU=CALC_NO(reuse =RESU,
             RESULTAT=RESU,
             OPTION=('EQUI_NOEU_SIGM','SIEF_NOEU_ELGA','EPSP_NOEU','VARI_NOEU_ELGA',),);

LIGAM=INTE_MAIL_2D(MAILLAGE=MA,
                   DEFI_CHEMIN=_F(GROUP_MA='LPOP11',),);

BHAUT=INTE_MAIL_2D(MAILLAGE=MA,
                   DEFI_CHEMIN=_F(GROUP_MA='L12',),);

SIYY_LIG=POST_RELEVE_T(ACTION=_F(OPERATION='EXTRACTION',
                                 INTITULE='SIYY_LIG',
                                 RESULTAT=RESU,
                                 NOM_CHAM='SIEF_NOEU_ELGA',
                                 INST=10.0,
                                 CHEMIN=LIGAM,
                                 NOM_CMP='SIYY',
                                 MOYE_NOEUD='NON',),
                       INFO=2,);

DEPL_H=POST_RELEVE_T(ACTION=_F(OPERATION='EXTRACTION',
                               INTITULE='DEPL_H',
                               RESULTAT=RESU,
                               NOM_CHAM='DEPL',
                               INST=10.0,
                               CHEMIN=BHAUT,
                               NOM_CMP='DY',),
                     INFO=2,);
############################################


# 4. POST-TRAITEMENT MECANIQUE DE LA RUPTURE
#    => calcul de G, K1, K2, G_IRWIN
############################################


DEPL=CREA_CHAMP(TYPE_CHAM='NOEU_DEPL_R',
                OPERATION='EXTR',
                RESULTAT=RESU,
                NOM_CHAM='DEPL',
                NUME_ORDRE=1,);

FOND1=DEFI_FOND_FISS(MAILLAGE=MA,
                     FOND_FISS=_F(GROUP_NO='P0',),
                     NORMALE=(0.0,-1.0,0.0,),);

THETA01=CALC_THETA(MODELE=MO,
                   DIRECTION=(-1.0,0.0,0.0,),
                   THETA_2D=_F(GROUP_NO='P0',
                               MODULE=1.0,
                               R_INF=1e-05,
                               R_SUP=0.00014,),);

GK01=CALC_G(THETA=_F(THETA=THETA01,),
            RESULTAT=RESU,
            INST=10.0,
            EXCIT=(_F(CHARGE=BL,),
                   _F(CHARGE=CH,),
                   _F(CHARGE=AR,),),
            SYME_CHAR='SANS',
            COMP_INCR=_F(RELATION='VMIS_ISOT_LINE',),
            OPTION='CALC_G',
            INFO=1,);

GK02=CALC_G(THETA=_F(THETA=THETA01,
                     FOND_FISS=FOND1,),
            RESULTAT=RESU,
            INST=10.0,
            EXCIT=(_F(CHARGE=BL,),
                   _F(CHARGE=CH,),
                   _F(CHARGE=AR,),),
            SYME_CHAR='SANS',
            COMP_INCR=_F(RELATION='VMIS_ISOT_LINE',),
            OPTION='CALC_K_G',
            INFO=1,);
#########################


# 5. TESTS NON REGRESSION
#    => deplacements
#    => contraintes
#########################


TEST_TABLE(TABLE=DEPL_H,
           FILTRE=_F(NOM_PARA='ABSC_CURV',
                     VALE=0.0023,),
           NOM_PARA='DY',
           VALE=-8.1928913165022e-07,
           PRECISION=8e-08,
           REFERENCE='NON_REGRESSION',
           VERSION='10.00.19',);

TEST_TABLE(TABLE=SIYY_LIG,
           FILTRE=_F(NOM_PARA='ABSC_CURV',
                     VALE=0.0,),
           NOM_PARA='SIYY',
           VALE=2313999921.9620,
           PRECISION=8e-08,
           REFERENCE='NON_REGRESSION',
           VERSION='10.00.19',);

TEST_TABLE(TABLE=SIYY_LIG,
           FILTRE=_F(NOM_PARA='ABSC_CURV',
                     VALE=0.0004,),
           NOM_PARA='SIYY',
           VALE=1.6798714267257E+08,
           PRECISION=8e-08,
           REFERENCE='NON_REGRESSION',
           VERSION='10.00.19',);

TEST_TABLE(TABLE=SIYY_LIG,
           FILTRE=_F(NOM_PARA='ABSC_CURV',
                     VALE=0.0008,),
           NOM_PARA='SIYY',
           VALE=1.2778356298191E+08,
           PRECISION=8e-08,
           REFERENCE='NON_REGRESSION',
           VERSION='10.00.19',);
##############################################################


# 6. TESTS PAR RAPPORT A CALCUL SANS ARLEQUIN (MODELISATION A)
#    => contraintes
##############################################################


TEST_TABLE(TABLE=SIYY_LIG,
           FILTRE=_F(NOM_PARA='ABSC_CURV',
                     VALE=0.0,),
           NOM_PARA='SIYY',
           VALE=2313999921.9620,
           PRECISION=8e-08,
           REFERENCE='NON_REGRESSION',
           VERSION='10.00.19',);

TEST_TABLE(TABLE=SIYY_LIG,
           FILTRE=_F(NOM_PARA='ABSC_CURV',
                     VALE=0.0004,),
           NOM_PARA='SIYY',
           VALE=167987142.67257,
           PRECISION=8e-08,
           REFERENCE='NON_REGRESSION',
           VERSION='10.00.19',);

TEST_TABLE(TABLE=SIYY_LIG,
           FILTRE=_F(NOM_PARA='ABSC_CURV',
                     VALE=0.0008,),
           NOM_PARA='SIYY',
           VALE=127783562.98191,
           PRECISION=8e-08,
           REFERENCE='NON_REGRESSION',
           VERSION='10.00.19',);
#################################################


# 7. TESTS NON REGRESSION MECANIQUE DE LA RUPTURE
#    => G, K1, K2, G_IRWIN
#################################################


TEST_TABLE(TABLE=GK01,
           NOM_PARA='G',
           VALE=358.31224675315,
           PRECISION=8e-08,
           REFERENCE='NON_REGRESSION',
           VERSION='10.00.19',);

TEST_TABLE(TABLE=GK02,
           NOM_PARA='G',
           VALE=358.39205266105,
           PRECISION=8e-08,
           REFERENCE='NON_REGRESSION',
           VERSION='10.00.19',);

TEST_TABLE(TABLE=GK02,
           NOM_PARA='K1',
           VALE=8161641.7882924,
           PRECISION=8e-08,
           REFERENCE='NON_REGRESSION',
           VERSION='10.00.19',);

TEST_TABLE(TABLE=GK02,
           NOM_PARA='K2',
           VALE=-2370855.5494615,
           PRECISION=8e-08,
           REFERENCE='NON_REGRESSION',
           VERSION='10.00.19',);

TEST_TABLE(TABLE=GK02,
           NOM_PARA='G_IRWIN',
           VALE=361.16676358407,
           PRECISION=8e-08,
           REFERENCE='NON_REGRESSION',
           VERSION='10.00.19',);
##############################################################


# 8. TESTS PAR RAPPORT A CALCUL SANS ARLEQUIN (MODELISATION A)
#    => G, K1, K2, G_IRWIN
##############################################################


TEST_TABLE(TABLE=GK01,
           NOM_PARA='G',
           VALE=358.31224675315,
           PRECISION=8e-07,
           REFERENCE='NON_REGRESSION',
           VERSION='10.00.19',);

TEST_TABLE(TABLE=GK02,
           NOM_PARA='G',
           VALE=358.39205266105,
           PRECISION=8e-07,
           REFERENCE='NON_REGRESSION',
           VERSION='10.00.19',);

TEST_TABLE(TABLE=GK02,
           NOM_PARA='K1',
           VALE=8161641.7882924,
           PRECISION=8e-07,
           REFERENCE='NON_REGRESSION',
           VERSION='10.00.19',);

TEST_TABLE(TABLE=GK02,
           NOM_PARA='K2',
           VALE=-2370855.5494615,
           PRECISION=8e-07,
           REFERENCE='NON_REGRESSION',
           VERSION='10.00.19',);

TEST_TABLE(TABLE=GK02,
           NOM_PARA='G_IRWIN',
           VALE=361.166763584074,
           PRECISION=8e-07,
           REFERENCE='NON_REGRESSION',
           VERSION='10.00.19',);

FIN();
