# MODIF  DATE 10/10/2012   AUTEUR COURTOIS M.COURTOIS 
# TITRE PLAQUE FISSUREE EN TRACTION (CALCUL DE G, K1 ET K2)
# sslp101b.para = tps_job 60 mem_job 512Mo ncpus 1 liste_test S
#            CONFIGURATION MANAGEMENT OF EDF VERSION
# ======================================================================
# COPYRIGHT (C) 1991 - 2012  EDF R&D                  WWW.CODE-ASTER.ORG
# THIS PROGRAM IS FREE SOFTWARE; YOU CAN REDISTRIBUTE IT AND/OR MODIFY
# IT UNDER THE TERMS OF THE GNU GENERAL PUBLIC LICENSE AS PUBLISHED BY
# THE FREE SOFTWARE FOUNDATION; EITHER VERSION 2 OF THE LICENSE, OR
# (AT YOUR OPTION) ANY LATER VERSION.
#
# THIS PROGRAM IS DISTRIBUTED IN THE HOPE THAT IT WILL BE USEFUL, BUT
# WITHOUT ANY WARRANTY; WITHOUT EVEN THE IMPLIED WARRANTY OF
# MERCHANTABILITY OR FITNESS FOR A PARTICULAR PURPOSE. SEE THE GNU
# GENERAL PUBLIC LICENSE FOR MORE DETAILS.
#
# YOU SHOULD HAVE RECEIVED A COPY OF THE GNU GENERAL PUBLIC LICENSE
# ALONG WITH THIS PROGRAM; IF NOT, WRITE TO EDF R&D CODE_ASTER,
#    1 AVENUE DU GENERAL DE GAULLE, 92141 CLAMART CEDEX, FRANCE.
# ======================================================================
# CONTRAINTES PLANES
# CALCUL DE L INTEGRALE G SUR DIFFERENTES COURONNES D'INTEGRATION
# CALCUL DES COEFFICIENTS D'INTENSITE DE CONTRAINTES K1 ET K2
#
DEBUT(CODE=_F(NOM='SSLP101B',NIV_PUB_WEB='INTERNET'),DEBUG=_F(SDVERI='OUI'))

MA=LIRE_MAILLAGE(FORMAT='MED',  )

MO=AFFE_MODELE(  MAILLAGE=MA,
                               AFFE=_F( TOUT = 'OUI',
                                     PHENOMENE = 'MECANIQUE',
                                     MODELISATION = 'C_PLAN'))

MAT=DEFI_MATERIAU(ELAS=_F(  E = 200000., NU = 0.3, RHO = 1.))

CHMAT=AFFE_MATERIAU(  MAILLAGE=MA,
                           AFFE=_F(  TOUT = 'OUI',MATER = MAT))

#-----------------------------------------------------------------------
CH=AFFE_CHAR_MECA(  MODELE=MO,DDL_IMPO=(
                                 _F(  GROUP_NO = 'GRNM5', DY = 0.),
                                          _F(  NOEUD = 'N451', DX = 0.)),
                            FORCE_CONTOUR=_F(  GROUP_MA = 'GRMA1', FY = 1.) )

#-----------------------------------------------------------------------

CHAMDEPL=MECA_STATIQUE(   MODELE=MO,   CHAM_MATER=CHMAT,
                              EXCIT=_F( CHARGE = CH))

THETA1=CALC_THETA(      MODELE=MO,
                        THETA_2D=_F(  NOEUD = 'N668', MODULE = 1.,
                                            R_INF = 22.04078,
                                            R_SUP = 30.),
                       DIRECTION=( 1., 0., 0.,))

THETA2=CALC_THETA(    MODELE=MO,
                      THETA_2D=_F(  NOEUD = 'N668', MODULE = 1.,
                                 R_SUP = 22.04078,
                                 R_INF = 15.3061094),
                       DIRECTION=( 1., 0., 0.,))

THETA3=CALC_THETA(    MODELE=MO,
                      THETA_2D=_F(  NOEUD = 'N668', MODULE = 1.,
                                 R_INF = 9.79591846,
                                 R_SUP = 15.3061094),
                       DIRECTION=( 1., 0., 0.,))

THETA4=CALC_THETA(    MODELE=MO,
                      THETA_2D=_F(  NOEUD = 'N668', MODULE = 1.,
                                 R_SUP = 9.79591846,
                                 R_INF = 5.510197639),
                       DIRECTION=( 1., 0., 0.,))

THETA5=CALC_THETA(    MODELE=MO,
                      THETA_2D=_F(  NOEUD = 'N668', MODULE = 1.,
                                 R_INF = 2.448979377,
                                 R_SUP = 5.510197639),
                       DIRECTION=( 1., 0., 0.,))

THETA6=CALC_THETA(   MODELE=MO,
                     THETA_2D=_F(  NOEUD = 'N668', MODULE = 1.,
                                R_SUP = 2.448979377,
                                R_INF = 0.61225116),
                       DIRECTION=( 1., 0., 0.,))

FOND=DEFI_FOND_FISS( MAILLAGE=MA,
                     FOND_FISS=_F( NOEUD = 'N668'),
                     SYME='OUI',
                     LEVRE_SUP=_F(MAILLE='M306'),
                   )
G1=CALC_G(              RESULTAT=CHAMDEPL,
                        THETA=_F(THETA=THETA1,SYME='OUI'),)

GK1=CALC_G(             RESULTAT=CHAMDEPL,
                        THETA=_F(R_INF = 22.04078,
                                 R_SUP = 30.,
                                 DIRECTION=( 1., 0., 0.,),
                                 FOND_FISS=FOND),
                        OPTION='CALC_K_G')

IMPR_TABLE(TABLE=GK1)

G2=CALC_G(              RESULTAT=CHAMDEPL,
                        THETA=_F(THETA=THETA2,SYME='OUI'),)

GK2=CALC_G(             RESULTAT=CHAMDEPL,
                        THETA=_F(
                                 R_SUP = 22.04078,
                                 R_INF = 15.3061094,
                                 DIRECTION=( 1., 0., 0.,),
                                 FOND_FISS=FOND),
                        OPTION='CALC_K_G')

G3=CALC_G(              RESULTAT=CHAMDEPL,
                        THETA=_F(THETA=THETA3,SYME='OUI'),)

GK3=CALC_G(             RESULTAT=CHAMDEPL,
                        THETA=_F(
                                 R_INF = 9.79591846,
                                 R_SUP = 15.3061094,
                                 DIRECTION=( 1., 0., 0.,),
                                 FOND_FISS=FOND),
                        OPTION='CALC_K_G')

G4=CALC_G(              RESULTAT=CHAMDEPL,
                        THETA=_F(THETA=THETA4,SYME='OUI'),)

GK4=CALC_G(              RESULTAT=CHAMDEPL,
                         THETA=_F(
                                 R_SUP = 9.79591846,
                                 R_INF = 5.510197639,
                                 DIRECTION=( 1., 0., 0.,),
                                 FOND_FISS=FOND),
                         OPTION='CALC_K_G')

G5=CALC_G(               RESULTAT=CHAMDEPL,
                         THETA=_F(THETA=THETA5,SYME='OUI'),)

GK5=CALC_G(              RESULTAT=CHAMDEPL,
                         THETA=_F(
                                 R_INF = 2.448979377,
                                 R_SUP = 5.510197639,
                                 DIRECTION=( 1., 0., 0.,),
                                 FOND_FISS=FOND),
                         OPTION='CALC_K_G')

G6=CALC_G(               RESULTAT=CHAMDEPL,
                         THETA=_F(THETA=THETA6,SYME='OUI'),)

GK6=CALC_G(              RESULTAT=CHAMDEPL,
                            THETA=_F(
                                R_SUP = 2.448979377,
                                R_INF = 0.61225116,
                                DIRECTION=( 1., 0., 0.,),
                                FOND_FISS=FOND),
                         OPTION='CALC_K_G')

TEST_TABLE(PRECISION=5.0000000000000001E-3,
           VALE_CALC= 2.29940675E-03,
           VALE_REFE=2.3092999999999998E-3,
           REFERENCE='NON_DEFINI',
           NOM_PARA='G',
           TABLE=G1,)

TEST_TABLE(PRECISION=5.0000000000000001E-3,
           VALE_CALC= 2.29940675E-03,
           VALE_REFE=2.3092999999999998E-3,
           REFERENCE='NON_DEFINI',
           NOM_PARA='G',
           TABLE=GK1,)

TEST_TABLE(PRECISION=5.0000000000000001E-3,
           VALE_CALC= 2.29900782E-03,
           VALE_REFE=2.3092999999999998E-3,
           REFERENCE='NON_DEFINI',
           NOM_PARA='G_IRWIN',
           TABLE=GK1,)

TEST_TABLE(PRECISION=5.0000000000000001E-3,
           VALE_CALC=21.442984015,
           VALE_REFE=21.491,
           REFERENCE='NON_DEFINI',
           NOM_PARA='K1',
           TABLE=GK1,)

TEST_TABLE(CRITERE='ABSOLU',
           VALE_CALC=0.0,
           TOLE_MACHINE=1.E-4,
           NOM_PARA='K2',
           TABLE=GK1,)

TEST_TABLE(PRECISION=5.0000000000000001E-3,
           VALE_CALC= 2.29934596E-03,
           VALE_REFE=2.3092999999999998E-3,
           REFERENCE='NON_DEFINI',
           NOM_PARA='G',
           TABLE=G2,)

TEST_TABLE(PRECISION=5.0000000000000001E-3,
           VALE_CALC= 2.29934596E-03,
           VALE_REFE=2.3092999999999998E-3,
           REFERENCE='NON_DEFINI',
           NOM_PARA='G',
           TABLE=GK2,)

TEST_TABLE(PRECISION=5.0000000000000001E-3,
           VALE_CALC= 2.29893717E-03,
           VALE_REFE=2.3092999999999998E-3,
           REFERENCE='NON_DEFINI',
           NOM_PARA='G_IRWIN',
           TABLE=GK2,)

TEST_TABLE(PRECISION=5.0000000000000001E-3,
           VALE_CALC=21.442654545,
           VALE_REFE=21.491,
           REFERENCE='NON_DEFINI',
           NOM_PARA='K1',
           TABLE=GK2,)

TEST_TABLE(CRITERE='ABSOLU',
           VALE_CALC=0.0,
           TOLE_MACHINE=1.E-4,
           NOM_PARA='K2',
           TABLE=GK2,)

TEST_TABLE(PRECISION=5.0000000000000001E-3,
           VALE_CALC= 2.29929002E-03,
           VALE_REFE=2.3092999999999998E-3,
           REFERENCE='NON_DEFINI',
           NOM_PARA='G',
           TABLE=G3,)

TEST_TABLE(PRECISION=5.0000000000000001E-3,
           VALE_CALC= 2.29929002E-03,
           VALE_REFE=2.3092999999999998E-3,
           REFERENCE='NON_DEFINI',
           NOM_PARA='G',
           TABLE=GK3,)

TEST_TABLE(PRECISION=5.0000000000000001E-3,
           VALE_CALC= 2.29887852E-03,
           VALE_REFE=2.3092999999999998E-3,
           REFERENCE='NON_DEFINI',
           NOM_PARA='G_IRWIN',
           TABLE=GK3,)

TEST_TABLE(PRECISION=5.0000000000000001E-3,
           VALE_CALC=21.442381047,
           VALE_REFE=21.491,
           REFERENCE='NON_DEFINI',
           NOM_PARA='K1',
           TABLE=GK3,)

TEST_TABLE(CRITERE='ABSOLU',
           VALE_CALC=0.0,
           TOLE_MACHINE=1.E-4,
           NOM_PARA='K2',
           TABLE=GK3,)

TEST_TABLE(PRECISION=5.0000000000000001E-3,
           VALE_CALC= 2.29906871E-03,
           VALE_REFE=2.3092999999999998E-3,
           REFERENCE='NON_DEFINI',
           NOM_PARA='G',
           TABLE=G4,)

TEST_TABLE(PRECISION=5.0000000000000001E-3,
           VALE_CALC= 2.29906871E-03,
           VALE_REFE=2.3092999999999998E-3,
           REFERENCE='NON_DEFINI',
           NOM_PARA='G',
           TABLE=GK4,)

TEST_TABLE(PRECISION=5.0000000000000001E-3,
           VALE_CALC= 2.29864152E-03,
           VALE_REFE=2.3092999999999998E-3,
           REFERENCE='NON_DEFINI',
           NOM_PARA='G_IRWIN',
           TABLE=GK4,)

TEST_TABLE(PRECISION=5.0000000000000001E-3,
           VALE_CALC=21.441275703,
           VALE_REFE=21.491,
           REFERENCE='NON_DEFINI',
           NOM_PARA='K1',
           TABLE=GK4,)

TEST_TABLE(CRITERE='ABSOLU',
           VALE_CALC=0.0,
           TOLE_MACHINE=1.E-4,
           NOM_PARA='K2',
           TABLE=GK4,)

TEST_TABLE(PRECISION=5.0000000000000001E-3,
           VALE_CALC= 2.29813107E-03,
           VALE_REFE=2.3092999999999998E-3,
           REFERENCE='NON_DEFINI',
           NOM_PARA='G',
           TABLE=G5,)

TEST_TABLE(PRECISION=5.0000000000000001E-3,
           VALE_CALC= 2.29813107E-03,
           VALE_REFE=2.3092999999999998E-3,
           REFERENCE='NON_DEFINI',
           NOM_PARA='G',
           TABLE=GK5,)

TEST_TABLE(PRECISION=5.1000000000000004E-3,
           VALE_CALC= 2.29759986E-03,
           VALE_REFE=2.3092999999999998E-3,
           REFERENCE='NON_DEFINI',
           NOM_PARA='G_IRWIN',
           TABLE=GK5,)

TEST_TABLE(PRECISION=5.0000000000000001E-3,
           VALE_CALC=21.436416937,
           VALE_REFE=21.491,
           REFERENCE='NON_DEFINI',
           NOM_PARA='K1',
           TABLE=GK5,)

TEST_TABLE(CRITERE='ABSOLU',
           VALE_CALC=0.0,
           TOLE_MACHINE=1.E-4,
           NOM_PARA='K2',
           TABLE=GK5,)

TEST_TABLE(PRECISION=1.E-2,
           VALE_CALC= 2.29062456E-03,
           VALE_REFE=2.3092999999999998E-3,
           REFERENCE='NON_DEFINI',
           NOM_PARA='G',
           TABLE=G6,)

TEST_TABLE(PRECISION=1.E-2,
           VALE_CALC= 2.29062456E-03,
           VALE_REFE=2.3092999999999998E-3,
           REFERENCE='NON_DEFINI',
           NOM_PARA='G',
           TABLE=GK6,)

TEST_TABLE(PRECISION=1.E-2,
           VALE_CALC= 2.28905955E-03,
           VALE_REFE=2.3092999999999998E-3,
           REFERENCE='NON_DEFINI',
           NOM_PARA='G_IRWIN',
           TABLE=GK6,)

TEST_TABLE(PRECISION=5.0000000000000001E-3,
           VALE_CALC=21.396539677,
           VALE_REFE=21.491,
           REFERENCE='NON_DEFINI',
           NOM_PARA='K1',
           TABLE=GK6,)

TEST_TABLE(CRITERE='ABSOLU',
           VALE_CALC=0.0,
           TOLE_MACHINE=1.E-4,
           NOM_PARA='K2',
           TABLE=GK6,)

MASSES=POST_ELEM(        MODELE=MO,
                         CHAM_MATER=CHMAT,
                          MASS_INER=_F(  TOUT = 'OUI')
                     )

TEST_TABLE(VALE_CALC=2.5000E4,
           TOLE_MACHINE=1.E-3,
           NOM_PARA='MASSE',
           TABLE=MASSES,
           FILTRE=_F(NOM_PARA='LIEU',
                     VALE_K='MA',),
           )

TEST_TABLE(VALE_CALC=1.30208333333E8,
           TOLE_MACHINE=1.E-3,
           NOM_PARA='IX_G',
           TABLE=MASSES,
           FILTRE=_F(NOM_PARA='LIEU',
                     VALE_K='MA',),
           )

TEST_TABLE(VALE_CALC=2.0833333333000001E7,
           TOLE_MACHINE=1.E-3,
           NOM_PARA='IY_G',
           TABLE=MASSES,
           FILTRE=_F(NOM_PARA='LIEU',
                     VALE_K='MA',),
           )

TEST_TABLE(VALE_CALC=1.5104166666600001E8,
           TOLE_MACHINE=1.E-3,
           NOM_PARA='IZ_G',
           TABLE=MASSES,
           FILTRE=_F(NOM_PARA='LIEU',
                     VALE_K='MA',),
           )

FIN(  )
# ;
