
# MODIF  DATE 13/09/2010   AUTEUR PELLET J.PELLET 
# RESPONSABLE JMBHH01 J.M.PROIX
# TITRE PLAQUE ORTHOTROPE EN TRACTION UNIAXIALE HORS AXES D'ORTHOTROPIE
#            CONFIGURATION MANAGEMENT OF EDF VERSION
# ======================================================================
# COPYRIGHT (C) 1991 - 2001  EDF R&D                  WWW.CODE-ASTER.ORG
# THIS PROGRAM IS FREE SOFTWARE; YOU CAN REDISTRIBUTE IT AND/OR MODIFY
# IT UNDER THE TERMS OF THE GNU GENERAL PUBLIC LICENSE AS PUBLISHED BY
# THE FREE SOFTWARE FOUNDATION; EITHER VERSION 2 OF THE LICENSE, OR
# (AT YOUR OPTION) ANY LATER VERSION.
#
# THIS PROGRAM IS DISTRIBUTED IN THE HOPE THAT IT WILL BE USEFUL, BUT
# WITHOUT ANY WARRANTY; WITHOUT EVEN THE IMPLIED WARRANTY OF
# MERCHANTABILITY OR FITNESS FOR A PARTICULAR PURPOSE. SEE THE GNU
# GENERAL PUBLIC LICENSE FOR MORE DETAILS.
#
# YOU SHOULD HAVE RECEIVED A COPY OF THE GNU GENERAL PUBLIC LICENSE
# ALONG WITH THIS PROGRAM; IF NOT, WRITE TO EDF R&D CODE_ASTER,
#    1 AVENUE DU GENERAL DE GAULLE, 92141 CLAMART CEDEX, FRANCE.
# ======================================================================

DEBUT(CODE=_F(NOM='SSLP304A',NIV_PUB_WEB='INTERNET'),DEBUG=_F(SDVERI='OUI'))

MAIL=LIRE_MAILLAGE();
#
# DEFINITION DES GROUPES DE NOEUDS

MAIL=DEFI_GROUP(reuse =MAIL,
                MAILLAGE=MAIL,
                CREA_GROUP_NO=(_F(GROUP_MA='BORD_CH1',),
                               _F(GROUP_MA='BORD_CH2',),
                               _F(NOEUD=('N171','N336','N345',),
                                  NOM='RESULT',),),);
#
# DEFINITION DU MODELE

MODELE=AFFE_MODELE(MAILLAGE=MAIL,
                   AFFE=_F(TOUT='OUI',
                           PHENOMENE='MECANIQUE',
                           MODELISATION='C_PLAN',),);
#
# DEFINITION DU MATERIAU (REPERE D'ORTHOTROPIE = REPERE GLOBAL)

ACIER=DEFI_MATERIAU(ELAS_ORTH=_F(E_L=40000000000.0,
                                 E_T=10000000000.0,
                                 NU_LT=0.3,
                                 G_LT=4500000000.0,
                                 G_LN=4500000000.0,
                                 G_TN=3500000000.0,),);
#
# ATTRIBUTION DU MATERIAU

CHMAT=AFFE_MATERIAU(MAILLAGE=MAIL,
                    AFFE=_F(TOUT='OUI',
                            MATER=ACIER,),);

COS30=cos(30*pi/180);

COS30E4=1.E4*cos(30*pi/180);

MCOS30E4=-1.E4*cos(30*pi/180);
#
# DEFINITION DES CONDITIONS AUX LIMITES ET CHARGEMENTS
# DANS LE REPERE GLOBAL , ON A : 0.5*SQRT(3)*U - 0.5*V = 0.

CHARGT=AFFE_CHAR_MECA(MODELE=MODELE,
                      DDL_IMPO=_F(GROUP_NO='A',
                                  DX=0.0,
                                  DY=0.0,),
                      LIAISON_DDL=_F(GROUP_NO=('B','B',),
                                     DDL=('DX','DY',),
                                     COEF_MULT=(COS30,-0.5,),
                                     COEF_IMPO=0.0,),
                      FORCE_CONTOUR=(_F(GROUP_MA='BORD_CH2',
                                        FX=COS30E4,
                                        FY=-5000.0,),
                                     _F(GROUP_MA='BORD_CH1',
                                        FX=MCOS30E4,
                                        FY=5000.0,),),);
#
# RESOLUTION

DEF=MECA_STATIQUE(MODELE=MODELE,
                  CHAM_MATER=CHMAT,
                  EXCIT=_F(CHARGE=CHARGT,),);
#
# RECUPERATION DU CHAMP DE DEPLACEMENTS

U=CREA_CHAMP(TYPE_CHAM='NOEU_DEPL_R',
             OPERATION='EXTR',
             RESULTAT=DEF,
             NOM_CHAM='DEPL',
             NUME_ORDRE=1,);
#
# CALCUL DES CONTRAINTES

DEF=CALC_ELEM(reuse =DEF,


              RESULTAT=DEF,
              OPTION='SIGM_ELNO_DEPL',

);

DEF2=MODI_REPERE(RESULTAT=DEF,
                 MODI_CHAM=_F(TYPE_CHAM='VECT_2D',
                              NOM_CHAM='DEPL',
                              NOM_CMP=('DX','DY',),),
                 DEFI_REPERE=_F(REPERE='UTILISATEUR',
                                ANGL_NAUT=-30.0,),);

U2=CREA_CHAMP(TYPE_CHAM='NOEU_DEPL_R',
              OPERATION='EXTR',
              RESULTAT=DEF2,
              NOM_CHAM='DEPL',
              NUME_ORDRE=1,);

TEST_RESU(CHAM_NO=(_F(CHAM_GD=U2,
                      NOEUD='N171',
                      NOM_CMP='DX',
                      VALE=0.0,
                      CRITERE='ABSOLU',
                      PRECISION=0.01,
                      REFERENCE='ANALYTIQUE',),
                   _F(CHAM_GD=U2,
                      NOEUD='N171',
                      NOM_CMP='DY',
                      VALE=-2.292e-07,
                      PRECISION=0.001,
                      REFERENCE='ANALYTIQUE',),
                   _F(CHAM_GD=U2,
                      NOEUD='N336',
                      NOM_CMP='DX',
                      VALE=5.917e-07,
                      PRECISION=0.001,
                      REFERENCE='ANALYTIQUE',),
                   _F(CHAM_GD=U2,
                      NOEUD='N336',
                      NOM_CMP='DY',
                      VALE=-5.028e-07,
                      PRECISION=0.001,
                      REFERENCE='ANALYTIQUE',),
                   _F(CHAM_GD=U2,
                      NOEUD='N345',
                      NOM_CMP='DX',
                      VALE=5.917e-07,
                      PRECISION=0.001,
                      REFERENCE='ANALYTIQUE',),
                   _F(CHAM_GD=U2,
                      NOEUD='N345',
                      NOM_CMP='DY',
                      VALE=-7.319e-07,
                      PRECISION=0.001,
                      REFERENCE='ANALYTIQUE',),),);
#
# TEST_RESU DE LA CONTRAINTE

TEST_RESU(RESU=(_F(RESULTAT=DEF,
                   NUME_ORDRE=1,
                   NOM_CHAM='SIGM_ELNO_DEPL',
                   NOM_CMP='SIXX',
                   MAILLE='M46',
                   NOEUD='N171',
                   VALE=7500.0,
                   PRECISION=0.003,
                   REFERENCE='ANALYTIQUE',),
                _F(RESULTAT=DEF,
                   NUME_ORDRE=1,
                   NOM_CHAM='SIGM_ELNO_DEPL',
                   NOM_CMP='SIYY',
                   MAILLE='M46',
                   NOEUD='N171',
                   VALE=2500.0,
                   PRECISION=0.005,
                   REFERENCE='ANALYTIQUE',),
                _F(RESULTAT=DEF,
                   NUME_ORDRE=1,
                   NOM_CHAM='SIGM_ELNO_DEPL',
                   NOM_CMP='SIXY',
                   MAILLE='M46',
                   NOEUD='N171',
                   VALE=-4330.0,
                   PRECISION=0.005,
                   REFERENCE='ANALYTIQUE',),
                _F(RESULTAT=DEF,
                   NUME_ORDRE=1,
                   NOM_CHAM='SIGM_ELNO_DEPL',
                   NOM_CMP='SIXX',
                   MAILLE='M59',
                   NOEUD='N336',
                   VALE=7500.0,
                   PRECISION=0.005,
                   REFERENCE='ANALYTIQUE',),
                _F(RESULTAT=DEF,
                   NUME_ORDRE=1,
                   NOM_CHAM='SIGM_ELNO_DEPL',
                   NOM_CMP='SIYY',
                   MAILLE='M59',
                   NOEUD='N336',
                   VALE=2500.0,
                   PRECISION=0.005,
                   REFERENCE='ANALYTIQUE',),
                _F(RESULTAT=DEF,
                   NUME_ORDRE=1,
                   NOM_CHAM='SIGM_ELNO_DEPL',
                   NOM_CMP='SIXY',
                   MAILLE='M59',
                   NOEUD='N336',
                   VALE=-4330.0,
                   PRECISION=0.005,
                   REFERENCE='ANALYTIQUE',),
                _F(RESULTAT=DEF,
                   NUME_ORDRE=1,
                   NOM_CHAM='SIGM_ELNO_DEPL',
                   NOM_CMP='SIXX',
                   MAILLE='M150',
                   NOEUD='N345',
                   VALE=7500.0,
                   PRECISION=0.005,
                   REFERENCE='ANALYTIQUE',),
                _F(RESULTAT=DEF,
                   NUME_ORDRE=1,
                   NOM_CHAM='SIGM_ELNO_DEPL',
                   NOM_CMP='SIYY',
                   MAILLE='M150',
                   NOEUD='N345',
                   VALE=2500.0,
                   PRECISION=0.005,
                   REFERENCE='ANALYTIQUE',),
                _F(RESULTAT=DEF,
                   NUME_ORDRE=1,
                   NOM_CHAM='SIGM_ELNO_DEPL',
                   NOM_CMP='SIXY',
                   MAILLE='M150',
                   NOEUD='N345',
                   VALE=-4330.0,
                   PRECISION=0.005,
                   REFERENCE='ANALYTIQUE',),),);

FIN();
#
