# TITRE PROPAGATION D'UNE FISSURE X-FEM DEBOUCHANTE SOLLICITEE EN MODE I
# ======================================================================
# COPYRIGHT (C) 1991 - 2013  EDF R&D                  WWW.CODE-ASTER.ORG
# THIS PROGRAM IS FREE SOFTWARE; YOU CAN REDISTRIBUTE IT AND/OR MODIFY  
# IT UNDER THE TERMS OF THE GNU GENERAL PUBLIC LICENSE AS PUBLISHED BY  
# THE FREE SOFTWARE FOUNDATION; EITHER VERSION 2 OF THE LICENSE, OR     
# (AT YOUR OPTION) ANY LATER VERSION.                                                    
#                                                                       
# THIS PROGRAM IS DISTRIBUTED IN THE HOPE THAT IT WILL BE USEFUL, BUT   
# WITHOUT ANY WARRANTY; WITHOUT EVEN THE IMPLIED WARRANTY OF            
# MERCHANTABILITY OR FITNESS FOR A PARTICULAR PURPOSE. SEE THE GNU      
# GENERAL PUBLIC LICENSE FOR MORE DETAILS.                              
#                                                                       
# YOU SHOULD HAVE RECEIVED A COPY OF THE GNU GENERAL PUBLIC LICENSE     
# ALONG WITH THIS PROGRAM; IF NOT, WRITE TO EDF R&D CODE_ASTER,         
#    1 AVENUE DU GENERAL DE GAULLE, 92141 CLAMART CEDEX, FRANCE.        
# ======================================================================
# person_in_charge: samuel.geniaut at edf.fr
# MODELISATION B : METHODE SIMPLEXE

DEBUT(CODE=_F(NIV_PUB_WEB='INTERNET',VISU_EFICAS='NON'),
              DEBUG=_F(SDVERI='OUI'),
              IGNORE_ALARM=('TEST0_12'))


#----------------------------------------------
#                 MAILLAGE
#----------------------------------------------

MAILLAG1=LIRE_MAILLAGE(FORMAT='MED',);

#Largeur de la plaque
W = 10.

#Nb de pas de propagation
NPAS = 15

#Pas de propagation
DA = 0.25 

#Rayons inferieur et superieur des couronnes d'integration pour CALC_G
RI = 0.5 
RS = 2. 

#RP
RP = 4.

#longueur de fissure initiale
xinit = 2.5 
yinit = 15. 

# Chargement de traction
PRES = -1.E6


#----------------------------------------------
#                   MODELE
#----------------------------------------------

MODEL = [None]*(NPAS+1)
MODE = [None]*(NPAS+1)
MOD = [None]*(NPAS+1)
MOD[0]=AFFE_MODELE(MAILLAGE=MAILLAG1,
                      AFFE=(_F(GROUP_MA=('Surface',),
                               PHENOMENE='MECANIQUE',
                               MODELISATION='D_PLAN',),
                            _F(GROUP_MA=('LIG2','LIG4',),
                               PHENOMENE='MECANIQUE',
                               MODELISATION='D_PLAN',),),);


MAILLAG1=DEFI_GROUP(reuse =MAILLAG1,
                    MAILLAGE=MAILLAG1,
                    CREA_GROUP_NO=_F(GROUP_MA='Surface',),);

#----------------------------------------------
#                   MATERIAU
#----------------------------------------------

E=205000.0E6
nu=0.
ACIER=DEFI_MATERIAU(ELAS=_F(E=E,NU=nu,),);

CHAMPMA1=AFFE_MATERIAU(MAILLAGE=MAILLAG1,
                       MODELE=MOD[0],
                       AFFE=_F(TOUT = 'OUI',
                                MATER=ACIER,
                                ),
                             );

#----------------------------------------------
#                   FISSURE
#----------------------------------------------

# PARAMETRES DE LA FISSURE

X0 = xinit
Y0 = yinit

LN=FORMULE(NOM_PARA=('X','Y'),VALE='Y-Y0');
LT=FORMULE(NOM_PARA=('X','Y'),VALE='X-X0');

FISS = [None]*(NPAS+1)

FISS[0]=DEFI_FISS_XFEM(MAILLAGE=MAILLAG1,
                       DEFI_FISS=_F(FONC_LT=LT,FONC_LN=LN,),
#                        TYPE_ENRI_FOND = 'GEOMETRIQUE',
#                        RAYON_ENRI = 0.2,
                       );

#----------------------------------------------
#         PROPAGATION SUR 3 PAS DE TEMPS
#----------------------------------------------
afiss=[None]*(NPAS+1)
faW = [None]*(NPAS+1)
K1REF = [None]*(NPAS+1)
CHXFE = [None]*(NPAS+1)
CHRIG = [None]*(NPAS+1)
RESU = [None]*(NPAS+1)
SIF = [None]*(NPAS+1)
LSN = [None]*(NPAS+1)
LST = [None]*(NPAS+1)
TAB = [None]*(NPAS+1) 
afiss[0]=xinit

L_INS1=DEFI_LIST_REEL(DEBUT=0.0,INTERVALLE=_F(JUSQU_A=3.0,NOMBRE=3,),);

VALE_CALC=[
 4.1749113788366E+06,
-2.9454328338046E+02,
 4.6025451489773E+06,
-3.2310277996169E+02,
 5.0675326692381E+06,
-3.8371114003750E+02,
 5.5759028915192E+06,
-4.5261093614732E+02,
 6.1344931686212E+06,
-5.1254193799144E+02,
 6.7512055221532E+06,
-5.6659888588323E+02,
 7.4353027006797E+06,
-6.2369896604690E+02,
 8.1977753525454E+06,
-6.8957952200643E+02,
 9.0518104539414E+06,
-7.7164415779324E+02,
 1.0013397225965E+07,
-8.8006270171795E+02,
# ... 10 like lines cut
 ]



for i in range(1,NPAS+1) :

    afiss[i]=xinit+i*DA
                                                                                                                        
    MODEL[i]=MODI_MODELE_XFEM(MODELE_IN=MOD[0],FISSURE=FISS[i-1],);

    CHRIG[i]=AFFE_CHAR_MECA(MODELE=MODEL[i],
                             DDL_IMPO=( _F(GROUP_NO='P1', DY=0.0,),_F(GROUP_NO=('P4',), DX=0.0, DY=0.0)),
                             PRES_REP=_F(GROUP_MA=('LIG2','LIG4',),PRES=PRES,),
                                           );    
 
    RESU[i]=MECA_STATIQUE(MODELE=MODEL[i],
                         CHAM_MATER=CHAMPMA1,
                         EXCIT=(
                                _F(CHARGE=CHRIG[i],),),
                         );

    SIF[i]=CALC_G        (RESULTAT=RESU[i],
                         OPTION='CALC_K_G',
                         THETA=_F( FISSURE=FISS[i-1],),
                         );
    
    IMPR_TABLE(TABLE=SIF[i],
                );

#Formule de KI (ref. Tada Irwin)                
    faW[0]=1.12-0.231*((afiss[0]/W))+10.55*((afiss[0]/W)**2)-21.72*((afiss[0]/W)**3)+30.35*((afiss[0]/W)**4)
    K1REF[0]=-PRES*sqrt(pi*afiss[0])*faW[0]
    faW[i]=1.12-0.231*((afiss[i]/W))+10.55*((afiss[i]/W)**2)-21.72*((afiss[i]/W)**3)+30.35*((afiss[i]/W)**4)
    K1REF[i]=-PRES*sqrt(pi*afiss[i])*faW[i]

#Test de KI par rapport a KI theorique 
    TEST_TABLE(CRITERE='RELATIF',
               REFERENCE='ANALYTIQUE',
               PRECISION=0.02,
               VALE_CALC=VALE_CALC[(i-1)*2],
               VALE_REFE=K1REF[i-1],
               NOM_PARA='K1',
               TYPE_TEST='MAX',
               TABLE=SIF[i],)
    IMPR_TABLE(TABLE=SIF[i],FORMAT_R='E20.13',NOM_PARA='K1');

# Test de KII en pourcentage de KI theorique
    # TEST DE REFERENCE SUR K2
    TEST_TABLE(CRITERE='ABSOLU',
               REFERENCE='AUTRE_ASTER',
               PRECISION=(2*(10**(-3)))*K1REF[i-1],
               VALE_CALC=0.,
               VALE_REFE=0,
               NOM_PARA='K2',
               TYPE_TEST='MAX',
               TABLE=SIF[i],)
    # TEST DE NON REGRESSION SUR K2
    TEST_TABLE(VALE_CALC=VALE_CALC[(i-1)*2+1],
               NOM_PARA='K2',
               TYPE_TEST='MAX',
               TABLE=SIF[i],)
    IMPR_TABLE(TABLE=SIF[i],FORMAT_R='E20.13',NOM_PARA='K2');

    FISS[i] = CO('FISS_%d'%(i))
#Propagation de la fissure avec la methode simplexe  
    if ( i != NPAS+1 ) :
        PROPA_FISS(MODELE=MODEL[i],
                 FISSURE=_F(FISS_ACTUELLE=FISS[i-1],
                            FISS_PROPAGEE=FISS[i],
                            TABLE=SIF[i],),
                 METHODE_PROPA='SIMPLEXE',
                 LOI_PROPA=_F(LOI='PARIS',
                                   C=1.,
                                   M=1.,
                                   MATER=ACIER,),
                 DA_MAX=DA,
                 RAYON=RP,
                 COMP_LINE =_F(COEF_MULT_MINI=0.,
                               COEF_MULT_MAXI=1.,),
                 );
                      

             
FIN();
