# MODIF  DATE 11/09/2012   AUTEUR DELMAS J.DELMAS 
# TITRE TEST DE NON-REGRESSION ASTER : MECANIQUE LINEAIRE 2D D_PLAN
# RESPONSABLE PELLET J.PELLET
# sslp200b.para = tps_job 60 mem_job 512Mo ncpus 1 liste_test R
#            CONFIGURATION MANAGEMENT OF EDF VERSION
# ======================================================================
# COPYRIGHT (C) 1991 - 2012  EDF R&D                  WWW.CODE-ASTER.ORG
# THIS PROGRAM IS FREE SOFTWARE; YOU CAN REDISTRIBUTE IT AND/OR MODIFY
# IT UNDER THE TERMS OF THE GNU GENERAL PUBLIC LICENSE AS PUBLISHED BY
# THE FREE SOFTWARE FOUNDATION; EITHER VERSION 2 OF THE LICENSE, OR
# (AT YOUR OPTION) ANY LATER VERSION.
#
# THIS PROGRAM IS DISTRIBUTED IN THE HOPE THAT IT WILL BE USEFUL, BUT
# WITHOUT ANY WARRANTY; WITHOUT EVEN THE IMPLIED WARRANTY OF
# MERCHANTABILITY OR FITNESS FOR A PARTICULAR PURPOSE. SEE THE GNU
# GENERAL PUBLIC LICENSE FOR MORE DETAILS.
#
# YOU SHOULD HAVE RECEIVED A COPY OF THE GNU GENERAL PUBLIC LICENSE
# ALONG WITH THIS PROGRAM; IF NOT, WRITE TO EDF R&D CODE_ASTER,
#    1 AVENUE DU GENERAL DE GAULLE, 92141 CLAMART CEDEX, FRANCE.
# ======================================================================

DEBUT(CODE=_F(NOM='SSLP200B',
              NIV_PUB_WEB='INTERNET',),
      DEBUG=_F(SDVERI='NON',),);

# ======================================================
#
#      TEST SSLP200B DE NON_REGRESSION ASTER
#
#      MECANIQUE LINEAIRE 2D, MODELISATION D_PLAN_SI
#
#      ATTENTION :
#      LES VALEURS DE REFERENCE ONT ETE OBTENUES
#      PAR UN PASSAGE PRECEDENT DU CODE_ASTER.
# ======================================================
# ----------------------------------------------------------------------
#    DEFINITION DU MODELE
# ----------------------------------------------------------------------

MA=LIRE_MAILLAGE();

MA=DEFI_GROUP(reuse =MA,
              MAILLAGE=MA,
              CREA_GROUP_MA=_F(NOM='TOUT',
                               TOUT='OUI',),);

#      TRIA3  QUAD4  TRIA6  QUAD8  QUAD9

MO=AFFE_MODELE(MAILLAGE=MA,
               AFFE=_F(TOUT='OUI',
                       PHENOMENE='MECANIQUE',
                       MODELISATION=('D_PLAN','D_PLAN_SI',),),);

MOTH=AFFE_MODELE(MAILLAGE=MA,
                 AFFE=_F(TOUT='OUI',
                         PHENOMENE='THERMIQUE',
                         MODELISATION='PLAN',),);

# ----------------------------------------------------------------------
#    DEFINITION DE CHAMPS
# ----------------------------------------------------------------------

LR1=DEFI_LIST_REEL(DEBUT=-0.5,
                   INTERVALLE=_F(JUSQU_A=11.5,
                                 NOMBRE=2,),);

FO1=DEFI_FONCTION(NOM_PARA='TEMP',VALE=(-5.1,1.05,
                        4.8,1.12,
                        17.3,1.14,
                        ),PROL_DROITE='LINEAIRE',PROL_GAUCHE='CONSTANT',);

FO2=DEFI_FONCTION(NOM_PARA='TEMP',VALE=(-8.1,0.28,
                        12.5,0.33,
                        25.7,0.31,
                        ),PROL_DROITE='LINEAIRE',PROL_GAUCHE='CONSTANT',);

FO2_NU=DEFI_FONCTION(NOM_PARA='TEMP',VALE=(-8.1,0.13674,
                           12.5,0.185909619,
                           25.7,0.14058841,
                           ),PROL_DROITE='LINEAIRE',PROL_GAUCHE='CONSTANT',);

FO3=DEFI_FONCTION(NOM_PARA='TEMP',VALE=(-5.1,1.06,
                        4.8,1.11,
                        17.3,1.02,
                        ),PROL_DROITE='LINEAIRE',PROL_GAUCHE='CONSTANT',);

FO4=DEFI_FONCTION(NOM_PARA='INST',VALE=(-1.5,0.85,
                        0.8,0.98,
                        8.5,0.94,
                        ),PROL_DROITE='LINEAIRE',PROL_GAUCHE='CONSTANT',);

FO5=DEFI_FONCTION(NOM_PARA='X',VALE=(0.8,-0.91,
                        1.5,-0.94,
                        3.8,-0.89,
                        ),PROL_DROITE='CONSTANT',PROL_GAUCHE='LINEAIRE',);

FO6=DEFI_FONCTION(NOM_PARA='Y',VALE=(-2.1,1.02E1,
                        3.3,0.98,
                        8.9,1.13E1,
                        ),PROL_DROITE='LINEAIRE',PROL_GAUCHE='LINEAIRE',);

FO7=DEFI_FONCTION(NOM_PARA='INST',VALE=(0.,-4.91,
                        11.2,-1.98,
                        ),PROL_DROITE='LINEAIRE',PROL_GAUCHE='LINEAIRE',);

FO8=DEFI_FONCTION(NOM_PARA='X',VALE=(-5.2,6.11,
                        8.5,6.04,
                        ),PROL_DROITE='CONSTANT',PROL_GAUCHE='CONSTANT',);

FO9=DEFI_FONCTION(NOM_PARA='Y',VALE=(-0.5,-6.05,
                        15.7,-5.88,
                        ),PROL_DROITE='CONSTANT',PROL_GAUCHE='LINEAIRE',);

FO10=DEFI_FONCTION(NOM_PARA='INST',VALE=(2.6,11.6,
                         19.2,15.2,
                         ),PROL_DROITE='CONSTANT',PROL_GAUCHE='LINEAIRE',);

FO11=DEFI_FONCTION(NOM_PARA='INST',VALE=(0.6,0.94,
                         37.3,1.02,
                         ),PROL_DROITE='CONSTANT',PROL_GAUCHE='LINEAIRE',);

FO12=DEFI_FONCTION(NOM_PARA='INST',VALE=(-5.4,0.91,
                         31.4,1.08,
                         ),PROL_DROITE='LINEAIRE',PROL_GAUCHE='LINEAIRE',);

FO13=DEFI_FONCTION(NOM_PARA='TEMP',VALE=(-1.1,2.15,
                         7.8,1.82,
                         22.4,2.41,
                         ),PROL_DROITE='LINEAIRE',PROL_GAUCHE='CONSTANT',);

FO14=DEFI_FONCTION(NOM_PARA='TEMP',VALE=(-8.1,0.19,
                         12.5,0.25,
                         25.7,0.34,
                         ),PROL_DROITE='LINEAIRE',PROL_GAUCHE='CONSTANT',);

FO15=DEFI_FONCTION(NOM_PARA='TEMP',VALE=(9.2,2.2,
                         11.4,1.7,
                         15.8,2.4,
                         ),PROL_DROITE='LINEAIRE',PROL_GAUCHE='CONSTANT',);

FO16=DEFI_FONCTION(NOM_PARA='TEMP',VALE=(8.4,5.15E1,
                         19.8,2.82E1,
                         21.4,4.74E1,
                         ),PROL_DROITE='LINEAIRE',PROL_GAUCHE='CONSTANT',);

FO17=DEFI_FONCTION(NOM_PARA='TEMP',VALE=(-12.5,5.2E1,
                         6.4,6.8E1,
                         11.2,3.7E1,
                         ),PROL_DROITE='LINEAIRE',PROL_GAUCHE='CONSTANT',);

# ----------------------------------------------------------------------
#    DEFINITION DES CARACTERISTIQUES ELEMENTAIRES : AXES LOCAUX
# ----------------------------------------------------------------------

CARA1=AFFE_CARA_ELEM(MODELE=MO,
                     MASSIF=(_F(GROUP_MA='TOUT',
                                ANGL_REP=21.4,),
                             _F(GROUP_MA=('GMA10','GMA11','GMA12',),
                                ANGL_REP=0.,),),);

# ----------------------------------------------------------------------
#    DEFINITION ET AFFECTATION DES MATERIAUX : COMPORTEMENTS ELASTIQUES
# ----------------------------------------------------------------------

MAT1=DEFI_MATERIAU(ELAS=_F(E=1.2,
                           NU=0.3,
                           RHO=7800.,
                           ALPHA=1.2,),
                   THER=_F(LAMBDA=0.8,
                           RHO_CP=1.4,),);

MAT2=DEFI_MATERIAU(ELAS_FO=_F(E=FO1,
                              NU=FO2,
                              RHO=7820.,
                              TEMP_DEF_ALPHA=6.9,
                              ALPHA=FO3,),
                   THER=_F(LAMBDA=0.9,
                           RHO_CP=1.2,),);

MAT3=DEFI_MATERIAU(ELAS_ISTR=_F(E_L=1.5,
                                E_N=0.4,
                                NU_LT=0.25,
                                NU_LN=0.4,
                                G_LN=3.1E1,
                                RHO=8500.,
                                ALPHA_L=2.1,
                                ALPHA_N=0.8,),
                   THER=_F(LAMBDA=1.9,
                           RHO_CP=2.2,),);

MAT4=DEFI_MATERIAU(ELAS_ISTR_FO=_F(E_L=FO1,
                                   E_N=FO13,
                                   NU_LT=FO2,
                                   NU_LN=FO14,
                                   G_LN=FO16,
                                   RHO=6700.,
                                   TEMP_DEF_ALPHA=11.7,
                                   ALPHA_L=FO3,
                                   ALPHA_N=FO15,),
                   THER=_F(LAMBDA=0.4,
                           RHO_CP=2.7,),);

MAT5=DEFI_MATERIAU(ELAS_ORTH=_F(E_L=1.6,
                                E_T=0.8,
                                E_N=2.8,
                                NU_LT=0.4,
                                NU_LN=0.3,
                                NU_TN=0.4,
                                G_LT=1.1E1,
                                G_LN=2.2E1,
                                G_TN=3.5E1,
                                RHO=6820.,
                                ALPHA_L=3.2,
                                ALPHA_T=1.9,
                                ALPHA_N=1.7,
                                XT=1.2,
                                XC=3.5,
                                YT=2.7,
                                YC=3.4,
                                S_LT=2.6,),
                   THER=_F(LAMBDA=1.9,
                           RHO_CP=3.2,),);

MAT6=DEFI_MATERIAU(ELAS_ORTH_FO=_F(E_L=FO1,
                                   E_T=FO13,
                                   E_N=FO1,
                                   NU_LT=FO2_NU,
                                   NU_LN=FO14,
                                   NU_TN=FO14,
                                   G_LT=FO16,
                                   G_LN=FO17,
                                   G_TN=FO16,
                                   RHO=5240.,
                                   TEMP_DEF_ALPHA=0.,
                                   ALPHA_L=FO3,
                                   ALPHA_T=FO15,
                                   ALPHA_N=FO15,),
                   THER=_F(LAMBDA=1.7,
                           RHO_CP=2.5,),);

CHMAT=AFFE_MATERIAU(MAILLAGE=MA,
                    AFFE=(_F(TOUT='OUI',
                             MATER=MAT1,),
                          _F(GROUP_MA='GMA0',
                             MATER=MAT2,),
                          _F(GROUP_MA='GMA9',
                             MATER=MAT3,),
                          _F(GROUP_MA='GMA10',
                             MATER=MAT4,),
                          _F(GROUP_MA='GMA11',
                             MATER=MAT5,),
                          _F(GROUP_MA='GMA12',
                             MATER=MAT6,),),);

# DANS CHAQUE GROUP_MA, TOUS LES TYPES DE MAILLES SONT REPRESENTES
# ----------------------------------------------------------------------
#    AFFECTATION DES CHARGEMENTS ET DES CONDITIONS LIMITES
# ----------------------------------------------------------------------

CHTHF=AFFE_CHAR_THER_F(MODELE=MOTH,
                       TEMP_IMPO=(_F(TOUT='OUI',
                                     TEMP=FO11,),
                                  _F(NOEUD=('N85','N109','N38','N143',),
                                     TEMP=FO10,),),);

THLIN=THER_LINEAIRE(MODELE=MOTH,
                    CHAM_MATER=CHMAT,
                    CARA_ELEM=CARA1,
                    EXCIT=_F(CHARGE=CHTHF,),
                    INCREMENT=_F(LIST_INST=LR1,),);

ENGENDRE_TEST(CO=THLIN,);

TEST_RESU(RESU=(_F(RESULTAT=THLIN,
                   NUME_ORDRE=0,
                   NOM_CHAM='TEMP',
                   TYPE_TEST='SOMM_ABS',
                   VALE=  5.1652282996734E+02       ,
                   PRECISION=1.E-9,
                   REFERENCE='NON_REGRESSION',
                   VERSION='6.0.24',),
                _F(RESULTAT=THLIN,
                   NUME_ORDRE=1,
                   NOM_CHAM='TEMP',
                   TYPE_TEST='SOMM_ABS',
                   VALE=  5.4588432586839E+02       ,
                   PRECISION=1.E-9,
                   REFERENCE='NON_REGRESSION',
                   VERSION='6.0.24',),
                _F(RESULTAT=THLIN,
                   NUME_ORDRE=2,
                   NOM_CHAM='TEMP',
                   TYPE_TEST='SOMM_ABS',
                   VALE=  5.9081392200917E+02       ,
                   PRECISION=1.E-9,
                   REFERENCE='NON_REGRESSION',
                   VERSION='6.0.24',),),);

CHMAT2=AFFE_MATERIAU(MAILLAGE=MA,
                     AFFE=(_F(TOUT='OUI',
                              MATER=MAT1,),
                           _F(GROUP_MA='GMA0',
                              MATER=MAT2,),
                           _F(GROUP_MA='GMA9',
                              MATER=MAT3,),
                           _F(GROUP_MA='GMA10',
                              MATER=MAT4,),
                           _F(GROUP_MA='GMA11',
                              MATER=MAT5,),
                           _F(GROUP_MA='GMA12',
                              MATER=MAT6,),),
                     AFFE_VARC=(_F(TOUT='OUI',
                                   NOM_VARC='TEMP',
                                   EVOL=THLIN,
                                   VALE_REF=4.8,),
                                _F(GROUP_MA='GMA0',
                                   NOM_VARC='TEMP',
                                   EVOL=THLIN,
                                   VALE_REF=6.9,),
                                _F(GROUP_MA='GMA9',
                                   NOM_VARC='TEMP',
                                   EVOL=THLIN,
                                   VALE_REF=0.,),
                                _F(GROUP_MA='GMA10',
                                   NOM_VARC='TEMP',
                                   EVOL=THLIN,
                                   VALE_REF=11.7,),
                                _F(GROUP_MA='GMA11',
                                   NOM_VARC='TEMP',
                                   EVOL=THLIN,
                                   VALE_REF=0.,),
                                _F(GROUP_MA='GMA12',
                                   NOM_VARC='TEMP',
                                   EVOL=THLIN,
                                   VALE_REF=0.,),),);

CHMEC=AFFE_CHAR_MECA(VERI_NORM='NON',
                     MODELE=MO,
                     PESANTEUR=_F(GRAVITE=9.8,
                                  DIRECTION=(0.3,0.1,-0.4,),),
                     ROTATION=_F(VITESSE=0.069631062,
                                 AXE=(0.,0.,1.,),),
                     DDL_IMPO=_F(NOEUD='N130',
                                 DY=7.1,),
                     FACE_IMPO=_F(MAILLE='M101',
                                  DNOR=-6.07,),
                     LIAISON_DDL=_F(NOEUD=('N97','N97',),
                                    DDL=('DY','DX',),
                                    COEF_MULT=(1.3,1.1,),
                                    COEF_IMPO=6.1,),
                     LIAISON_OBLIQUE=_F(NOEUD='N76',
                                        ANGL_NAUT=(18.7,35.1,),
                                        DX=5.95,),
                     LIAISON_GROUP=_F(MAILLE_1='M87',
                                      GROUP_MA_2='GMA6',
                                      DDL_1='DX',
                                      COEF_MULT_1=1.8,
                                      DDL_2='DY',
                                      COEF_MULT_2=0.7,
                                      COEF_IMPO=-5.22,
                                      SOMMET='OUI',
                                      TRAN=(1.6,1.1,),),
                     LIAISON_SOLIDE=(_F(MAILLE=('M31','M135',),
                                        NUME_LAGR='NORMAL',),
                                     _F(NOEUD=('N37','N195',),
                                        NUME_LAGR='NORMAL',),),
                     LIAISON_UNIF=_F(MAILLE='M24',
                                     DDL=('DX','DY',),),
                     FORCE_NODALE=_F(NOEUD='N30',
                                     FX=0.86,
                                     FY=0.98,
                                     ANGL_NAUT=(25.8,7.1,29.3,),),
                     FORCE_CONTOUR=_F(MAILLE='M126',
                                      FX=2.01E1,
                                      FY=1.05E1,),
                     FORCE_INTERNE=_F(MAILLE=('M42','M77',),
                                      FX=0.84,),
                     PRES_REP=_F(MAILLE='M120',
                                 PRES=-1.07E1,),
                     PRE_EPSI=_F(MAILLE='M67',
                                  EPXX=2.2,),);

CHMECF=AFFE_CHAR_MECA_F(VERI_NORM='NON',
                        MODELE=MO,
                        DDL_IMPO=_F(GROUP_NO='GNO1',
                                    DY=FO7,),
                        FACE_IMPO=_F(GROUP_MA='GMA3',
                                     DX=FO9,),
                        LIAISON_DDL=_F(GROUP_NO='GNO2',
                                       DDL=('DX','DY',),
                                       COEF_MULT=(2.5,-1.3,),
                                       COEF_IMPO=FO9,),
                        LIAISON_OBLIQUE=_F(GROUP_NO='GNO3',
                                           ANGL_NAUT=(-25.4,2.7,18.9,),
                                           DX=FO9,),
                        LIAISON_GROUP=_F(NOEUD_1=('N145','N168',),
                                         GROUP_NO_2='GNO4',
                                         SANS_NOEUD='N168',
                                         DDL_1=('DY','DX',),
                                         COEF_MULT_1=(1.1,-3.7,),
                                         DDL_2='DX',
                                         COEF_MULT_2=2.8,
                                         COEF_IMPO=FO8,
                                         TRAN=(-0.2,-3.1,),),
                        LIAISON_UNIF=_F(GROUP_MA='GMA7',
                                        DDL='DY',),
                        FORCE_NODALE=_F(GROUP_NO='GNO6',
                                        FY=FO6,),
                        FORCE_CONTOUR=_F(GROUP_MA='GMA4',
                                         FX=FO6,),
                        FORCE_INTERNE=_F(GROUP_MA='GMA1',
                                         FY=FO4,),
                        PRES_REP=_F(GROUP_MA='GMA5',
                                    CISA_2D=FO6,),
                        PRE_EPSI=_F(GROUP_MA='GMA2',
                                     EPYY=FO7,),);

CHCI=AFFE_CHAR_CINE(MODELE=MO,
                    MECA_IMPO=_F(NOEUD='N199',
                                 DY=0.0,),);

CHCIF=AFFE_CHAR_CINE_F(MODELE=MO,
                       MECA_IMPO=_F(GROUP_NO='GNO7',
                                    DX=FO7,
                                    DY=FO9,),);

# ----------------------------------------------------------------------
#   COMMANDES GLOBALES DE MECANIQUE : STATIQUE LINEAIRE
# ----------------------------------------------------------------------

MSLIN=MECA_STATIQUE(MODELE=MO,
                    CHAM_MATER=CHMAT2,
                    CARA_ELEM=CARA1,
                    EXCIT=_F(CHARGE=CHMEC,
                             FONC_MULT=FO11,),
                    LIST_INST=LR1,);

MSLIN=CALC_CHAMP(reuse=MSLIN,
                 RESULTAT=MSLIN,
                 LIST_INST=LR1,
                 CRITERES=('SIEQ_ELNO','SIEQ_ELGA','EPEQ_ELNO','EPEQ_ELGA'),
                 DEFORMATION=('EPME_ELGA','EPME_ELNO','EPSI_ELGA','EPSI_ELNO'),
                 ENERGIE=('EPOT_ELEM'),
                 CONTRAINTE=('SIGM_ELNO'),);

ENGENDRE_TEST(CO=MSLIN,);

TEST_RESU(RESU=(_F(RESULTAT=MSLIN,
                   NUME_ORDRE=1,
                   NOM_CHAM='DEPL',
                   TYPE_TEST='SOMM_ABS',
                   VALE=  1.8894468260399E+09       ,
                   PRECISION=1.E-9,
                   REFERENCE='NON_REGRESSION',),
                _F(RESULTAT=MSLIN,
                   NUME_ORDRE=2,
                   NOM_CHAM='DEPL',
                   TYPE_TEST='SOMM_ABS',
                   VALE=  1.9158841577891E+09       ,
                   PRECISION=1.E-9,
                   REFERENCE='NON_REGRESSION',),
                _F(RESULTAT=MSLIN,
                   NUME_ORDRE=3,
                   NOM_CHAM='DEPL',
                   TYPE_TEST='SOMM_ABS',
                   VALE=  1.9423314342605E+09       ,
                   PRECISION=1.E-9,
                   REFERENCE='NON_REGRESSION',),
                _F(RESULTAT=MSLIN,
                   NUME_ORDRE=1,
                   NOM_CHAM='EPSI_ELGA',
                   TYPE_TEST='SOMM_ABS',
                   VALE=  1.4183147003121E+08       ,
                   PRECISION=1.E-9,
                   REFERENCE='NON_REGRESSION',),
                _F(RESULTAT=MSLIN,
                   NUME_ORDRE=2,
                   NOM_CHAM='EPSI_ELGA',
                   TYPE_TEST='SOMM_ABS',
                   VALE=  1.4381493856822E+08       ,
                   PRECISION=1.E-9,
                   REFERENCE='NON_REGRESSION',),
                _F(RESULTAT=MSLIN,
                   NUME_ORDRE=3,
                   NOM_CHAM='EPSI_ELGA',
                   TYPE_TEST='SOMM_ABS',
                   VALE=  1.4579879217616E+08       ,
                   PRECISION=1.E-9,
                   REFERENCE='NON_REGRESSION',),
                _F(RESULTAT=MSLIN,
                   NUME_ORDRE=1,
                   NOM_CHAM='EPSI_ELNO',
                   TYPE_TEST='SOMM_ABS',
                   VALE=  2.8813041499389E+08       ,
                   PRECISION=1.E-9,
                   REFERENCE='NON_REGRESSION',),
                _F(RESULTAT=MSLIN,
                   NUME_ORDRE=2,
                   NOM_CHAM='EPSI_ELNO',
                   TYPE_TEST='SOMM_ABS',
                   VALE=  2.9215884192338E+08       ,
                   PRECISION=1.E-9,
                   REFERENCE='NON_REGRESSION',),
                _F(RESULTAT=MSLIN,
                   NUME_ORDRE=3,
                   NOM_CHAM='EPSI_ELNO',
                   TYPE_TEST='SOMM_ABS',
                   VALE=  2.9618847299728E+08       ,
                   PRECISION=1.E-9,
                   REFERENCE='NON_REGRESSION',),
                _F(RESULTAT=MSLIN,
                   NUME_ORDRE=1,
                   NOM_CHAM='SIEF_ELGA',
                   TYPE_TEST='SOMM_ABS',
                   VALE=  2.8471845947365E+08       ,
                   PRECISION=1.E-9,
                   REFERENCE='NON_REGRESSION',),
                _F(RESULTAT=MSLIN,
                   NUME_ORDRE=2,
                   NOM_CHAM='SIEF_ELGA',
                   TYPE_TEST='SOMM_ABS',
                   VALE=  2.8870722924315E+08       ,
                   PRECISION=1.E-9,
                   REFERENCE='NON_REGRESSION',),
                _F(RESULTAT=MSLIN,
                   NUME_ORDRE=3,
                   NOM_CHAM='SIEF_ELGA',
                   TYPE_TEST='SOMM_ABS',
                   VALE=  2.9269529213115E+08       ,
                   PRECISION=1.E-9,
                   REFERENCE='NON_REGRESSION',),
                _F(RESULTAT=MSLIN,
                   NUME_ORDRE=1,
                   NOM_CHAM='SIGM_ELNO',
                   TYPE_TEST='SOMM_ABS',
                   VALE=  5.3264831608748E+08       ,
                   PRECISION=1.E-9,
                   REFERENCE='NON_REGRESSION',),
                _F(RESULTAT=MSLIN,
                   NUME_ORDRE=2,
                   NOM_CHAM='SIGM_ELNO',
                   TYPE_TEST='SOMM_ABS',
                   VALE=  5.4009087540825E+08       ,
                   PRECISION=1.E-9,
                   REFERENCE='NON_REGRESSION',),
                _F(RESULTAT=MSLIN,
                   NUME_ORDRE=3,
                   NOM_CHAM='SIGM_ELNO',
                   TYPE_TEST='SOMM_ABS',
                   VALE=  5.4753044383755E+08       ,
                   PRECISION=1.E-9,
                   REFERENCE='NON_REGRESSION',),
                _F(RESULTAT=MSLIN,
                   NUME_ORDRE=1,
                   NOM_CHAM='SIEQ_ELGA',
                   TYPE_TEST='SOMM_ABS',
                   VALE=  1.028318740288E+09        ,
                   PRECISION=1.E-9,
                   REFERENCE='NON_REGRESSION',),
                _F(RESULTAT=MSLIN,
                   NUME_ORDRE=2,
                   NOM_CHAM='SIEQ_ELGA',
                   TYPE_TEST='SOMM_ABS',
                   VALE=  1.0427900318577E+09       ,
                   PRECISION=1.E-9,
                   REFERENCE='NON_REGRESSION',),
                _F(RESULTAT=MSLIN,
                   NUME_ORDRE=3,
                   NOM_CHAM='SIEQ_ELGA',
                   TYPE_TEST='SOMM_ABS',
                   VALE=  1.0572638448791E+09       ,
                   PRECISION=1.E-9,
                   REFERENCE='NON_REGRESSION',),
                _F(RESULTAT=MSLIN,
                   NUME_ORDRE=1,
                   NOM_CHAM='SIEQ_ELNO',
                   TYPE_TEST='SOMM_ABS',
                   VALE=  1.5076212644326E+09        ,
                   PRECISION=1.E-9,
                   REFERENCE='NON_REGRESSION',),
                _F(RESULTAT=MSLIN,
                   NUME_ORDRE=2,
                   NOM_CHAM='SIEQ_ELNO',
                   TYPE_TEST='SOMM_ABS',
                   VALE=  1.5286949828457E+09       ,
                   PRECISION=1.E-9,
                   REFERENCE='NON_REGRESSION',),
                _F(RESULTAT=MSLIN,
                   NUME_ORDRE=3,
                   NOM_CHAM='SIEQ_ELNO',
                   TYPE_TEST='SOMM_ABS',
                   VALE=  1.5497690915235E+09       ,
                   PRECISION=1.E-9,
                   REFERENCE='NON_REGRESSION',),
                _F(RESULTAT=MSLIN,
                   NUME_ORDRE=1,
                   NOM_CHAM='EPEQ_ELGA',
                   TYPE_TEST='SOMM_ABS',
                   VALE=  3.0607169028167E+08       ,
                   PRECISION=1.E-9,
                   REFERENCE='NON_REGRESSION',),
                _F(RESULTAT=MSLIN,
                   NUME_ORDRE=2,
                   NOM_CHAM='EPEQ_ELGA',
                   TYPE_TEST='SOMM_ABS',
                   VALE=  3.1034548958657E+08       ,
                   PRECISION=1.E-9,
                   REFERENCE='NON_REGRESSION',),
                _F(RESULTAT=MSLIN,
                   NUME_ORDRE=3,
                   NOM_CHAM='EPEQ_ELGA',
                   TYPE_TEST='SOMM_ABS',
                   VALE=  3.1461994644622E+08       ,
                   PRECISION=1.E-9,
                   REFERENCE='NON_REGRESSION',),
                _F(RESULTAT=MSLIN,
                   NUME_ORDRE=1,
                   NOM_CHAM='EPEQ_ELNO',
                   TYPE_TEST='SOMM_ABS',
                   VALE=  6.2227671134956E+08       ,
                   PRECISION=1.E-9,
                   REFERENCE='NON_REGRESSION',),
                _F(RESULTAT=MSLIN,
                   NUME_ORDRE=2,
                   NOM_CHAM='EPEQ_ELNO',
                   TYPE_TEST='SOMM_ABS',
                   VALE=  6.3096478940494E+08       ,
                   PRECISION=1.E-9,
                   REFERENCE='NON_REGRESSION',),
                _F(RESULTAT=MSLIN,
                   NUME_ORDRE=3,
                   NOM_CHAM='EPEQ_ELNO',
                   TYPE_TEST='SOMM_ABS',
                   VALE=  6.3965443789003E+08       ,
                   PRECISION=1.E-9,
                   REFERENCE='NON_REGRESSION',),
                _F(RESULTAT=MSLIN,
                   NUME_ORDRE=1,
                   NOM_CHAM='EPOT_ELEM',
                   TYPE_TEST='SOMM_ABS',
                   VALE=  1.0612926694484E+13       ,
                   PRECISION=1.E-9,
                   REFERENCE='NON_REGRESSION',),
                _F(RESULTAT=MSLIN,
                   NUME_ORDRE=2,
                   NOM_CHAM='EPOT_ELEM',
                   TYPE_TEST='SOMM_ABS',
                   VALE=  1.0911611073532E+13       ,
                   PRECISION=1.E-9,
                   REFERENCE='NON_REGRESSION',),
                _F(RESULTAT=MSLIN,
                   NUME_ORDRE=3,
                   NOM_CHAM='EPOT_ELEM',
                   TYPE_TEST='SOMM_ABS',
                   VALE=  1.1214499201533E+13       ,
                   PRECISION=1.E-9,
                   REFERENCE='NON_REGRESSION',),
                _F(RESULTAT=MSLIN,
                   NUME_ORDRE=1,
                   NOM_CHAM='EPME_ELNO',
                   TYPE_TEST='SOMM_ABS',
                   VALE=  2.8813080952131E+08       ,
                   PRECISION=1.E-9,
                   REFERENCE='NON_REGRESSION',),
                _F(RESULTAT=MSLIN,
                   NUME_ORDRE=2,
                   NOM_CHAM='EPME_ELNO',
                   TYPE_TEST='SOMM_ABS',
                   VALE=  2.9215923056524E+08       ,
                   PRECISION=1.E-9,
                   REFERENCE='NON_REGRESSION',),
                _F(RESULTAT=MSLIN,
                   NUME_ORDRE=3,
                   NOM_CHAM='EPME_ELNO',
                   TYPE_TEST='SOMM_ABS',
                   VALE=  2.9618886176677E+08       ,
                   PRECISION=1.E-9,
                   REFERENCE='NON_REGRESSION',),
                _F(RESULTAT=MSLIN,
                   NUME_ORDRE=1,
                   NOM_CHAM='EPME_ELGA',
                   TYPE_TEST='SOMM_ABS',
                   VALE=  1.418317888797E+08        ,
                   PRECISION=1.E-9,
                   REFERENCE='NON_REGRESSION',),
                _F(RESULTAT=MSLIN,
                   NUME_ORDRE=2,
                   NOM_CHAM='EPME_ELGA',
                   TYPE_TEST='SOMM_ABS',
                   VALE=  1.4381525684954E+08       ,
                   PRECISION=1.E-9,
                   REFERENCE='NON_REGRESSION',),
                _F(RESULTAT=MSLIN,
                   NUME_ORDRE=3,
                   NOM_CHAM='EPME_ELGA',
                   TYPE_TEST='SOMM_ABS',
                   VALE=  1.4579910989487E+08       ,
                   PRECISION=1.E-9,
                   REFERENCE='NON_REGRESSION',),),);

MSLI2=MECA_STATIQUE(MODELE=MO,
                    CHAM_MATER=CHMAT2,
                    CARA_ELEM=CARA1,
                    EXCIT=(_F(CHARGE=CHCI,
                              FONC_MULT=FO12,),
                           _F(CHARGE=CHMECF,
                              FONC_MULT=FO12,),
                           _F(CHARGE=CHCIF,
                              FONC_MULT=FO11,),),
                    LIST_INST=LR1,);

# ----------------------------------------------------------------------
#   POST_TRAITEMENT DU CALCUL
# ----------------------------------------------------------------------

MSLI2=CALC_CHAMP(reuse=MSLI2,
                 RESULTAT=MSLI2,
                 NUME_ORDRE=(1,2,3),
                 CRITERES=('SIEQ_ELNO','SIEQ_ELGA','EPEQ_ELNO','EPEQ_ELGA'),
                 DEFORMATION=('EPME_ELGA','EPME_ELNO','EPSG_ELGA','EPSG_ELNO','EPSI_ELGA','EPSI_ELNO'),
                 ENERGIE=('EPOT_ELEM'),
                 CONTRAINTE=('SIGM_ELNO'),);

MSLI2=CALC_CHAMP(reuse =MSLI2,
              RESULTAT=MSLI2,
              INST=11.5,
              CRITERE='ABSOLU',
              PRECISION=0.001,
              DEFORMATION='EPSI_NOEU',
              CRITERES=('SIEQ_NOEU','EPEQ_NOEU'),
              CONTRAINTE='SIGM_NOEU');

ENGENDRE_TEST(CO=MSLI2,);

TEST_RESU(RESU=(_F(RESULTAT=MSLI2,
                   NUME_ORDRE=1,
                   NOM_CHAM='DEPL',
                   TYPE_TEST='SOMM_ABS',
                   VALE=  8.0168367495024E+03       ,
                   PRECISION=1.E-9,
                   REFERENCE='NON_REGRESSION',),
                _F(RESULTAT=MSLI2,
                   NUME_ORDRE=2,
                   NOM_CHAM='DEPL',
                   TYPE_TEST='SOMM_ABS',
                   VALE=  8.1997558052814E+03       ,
                   PRECISION=1.E-9,
                   REFERENCE='NON_REGRESSION',),
                _F(RESULTAT=MSLI2,
                   NUME_ORDRE=3,
                   NOM_CHAM='DEPL',
                   TYPE_TEST='SOMM_ABS',
                   VALE=  8.3864533281808E+03       ,
                   PRECISION=1.E-9,
                   REFERENCE='NON_REGRESSION',),
                _F(RESULTAT=MSLI2,
                   NUME_ORDRE=1,
                   NOM_CHAM='EPSI_ELGA',
                   TYPE_TEST='SOMM_ABS',
                   VALE=  5.149236619514E+03        ,
                   PRECISION=1.E-9,
                   REFERENCE='NON_REGRESSION',),
                _F(RESULTAT=MSLI2,
                   NUME_ORDRE=2,
                   NOM_CHAM='EPSI_ELGA',
                   TYPE_TEST='SOMM_ABS',
                   VALE=  5.1625443043712E+03       ,
                   PRECISION=1.E-9,
                   REFERENCE='NON_REGRESSION',),
                _F(RESULTAT=MSLI2,
                   NUME_ORDRE=3,
                   NOM_CHAM='EPSI_ELGA',
                   TYPE_TEST='SOMM_ABS',
                   VALE=  5.1869191443498E+03       ,
                   PRECISION=1.E-9,
                   REFERENCE='NON_REGRESSION',),
                _F(RESULTAT=MSLI2,
                   NUME_ORDRE=1,
                   NOM_CHAM='EPSI_ELNO',
                   TYPE_TEST='SOMM_ABS',
                   VALE=  9.0149860146281E+03       ,
                   PRECISION=1.E-9,
                   REFERENCE='NON_REGRESSION',),
                _F(RESULTAT=MSLI2,
                   NUME_ORDRE=2,
                   NOM_CHAM='EPSI_ELNO',
                   TYPE_TEST='SOMM_ABS',
                   VALE=  9.0255096622423E+03       ,
                   PRECISION=1.E-9,
                   REFERENCE='NON_REGRESSION',),
                _F(RESULTAT=MSLI2,
                   NUME_ORDRE=3,
                   NOM_CHAM='EPSI_ELNO',
                   TYPE_TEST='SOMM_ABS',
                   VALE=  9.0537502256884E+03       ,
                   PRECISION=1.E-9,
                   REFERENCE='NON_REGRESSION',),
                _F(RESULTAT=MSLI2,
                   NUME_ORDRE=3,
                   NOM_CHAM='EPSI_NOEU',
                   TYPE_TEST='SOMM_ABS',
                   VALE=  3.2945618148263E+03       ,
                   PRECISION=1.E-9,
                   REFERENCE='NON_REGRESSION',),
                _F(RESULTAT=MSLI2,
                   NUME_ORDRE=1,
                   NOM_CHAM='SIEF_ELGA',
                   TYPE_TEST='SOMM_ABS',
                   VALE=  1.0934327642679E+04       ,
                   PRECISION=1.E-9,
                   REFERENCE='NON_REGRESSION',),
                _F(RESULTAT=MSLI2,
                   NUME_ORDRE=2,
                   NOM_CHAM='SIEF_ELGA',
                   TYPE_TEST='SOMM_ABS',
                   VALE=  1.0985734998854E+04       ,
                   PRECISION=1.E-9,
                   REFERENCE='NON_REGRESSION',),
                _F(RESULTAT=MSLI2,
                   NUME_ORDRE=3,
                   NOM_CHAM='SIEF_ELGA',
                   TYPE_TEST='SOMM_ABS',
                   VALE=  1.1041388530579E+04       ,
                   PRECISION=1.E-9,
                   REFERENCE='NON_REGRESSION',),
                _F(RESULTAT=MSLI2,
                   NUME_ORDRE=1,
                   NOM_CHAM='SIGM_ELNO',
                   TYPE_TEST='SOMM_ABS',
                   VALE=  1.8230374155461E+04       ,
                   PRECISION=1.E-9,
                   REFERENCE='NON_REGRESSION',),
                _F(RESULTAT=MSLI2,
                   NUME_ORDRE=2,
                   NOM_CHAM='SIGM_ELNO',
                   TYPE_TEST='SOMM_ABS',
                   VALE=  1.8239819736151E+04       ,
                   PRECISION=1.E-9,
                   REFERENCE='NON_REGRESSION',),
                _F(RESULTAT=MSLI2,
                   NUME_ORDRE=3,
                   NOM_CHAM='SIGM_ELNO',
                   TYPE_TEST='SOMM_ABS',
                   VALE=  1.827683890314E+04        ,
                   PRECISION=1.E-9,
                   REFERENCE='NON_REGRESSION',),
                _F(RESULTAT=MSLI2,
                   NUME_ORDRE=3,
                   NOM_CHAM='SIGM_NOEU',
                   TYPE_TEST='SOMM_ABS',
                   VALE=  5.2107501091348E+03       ,
                   PRECISION=1.E-9,
                   REFERENCE='NON_REGRESSION',),
                _F(RESULTAT=MSLI2,
                   NUME_ORDRE=1,
                   NOM_CHAM='SIEQ_ELGA',
                   TYPE_TEST='SOMM_ABS',
                   VALE=  3.8898987631312E+04       ,
                   PRECISION=1.E-9,
                   REFERENCE='NON_REGRESSION',),
                _F(RESULTAT=MSLI2,
                   NUME_ORDRE=2,
                   NOM_CHAM='SIEQ_ELGA',
                   TYPE_TEST='SOMM_ABS',
                   VALE=  3.9167643495831E+04       ,
                   PRECISION=1.E-9,
                   REFERENCE='NON_REGRESSION',),
                _F(RESULTAT=MSLI2,
                   NUME_ORDRE=3,
                   NOM_CHAM='SIEQ_ELGA',
                   TYPE_TEST='SOMM_ABS',
                   VALE=  3.9482506721264E+04       ,
                   PRECISION=1.E-9,
                   REFERENCE='NON_REGRESSION',),
                _F(RESULTAT=MSLI2,
                   NUME_ORDRE=1,
                   NOM_CHAM='SIEQ_ELNO',
                   TYPE_TEST='SOMM_ABS',
                   VALE=  4.8254437941858E+04       ,
                   PRECISION=1.E-9,
                   REFERENCE='NON_REGRESSION',),
                _F(RESULTAT=MSLI2,
                   NUME_ORDRE=2,
                   NOM_CHAM='SIEQ_ELNO',
                   TYPE_TEST='SOMM_ABS',
                   VALE=  4.8326415284457E+04       ,
                   PRECISION=1.E-9,
                   REFERENCE='NON_REGRESSION',),
                _F(RESULTAT=MSLI2,
                   NUME_ORDRE=3,
                   NOM_CHAM='SIEQ_ELNO',
                   TYPE_TEST='SOMM_ABS',
                   VALE=  4.8497021263857E+04       ,
                   PRECISION=1.E-9,
                   REFERENCE='NON_REGRESSION',),
                _F(RESULTAT=MSLI2,
                   NUME_ORDRE=3,
                   NOM_CHAM='SIEQ_NOEU',
                   TYPE_TEST='SOMM_ABS',
                   VALE=  1.6430583850909E+04       ,
                   PRECISION=1.E-9,
                   REFERENCE='NON_REGRESSION',),
                _F(RESULTAT=MSLI2,
                   NUME_ORDRE=1,
                   NOM_CHAM='EPEQ_ELGA',
                   TYPE_TEST='SOMM_ABS',
                   VALE=  1.0362996925341E+04       ,
                   PRECISION=1.E-9,
                   REFERENCE='NON_REGRESSION',),
                _F(RESULTAT=MSLI2,
                   NUME_ORDRE=2,
                   NOM_CHAM='EPEQ_ELGA',
                   TYPE_TEST='SOMM_ABS',
                   VALE=  1.0422586773994E+04       ,
                   PRECISION=1.E-9,
                   REFERENCE='NON_REGRESSION',),
                _F(RESULTAT=MSLI2,
                   NUME_ORDRE=3,
                   NOM_CHAM='EPEQ_ELGA',
                   TYPE_TEST='SOMM_ABS',
                   VALE=  1.0502168976036E+04       ,
                   PRECISION=1.E-9,
                   REFERENCE='NON_REGRESSION',),
                _F(RESULTAT=MSLI2,
                   NUME_ORDRE=1,
                   NOM_CHAM='EPEQ_ELNO',
                   TYPE_TEST='SOMM_ABS',
                   VALE=  1.652486598082E+04       ,
                   PRECISION=1.E-9,
                   REFERENCE='NON_REGRESSION',),
                _F(RESULTAT=MSLI2,
                   NUME_ORDRE=2,
                   NOM_CHAM='EPEQ_ELNO',
                   TYPE_TEST='SOMM_ABS',
                   VALE=  1.6582735866428E+04       ,
                   PRECISION=1.E-9,
                   REFERENCE='NON_REGRESSION',),
                _F(RESULTAT=MSLI2,
                   NUME_ORDRE=3,
                   NOM_CHAM='EPEQ_ELNO',
                   TYPE_TEST='SOMM_ABS',
                   VALE=  1.6678486381497E+04       ,
                   PRECISION=1.E-9,
                   REFERENCE='NON_REGRESSION',),
                _F(RESULTAT=MSLI2,
                   NUME_ORDRE=3,
                   NOM_CHAM='EPEQ_NOEU',
                   TYPE_TEST='SOMM_ABS',
                   VALE=  6.5234704590594E+03       ,
                   PRECISION=1.E-9,
                   REFERENCE='NON_REGRESSION',),
                _F(RESULTAT=MSLI2,
                   NUME_ORDRE=1,
                   NOM_CHAM='EPOT_ELEM',
                   TYPE_TEST='SOMM_ABS',
                   VALE=  7.2048156978475E+03       ,
                   PRECISION=1.E-9,
                   REFERENCE='NON_REGRESSION',),
                _F(RESULTAT=MSLI2,
                   NUME_ORDRE=2,
                   NOM_CHAM='EPOT_ELEM',
                   TYPE_TEST='SOMM_ABS',
                   VALE=  7.2350903974636E+03       ,
                   PRECISION=1.E-9,
                   REFERENCE='NON_REGRESSION',),
                _F(RESULTAT=MSLI2,
                   NUME_ORDRE=3,
                   NOM_CHAM='EPOT_ELEM',
                   TYPE_TEST='SOMM_ABS',
                   VALE=  7.2892767973711E+03       ,
                   PRECISION=1.E-9,
                   REFERENCE='NON_REGRESSION',),
                _F(RESULTAT=MSLI2,
                   NUME_ORDRE=1,
                   NOM_CHAM='EPSG_ELGA',
                   TYPE_TEST='SOMM_ABS',
                   VALE=  3.2174215737048E+05       ,
                   PRECISION=1.E-9,
                   REFERENCE='NON_REGRESSION',),
                _F(RESULTAT=MSLI2,
                   NUME_ORDRE=2,
                   NOM_CHAM='EPSG_ELGA',
                   TYPE_TEST='SOMM_ABS',
                   VALE=  3.3708250980105E+05       ,
                   PRECISION=1.E-9,
                   REFERENCE='NON_REGRESSION',),
                _F(RESULTAT=MSLI2,
                   NUME_ORDRE=3,
                   NOM_CHAM='EPSG_ELGA',
                   TYPE_TEST='SOMM_ABS',
                   VALE=  3.5265998668483E+05       ,
                   PRECISION=1.E-9,
                   REFERENCE='NON_REGRESSION',),
                _F(RESULTAT=MSLI2,
                   NUME_ORDRE=1,
                   NOM_CHAM='EPSG_ELNO',
                   TYPE_TEST='SOMM_ABS',
                   VALE=  3.6235093912526E+05       ,
                   PRECISION=1.E-9,
                   REFERENCE='NON_REGRESSION',),
                _F(RESULTAT=MSLI2,
                   NUME_ORDRE=2,
                   NOM_CHAM='EPSG_ELNO',
                   TYPE_TEST='SOMM_ABS',
                   VALE=  3.7825628361208E+05       ,
                   PRECISION=1.E-9,
                   REFERENCE='NON_REGRESSION',),
                _F(RESULTAT=MSLI2,
                   NUME_ORDRE=3,
                   NOM_CHAM='EPSG_ELNO',
                   TYPE_TEST='SOMM_ABS',
                   VALE=  3.9456642030753E+05       ,
                   PRECISION=1.E-9,
                   REFERENCE='NON_REGRESSION',),
                _F(RESULTAT=MSLI2,
                   NUME_ORDRE=1,
                   NOM_CHAM='EPME_ELNO',
                   TYPE_TEST='SOMM_ABS',
                   VALE=  6.2173336090542E+03       ,
                   PRECISION=1.E-9,
                   REFERENCE='NON_REGRESSION',),
                _F(RESULTAT=MSLI2,
                   NUME_ORDRE=2,
                   NOM_CHAM='EPME_ELNO',
                   TYPE_TEST='SOMM_ABS',
                   VALE=  6.2273375962671E+03       ,
                   PRECISION=1.E-9,
                   REFERENCE='NON_REGRESSION',),
                _F(RESULTAT=MSLI2,
                   NUME_ORDRE=3,
                   NOM_CHAM='EPME_ELNO',
                   TYPE_TEST='SOMM_ABS',
                   VALE=  6.2540849427821E+03       ,
                   PRECISION=1.E-9,
                   REFERENCE='NON_REGRESSION',),
                _F(RESULTAT=MSLI2,
                   NUME_ORDRE=1,
                   NOM_CHAM='EPME_ELGA',
                   TYPE_TEST='SOMM_ABS',
                   VALE=  3.5127921535402E+03       ,
                   PRECISION=1.E-9,
                   REFERENCE='NON_REGRESSION',),
                _F(RESULTAT=MSLI2,
                   NUME_ORDRE=2,
                   NOM_CHAM='EPME_ELGA',
                   TYPE_TEST='SOMM_ABS',
                   VALE=  3.5365990312401E+03       ,
                   PRECISION=1.E-9,
                   REFERENCE='NON_REGRESSION',),
                _F(RESULTAT=MSLI2,
                   NUME_ORDRE=3,
                   NOM_CHAM='EPME_ELGA',
                   TYPE_TEST='SOMM_ABS',
                   VALE=  3.5735526577073E+03       ,
                   PRECISION=1.E-9,
                   REFERENCE='NON_REGRESSION',),),);

# ----------------------------------------------------------------------

CHAMNO1=CREA_CHAMP(TYPE_CHAM='NOEU_DEPL_R',
                   OPERATION='EXTR',
                   RESULTAT=MSLI2,
                   NOM_CHAM='DEPL',
                   INST=0.7,
                   INTERPOL='LIN',);

CHAMNO2=CREA_CHAMP(TYPE_CHAM='NOEU_DEPL_R',
                   OPERATION='EXTR',
                   RESULTAT=MSLI2,
                   NOM_CHAM='DEPL',
                   TYPE_MAXI='NORM_TRAN',
                   TYPE_RESU='INST',
                   LIST_INST=LR1,);

CHAMEL1=CREA_CHAMP(TYPE_CHAM='ELGA_SIEF_R',
                   OPERATION='EXTR',
                   RESULTAT=MSLI2,
                   NOM_CHAM='SIEF_ELGA',
                   INST=1.8,
                   INTERPOL='LIN',);

CHAMEL2=CREA_CHAMP(TYPE_CHAM='ELGA_EPSI_R',
                   OPERATION='EXTR',
                   RESULTAT=MSLI2,
                   NOM_CHAM='EPSI_ELGA',
                   INST=1.8,
                   INTERPOL='LIN',);

CHAMEL3=CREA_CHAMP(TYPE_CHAM='ELNO_SIEF_R',
                   OPERATION='EXTR',
                   RESULTAT=MSLI2,
                   NOM_CHAM='SIGM_ELNO',
                   INST=1.8,
                   INTERPOL='LIN',);

CHAMEL4=CREA_CHAMP(TYPE_CHAM='ELNO_EPSI_R',
                   OPERATION='EXTR',
                   RESULTAT=MSLI2,
                   NOM_CHAM='EPSI_ELNO',
                   INST=7.1,
                   INTERPOL='LIN',);

CHAMEL5=CREA_CHAMP(TYPE_CHAM='ELNO_SIEF_R',
                   OPERATION='EXTR',
                   RESULTAT=MSLI2,
                   NOM_CHAM='SIEQ_ELNO',
                   INST=6.4,
                   INTERPOL='LIN',);

CHAMEL6=CREA_CHAMP(TYPE_CHAM='ELGA_EPSI_R',
                   OPERATION='EXTR',
                   RESULTAT=MSLI2,
                   NOM_CHAM='EPSI_ELGA',
                   TYPE_MAXI='MINI',
                   TYPE_RESU='VALE',
                   TOUT_ORDRE='OUI',);

CHAMEL7=CALC_CHAM_ELEM(MODELE=MO,
                       CARA_ELEM=CARA1,
                       GROUP_MA='GMA8',
                       OPTION='COOR_ELGA',);

ENGENDRE_TEST(CO=(CHAMNO1,CHAMNO2,),);

ENGENDRE_TEST(CO=(CHAMEL1,CHAMEL2,CHAMEL3,CHAMEL4,CHAMEL5,CHAMEL6,CHAMEL7,),);

TEST_RESU(CHAM_NO=_F(CHAM_GD=CHAMNO1,
                     TYPE_TEST='SOMM_ABS',
                   VALE=  8.0521243760179E+03       ,
                     PRECISION=1.E-9,
                     REFERENCE='NON_REGRESSION',),);

TEST_RESU(CHAM_NO=_F(CHAM_GD=CHAMNO2,
                     TYPE_TEST='SOMM_ABS',
                   VALE=  3.0962035380521E+03       ,
                     PRECISION=1.E-9,
                     REFERENCE='NON_REGRESSION',),);

TEST_RESU(CHAM_ELEM=_F(CHAM_GD=CHAMEL1,
                       TYPE_TEST='SOMM_ABS',
                   VALE=  1.0953558365758E+04       ,
                       PRECISION=1.E-9,
                       REFERENCE='NON_REGRESSION',),);

TEST_RESU(CHAM_ELEM=_F(CHAM_GD=CHAMEL2,
                       TYPE_TEST='SOMM_ABS',
                   VALE=  5.1522523135007E+03       ,
                       PRECISION=1.E-9,
                       REFERENCE='NON_REGRESSION',),);

TEST_RESU(CHAM_ELEM=_F(CHAM_GD=CHAMEL3,
                       TYPE_TEST='SOMM_ABS',
                   VALE=  1.8228775921151E+04       ,
                       PRECISION=1.E-9,
                       REFERENCE='NON_REGRESSION',),);

TEST_RESU(CHAM_ELEM=_F(CHAM_GD=CHAMEL4,
                       TYPE_TEST='SOMM_ABS',
                   VALE=  9.0320535737264E+03       ,
                       PRECISION=1.E-9,
                       REFERENCE='NON_REGRESSION',),);

TEST_RESU(CHAM_ELEM=_F(CHAM_GD=CHAMEL5,
                       TYPE_TEST='SOMM_ABS',
                   VALE=  4.8341843473088E+04       ,
                       PRECISION=1.E-9,
                       REFERENCE='NON_REGRESSION',),);

TEST_RESU(CHAM_ELEM=_F(CHAM_GD=CHAMEL6,
                       TYPE_TEST='SOMM_ABS',
                   VALE=  5.204558008665E+03        ,
                       PRECISION=1.E-9,
                       REFERENCE='NON_REGRESSION',),);

TEST_RESU(CHAM_ELEM=_F(CHAM_GD=CHAMEL7,
                       TYPE_TEST='SOMM_ABS',
                   VALE=  1.9356022820053E+02       ,
                       PRECISION=1.E-9,
                       REFERENCE='NON_REGRESSION',),);

# -------------------------------------------------------------------------------

TABLE1=POST_ELEM(MASS_INER=(_F(GROUP_MA='GMA8',),
                            _F(TOUT='OUI',),
                            _F(MAILLE='M54',),),
                 MODELE=MO,
                 CHAM_MATER=CHMAT2,
                 CARA_ELEM=CARA1,
                 TITRE='MASSE INERTIE ET CENTRE DE GRAVITE',);

TABLE2=POST_ELEM(ENER_POT=(_F(TOUT='OUI',),
                            _F( MAILLE=('M44','M99',),),
                             _F(GROUP_MA='GMA8',),),
                 RESULTAT=MSLI2,
                 INST=5.5,);

ENGENDRE_TEST(CO=(TABLE1,TABLE2,),);

TEST_TABLE(TABLE=TABLE1,
           TYPE_TEST='SOMM_ABS',
           NOM_PARA='MASSE',
                   VALE=  4.9864193751426E+05       ,
           PRECISION=1.E-9,
           REFERENCE='NON_REGRESSION',);

TEST_TABLE(TABLE=TABLE1,
           TYPE_TEST='SOMM_ABS',
           NOM_PARA='CDG_X',
                   VALE=  9.7157727248731E+00       ,
           PRECISION=1.E-9,
           REFERENCE='NON_REGRESSION',);

TEST_TABLE(TABLE=TABLE1,
           TYPE_TEST='SOMM_ABS',
           NOM_PARA='CDG_Y',
                   VALE=  8.4771084242619E+00       ,
           PRECISION=1.E-9,
           REFERENCE='NON_REGRESSION',);

TEST_TABLE(TABLE=TABLE1,
           TYPE_TEST='SOMM_ABS',
           NOM_PARA='CDG_Z',
                   VALE=  0.0E+00                   ,
           CRITERE='ABSOLU',
           PRECISION=1.E-9,
           REFERENCE='NON_REGRESSION',);

TEST_TABLE(TABLE=TABLE1,
           TYPE_TEST='SOMM_ABS',
           NOM_PARA='IX_G',
                   VALE=  3.9970200816899E+06       ,
           PRECISION=1.E-9,
           REFERENCE='NON_REGRESSION',);

TEST_TABLE(TABLE=TABLE1,
           TYPE_TEST='SOMM_ABS',
           NOM_PARA='IY_G',
                   VALE=  1.5461545423028E+06       ,
           PRECISION=1.E-9,
           REFERENCE='NON_REGRESSION',);

TEST_TABLE(TABLE=TABLE1,
           TYPE_TEST='SOMM_ABS',
           NOM_PARA='IZ_G',
                   VALE=  5.5431746239927E+06       ,
           PRECISION=1.E-9,
           REFERENCE='NON_REGRESSION',);

TEST_TABLE(TABLE=TABLE1,
           TYPE_TEST='SOMM_ABS',
           NOM_PARA='IXY_G',
                   VALE=  2.1213984797413E+04       ,
           PRECISION=1.E-9,
           REFERENCE='NON_REGRESSION',);

TEST_TABLE(TABLE=TABLE1,
           TYPE_TEST='SOMM_ABS',
           NOM_PARA='IXZ_G',
                   VALE=  0.0E+00                   ,
           CRITERE='ABSOLU',
           PRECISION=1.E-9,
           REFERENCE='NON_REGRESSION',);

TEST_TABLE(TABLE=TABLE1,
           TYPE_TEST='SOMM_ABS',
           NOM_PARA='IYZ_G',
                   VALE=  0.0E+00                   ,
           CRITERE='ABSOLU',
           PRECISION=1.E-9,
           REFERENCE='NON_REGRESSION',);

TEST_TABLE(TABLE=TABLE1,
           TYPE_TEST='SOMM_ABS',
           NOM_PARA='IX_PRIN_G',
                   VALE=  1.544259052686E+06        ,
           PRECISION=1.E-9,
           REFERENCE='NON_REGRESSION',);

TEST_TABLE(TABLE=TABLE1,
           TYPE_TEST='SOMM_ABS',
           NOM_PARA='IY_PRIN_G',
                   VALE=  3.9989155713066E+06       ,
           PRECISION=1.E-9,
           REFERENCE='NON_REGRESSION',);

TEST_TABLE(TABLE=TABLE1,
           TYPE_TEST='SOMM_ABS',
           NOM_PARA='IZ_PRIN_G',
                   VALE=  5.5431746239927E+06       ,
           PRECISION=1.E-9,
           REFERENCE='NON_REGRESSION',);

TEST_TABLE(TABLE=TABLE1,
           TYPE_TEST='SOMM_ABS',
           NOM_PARA='ALPHA',
                   VALE=  2.0545875956586E+02       ,
           PRECISION=1.E-9,
           REFERENCE='NON_REGRESSION',);

TEST_TABLE(TABLE=TABLE1,
           TYPE_TEST='SOMM_ABS',
           NOM_PARA='BETA',
                   VALE=  0.0E+00                   ,
           CRITERE='ABSOLU',
           PRECISION=1.E-9,
           REFERENCE='NON_REGRESSION',);

TEST_TABLE(TABLE=TABLE1,
           TYPE_TEST='SOMM_ABS',
           NOM_PARA='GAMMA',
                   VALE=  3.6E+02                   ,
           PRECISION=1.E-9,
           REFERENCE='NON_REGRESSION',);

TEST_TABLE(TABLE=TABLE2,
           TYPE_TEST='SOMM_ABS',
           NOM_PARA='NUME_ORDRE',
                 VALE_I=  8                         ,
           PRECISION=1.E-9,
           REFERENCE='NON_REGRESSION',);

TEST_TABLE(TABLE=TABLE2,
           TYPE_TEST='SOMM_ABS',
           NOM_PARA='INST',
                   VALE=  2.2E+01                   ,
           PRECISION=1.E-9,
           REFERENCE='NON_REGRESSION',);

TEST_TABLE(TABLE=TABLE2,
           TYPE_TEST='SOMM_ABS',
           NOM_PARA='TOTALE',
                   VALE=  8.6111996780773E+03       ,
           PRECISION=1.E-9,
           REFERENCE='NON_REGRESSION',);

TEST_TABLE(TABLE=TABLE2,
           TYPE_TEST='SOMM_ABS',
           NOM_PARA='POUR_CENT',
                   VALE=  1.1901993209506E+02       ,
           PRECISION=1.E-9,
           REFERENCE='NON_REGRESSION',);

LR3=DEFI_LIST_REEL(DEBUT=0.,
                   INTERVALLE=_F(JUSQU_A=10.,
                                 NOMBRE=5,),);

FO18=RECU_FONCTION(RESULTAT=MSLI2,
                   LIST_INST=LR3,
                   INTERP_NUME='LIN',
                   NOM_CHAM='SIGM_ELNO',
                   NOM_CMP='SIXY',
                   MAILLE='M71',
                   NOEUD='N156',
                   NOM_PARA='INST',
                   NOM_RESU='VITE',
                   INTERPOL=('LIN','LOG',),
                   PROL_DROITE='LINEAIRE',
                   PROL_GAUCHE='CONSTANT',);

FO19=RECU_FONCTION(CHAM_GD=CHAMEL2,
                   NOM_CMP='EPXX',
                   MAILLE='M88',
                   POINT=2,
                   INTERPOL=('LIN','LOG',),
                   PROL_DROITE='CONSTANT',
                   PROL_GAUCHE='CONSTANT',);

FO20=RECU_FONCTION(CHAM_GD=CHAMNO1,
                   NOM_CMP='DX',
                   NOEUD='N137',
                   INTERPOL=('LIN','LOG',),
                   PROL_DROITE='CONSTANT',
                   PROL_GAUCHE='CONSTANT',);

FO21=CALC_FONCTION(COMB=(_F(FONCTION=FO10,
                            COEF=5.1,),
                         _F(FONCTION=FO11,
                            COEF=-3.7,),
                         _F(FONCTION=FO12,
                            COEF=0.8,),),
                   NOM_PARA='INST',
                   NOM_RESU='VITE',
                   PROL_DROITE='LINEAIRE',
                   PROL_GAUCHE='LINEAIRE',);

FO22=CALC_FONCTION(DERIVE=_F(FONCTION=FO18,),);

FO23=CALC_FONCTION(INTEGRE=_F(FONCTION=FO21,
                              COEF=1.4,),);

FO24=INFO_FONCTION(MAX=_F(FONCTION=FO21,),);

FO25=CALC_FONCTION(ENVELOPPE=_F(FONCTION=(FO10,FO11,FO12,),
                                CRITERE='INF',),);

FO26=CALC_FONCTION(ENVELOPPE=_F(FONCTION=(FO11,FO12,),
                                CRITERE='SUP',),);

CHEM1=INTE_MAIL_2D(MAILLAGE=MA,
                   DEFI_CHEMIN=_F(MAILLE=('M99','M147','M148','M100',),),
                   PRECISION=1.E-05,);

TABLE3=POST_RELEVE_T(ACTION=(_F(OPERATION='EXTRACTION',
                                INTITULE='TABLE_3A',
                                RESULTAT=MSLI2,
                                NOM_CHAM='EPSI_ELNO',
                                NUME_ORDRE=2,
                                CRITERE='RELATIF',
                                PRECISION=1.E-05,
                                NOEUD=('N109','N110','N111','N104','N103',),
                                NOM_CMP=('EPXX','EPXY',),
                                REPERE='LOCAL',
                                TRAC_DIR='OUI',
                                DIRECTION=(0.5,0.6,0.3,),),
                             _F(OPERATION='MOYENNE',
                                INTITULE='TABLE_3B',
                                CHAM_GD=CHAMNO1,
                                CHEMIN=CHEM1,
                                RESULTANTE=('DY','DX',),
                                MOYE_NOEUD='NON',),),);

ENGENDRE_TEST(CO=TABLE3,);

TEST_TABLE(TABLE=TABLE3,
           TYPE_TEST='SOMM_ABS',
           NOM_PARA='SEGMENT',
                 VALE_I=  1                         ,
           PRECISION=1.E-9,
           REFERENCE='NON_REGRESSION',);

TEST_TABLE(TABLE=TABLE3,
           TYPE_TEST='SOMM_ABS',
           NOM_PARA='CMP_CNX',
                 VALE_I=  1                         ,
           PRECISION=1.E-9,
           REFERENCE='NON_REGRESSION',);

TEST_TABLE(TABLE=TABLE3,
           TYPE_TEST='SOMM_ABS',
           NOM_PARA='NUME_ORDRE',
                 VALE_I=  10                        ,
           PRECISION=1.E-9,
           REFERENCE='NON_REGRESSION',);

TEST_TABLE(TABLE=TABLE3,
           TYPE_TEST='SOMM_ABS',
           NOM_PARA='INST',
                   VALE=  2.75E+01                  ,
           PRECISION=1.E-9,
           REFERENCE='NON_REGRESSION',);

TEST_TABLE(TABLE=TABLE3,
           TYPE_TEST='SOMM_ABS',
           NOM_PARA='ABSC_CURV',
                   VALE=  3.9206869679982E+00       ,
           PRECISION=1.E-9,
           REFERENCE='NON_REGRESSION',);

TEST_TABLE(TABLE=TABLE3,
           TYPE_TEST='SOMM_ABS',
           NOM_PARA='COOR_X',
                   VALE=  1.7692E+01                ,
           PRECISION=1.E-9,
           REFERENCE='NON_REGRESSION',);

TEST_TABLE(TABLE=TABLE3,
           TYPE_TEST='SOMM_ABS',
           NOM_PARA='COOR_Y',
                   VALE=  4.00738E+00               ,
           PRECISION=1.E-9,
           REFERENCE='NON_REGRESSION',);

TEST_TABLE(TABLE=TABLE3,
           TYPE_TEST='SOMM_ABS',
           NOM_PARA='COOR_Z',
                   VALE=  0.0E+00                   ,
           CRITERE='ABSOLU',
           PRECISION=1.E-9,
           REFERENCE='NON_REGRESSION',);

TEST_TABLE(TABLE=TABLE3,
           TYPE_TEST='SOMM_ABS',
           NOM_PARA='DY',
                   VALE=  2.5896503441233E+02       ,
           PRECISION=1.E-9,
           REFERENCE='NON_REGRESSION',);

TEST_TABLE(TABLE=TABLE3,
           TYPE_TEST='SOMM_ABS',
           NOM_PARA='DX',
                   VALE=  3.5564679701156E+01       ,
           PRECISION=1.E-9,
           REFERENCE='NON_REGRESSION',);

TEST_TABLE(TABLE=TABLE3,
           TYPE_TEST='SOMM_ABS',
           NOM_PARA='TRAC_DIR',
                   VALE=  0.0E+00                   ,
           CRITERE='ABSOLU',
           PRECISION=1.E-9,
           REFERENCE='NON_REGRESSION',);

TEST_TABLE(TABLE=TABLE3,
           TYPE_TEST='SOMM_ABS',
           NOM_PARA='TR_DIR_1',
                   VALE=  3.0829967460813E+01       ,
           PRECISION=1.E-9,
           REFERENCE='NON_REGRESSION',);

TEST_TABLE(TABLE=TABLE3,
           TYPE_TEST='SOMM_ABS',
           NOM_PARA='TR_DIR_2',
                   VALE=  3.1517878484609E+01       ,
           PRECISION=1.E-9,
           REFERENCE='NON_REGRESSION',);

TEST_TABLE(TABLE=TABLE3,
           TYPE_TEST='SOMM_ABS',
           NOM_PARA='TR_DIR_3',
                   VALE=  0.0E+00                   ,
           CRITERE='ABSOLU',
           PRECISION=1.E-9,
           REFERENCE='NON_REGRESSION',);

FIN();

#

