# MODIF  DATE 03/03/2003   AUTEUR DURAND C.DURAND 
# TITRE PLAQUE EN FLEXION ET CISAILLEMENT DANS SON PLAN
#            CONFIGURATION MANAGEMENT OF EDF VERSION
# ======================================================================
# COPYRIGHT (C) 1991 - 2001  EDF R&D                  WWW.CODE-ASTER.ORG
# THIS PROGRAM IS FREE SOFTWARE; YOU CAN REDISTRIBUTE IT AND/OR MODIFY
# IT UNDER THE TERMS OF THE GNU GENERAL PUBLIC LICENSE AS PUBLISHED BY
# THE FREE SOFTWARE FOUNDATION; EITHER VERSION 2 OF THE LICENSE, OR   
# (AT YOUR OPTION) ANY LATER VERSION.                                 
#
# THIS PROGRAM IS DISTRIBUTED IN THE HOPE THAT IT WILL BE USEFUL, BUT 
# WITHOUT ANY WARRANTY; WITHOUT EVEN THE IMPLIED WARRANTY OF          
# MERCHANTABILITY OR FITNESS FOR A PARTICULAR PURPOSE. SEE THE GNU    
# GENERAL PUBLIC LICENSE FOR MORE DETAILS.                            
#
# YOU SHOULD HAVE RECEIVED A COPY OF THE GNU GENERAL PUBLIC LICENSE   
# ALONG WITH THIS PROGRAM; IF NOT, WRITE TO EDF R&D CODE_ASTER,       
#    1 AVENUE DU GENERAL DE GAULLE, 92141 CLAMART CEDEX, FRANCE.      
# ======================================================================
DEBUT( CODE=_F(  NOM = 'SSLP01A',NIV_PUB_WEB='INTERNET') )

MAIL=LIRE_MAILLAGE(VERI_MAIL=_F(VERIF='NON'),   )

#
# DEFINITION DES GROUPES DE NOEUDS
MAIL=DEFI_GROUP( reuse=MAIL,   MAILLAGE=MAIL,CREA_GROUP_NO=(
                       _F(  GROUP_MA = 'ENCAST'),
                       _F(  GROUP_MA = 'BORD_CH'))
                   )

#
# DEFINITION DU MODELE
MODELE=AFFE_MODELE(    MAILLAGE=MAIL,
                         AFFE=_F(  TOUT = 'OUI',
                       PHENOMENE = 'MECANIQUE',
                       MODELISATION = 'C_PLAN')  )

#
# DEFINITION DU MATERIAU
ACIER=DEFI_MATERIAU(    ELAS=_F(  E = 3.E10,  NU = 0.25)
                      )

#
# ATTRIBUTION DU MATERIAU
CHMAT=AFFE_MATERIAU(    MAILLAGE=MAIL,
                          AFFE=_F(  TOUT = 'OUI',
                                 MATER = ACIER)  )

#
# DEFINITION DES CONDITIONS AUX LIMITES ET CHARGEMENTS
CLIM=AFFE_CHAR_MECA(    MODELE=MODELE,
                            DDL_IMPO=_F(  GROUP_NO = 'ENCAST',
                                       DX = 0.,   DY = 0.)
                        )

FONCT=DEFI_FONCTION(    NOM_PARA='Y',
                          VALE=( -0.006,   0.,
                                 -0.003,   3.750E6,
                                  0.,      5.000E6,
                                  0.003,   3.750E6,
                                  0.006,   0., )
                      )

CHARGT=AFFE_CHAR_MECA_F(    MODELE=MODELE,
                              PRES_REP=_F(  GROUP_MA = 'BORD_CH',
                                         CISA_2D = FONCT)
#                           ( EPAISSEUR UNITE .... )
                        )

#
# RESOLUTION
DEF=MECA_STATIQUE(    MODELE=MODELE,
                        CHAM_MATER=CHMAT,EXCIT=(
                        _F(  CHARGE = CHARGT),
                              _F(  CHARGE = CLIM))
                    )

#
# RECUPERATION DU CHAMP DE DEPLACEMENTS
U=CREA_CHAMP(  OPERATION='EXTR', TYPE_CHAM='NOEU_DEPL_R',
NOM_CHAM='DEPL', RESULTAT=DEF,
                 NUME_ORDRE=1
                  )

#
# CALCUL DES CONTRAINTES
SIG=CALC_CHAM_ELEM(    MODELE=MODELE,
                         CHAM_MATER=CHMAT,
                         OPTION='SIGM_ELNO_DEPL',
                         DEPL=U )

#
# TEST_RESU DU DEPLACEMENT
#
TEST_RESU(   CHAM_NO=_F(  CHAM_GD = U,
                        NOEUD = 'NO33',
                        NOM_CMP = 'DY',
                        VALE = 0.341E-03,
                        PRECISION = 0.023)
          )

#
# TEST_RESU DE LA CONTRAINTE
#
TEST_RESU(   CHAM_ELEM=_F(  CHAM_GD = SIG,
                          MAILLE = 'MA1',
                          NOEUD = 'NO1',
                          NOM_CMP = 'SIXX',
                          VALE = 8.0E+7,
                          PRECISION = 0.015)
          )

#----------------------------------------------------------
# TEST DE IMPR_RESU
#----------------------------------------------------------
#

DEFUFI(IMPRESSION=_F( NOM = 'DEF',
                      UNITE = 38))

IMPR_RESU(RESU=_F( RESULTAT = DEF,
                   FICHIER = 'DEF',
                   TOUT_ORDRE = 'OUI',
                   FORMAT = 'IDEAS'))

#
#----------------------------------------------------------
# TEST DE LIRE_RESU
#----------------------------------------------------------


DEF_R=LIRE_RESU(     MAILLAGE=MAIL,
                           UNITE=38,
                          FORMAT='IDEAS',
                       TYPE_RESU='EVOL_ELAS',
                        NOM_CHAM='DEPL',
                      TOUT_ORDRE='OUI'
                  )

#
# RECUPERATION DU CHAMP DE DEPLACEMENTS
U_R=CREA_CHAMP(  OPERATION='EXTR', TYPE_CHAM='NOEU_DEPL_R',
NOM_CHAM='DEPL', RESULTAT=DEF_R,
                 NUME_ORDRE=1
                    )

#
# CALCUL DES CONTRAINTES
SIG_R=CALC_CHAM_ELEM(       MODELE=MODELE,
                          CHAM_MATER=CHMAT,
                              OPTION='SIGM_ELNO_DEPL',
                                 DEPL=U_R )

#
# TEST_RESU DU DEPLACEMENT
#
TEST_RESU(   CHAM_NO=_F(  CHAM_GD = U_R,
                        NOEUD = 'NO33',
                        NOM_CMP = 'DY',
                        VALE = 0.341E-03,
                        PRECISION = 0.023,
                        REFERENCE = 'AUTRE_ASTER')
          )

#
# TEST_RESU DE LA CONTRAINTE
#
TEST_RESU(   CHAM_ELEM=_F(  CHAM_GD = SIG_R,
                          MAILLE = 'MA1',
                          NOEUD = 'NO1',
                          NOM_CMP = 'SIXX',
                          VALE = 8.0E+7,
                          PRECISION = 0.015,
                          REFERENCE = 'AUTRE_ASTER')
          )

FIN()
#
