# MODIF  DATE 05/03/2012   AUTEUR PELLET J.PELLET 
# TITRE TEST DE NON-REGRESSION ASTER : MECANIQUE LINEAIRE 2D D_PLAN
# RESPONSABLE PELLET J.PELLET
# sslp200a.para = tps_job 60 mem_job 300Mo ncpus 1 liste_test R
#            CONFIGURATION MANAGEMENT OF EDF VERSION
# ======================================================================
# COPYRIGHT (C) 1991 - 2012  EDF R&D                  WWW.CODE-ASTER.ORG
# THIS PROGRAM IS FREE SOFTWARE; YOU CAN REDISTRIBUTE IT AND/OR MODIFY
# IT UNDER THE TERMS OF THE GNU GENERAL PUBLIC LICENSE AS PUBLISHED BY
# THE FREE SOFTWARE FOUNDATION; EITHER VERSION 2 OF THE LICENSE, OR
# (AT YOUR OPTION) ANY LATER VERSION.
#
# THIS PROGRAM IS DISTRIBUTED IN THE HOPE THAT IT WILL BE USEFUL, BUT
# WITHOUT ANY WARRANTY; WITHOUT EVEN THE IMPLIED WARRANTY OF
# MERCHANTABILITY OR FITNESS FOR A PARTICULAR PURPOSE. SEE THE GNU
# GENERAL PUBLIC LICENSE FOR MORE DETAILS.
#
# YOU SHOULD HAVE RECEIVED A COPY OF THE GNU GENERAL PUBLIC LICENSE
# ALONG WITH THIS PROGRAM; IF NOT, WRITE TO EDF R&D CODE_ASTER,
#    1 AVENUE DU GENERAL DE GAULLE, 92141 CLAMART CEDEX, FRANCE.
# ======================================================================
DEBUT(CODE=_F(NOM='SSLP200A',NIV_PUB_WEB='INTERNET'),DEBUG=_F(SDVERI='OUI'))

# ======================================================
#
#      TEST SSLP200A DE NON_REGRESSION ASTER
#
#      MECANIQUE LINEAIRE 2D, MODELISATION D_PLAN
#
#      ATTENTION :
#      LES VALEURS DE REFERENCE ONT ETE OBTENUES
#      PAR UN PASSAGE PRECEDENT DU CODE_ASTER.
# ======================================================

# ----------------------------------------------------------------------
#    DEFINITION DU MODELE
# ----------------------------------------------------------------------
MA=LIRE_MAILLAGE(  )

DEFI_GROUP( reuse=MA,   MAILLAGE=MA,
  CREA_GROUP_MA=_F(  NOM = 'TOUT', TOUT = 'OUI'))

#      TRIA3  QUAD4  TRIA6  QUAD8  QUAD9

MO=AFFE_MODELE(    MAILLAGE=MA,INFO=2,
                         AFFE=_F(  TOUT = 'OUI',
                                PHENOMENE = 'MECANIQUE',
                                MODELISATION = 'D_PLAN') )

MOTH=AFFE_MODELE(    MAILLAGE=MA,
                           AFFE=_F(  TOUT = 'OUI',
                                  PHENOMENE = 'THERMIQUE',
                                  MODELISATION = 'PLAN') )

# ----------------------------------------------------------------------
#    DEFINITION DE CHAMPS
# ----------------------------------------------------------------------
LR1=DEFI_LIST_REEL(         DEBUT=-0.5,
                         INTERVALLE=_F(  JUSQU_A = 11.5,
                                      NOMBRE = 2) )

FO1=DEFI_FONCTION(    NOM_PARA='TEMP',

                        VALE=( -5.1, 1.05,
                                4.8, 1.12,
                               17.3, 1.14,),
                         PROL_DROITE='LINEAIRE',
                        PROL_GAUCHE='CONSTANT' )

FO2=DEFI_FONCTION(    NOM_PARA='TEMP',
                        VALE=( -8.1,  0.28,
                               12.5,  0.33,
                               25.7,  0.31,      ),
                         PROL_DROITE='LINEAIRE',
                        PROL_GAUCHE='CONSTANT' )

FO2_NU=DEFI_FONCTION(    NOM_PARA='TEMP',
                        VALE=( -8.1,  0.13674,
                               12.5,  0.185909619,
                               25.7,  0.14058841,      ),
                         PROL_DROITE='LINEAIRE',
                        PROL_GAUCHE='CONSTANT' )

FO3=DEFI_FONCTION(    NOM_PARA='TEMP',
                        VALE=( -5.1, 1.06,
                                4.8, 1.11,
                               17.3, 1.02,   ),
                         PROL_DROITE='LINEAIRE',
                        PROL_GAUCHE='CONSTANT' )

FO4=DEFI_FONCTION(    NOM_PARA='INST',
                        VALE=( -1.5, 0.85,
                                0.8, 0.98,
                                8.5, 0.94,   ),
                         PROL_DROITE='LINEAIRE',
                        PROL_GAUCHE='CONSTANT' )

FO5=DEFI_FONCTION(    NOM_PARA='X',
                        VALE=(  0.8, -0.91,
                                1.5, -0.94,
                                3.8, -0.89,  ),
                         PROL_DROITE='CONSTANT',
                        PROL_GAUCHE='LINEAIRE' )

FO6=DEFI_FONCTION(    NOM_PARA='Y',
                        VALE=( -2.1,  1.02E1,
                                3.3,  0.98,
                                8.9,  1.13E1,  ),
                         PROL_DROITE='LINEAIRE',
                        PROL_GAUCHE='LINEAIRE' )

FO7=DEFI_FONCTION(    NOM_PARA='INST',
                        VALE=(  0.,  -4.91,
                               11.2, -1.98,  ),
                         PROL_DROITE='LINEAIRE',
                        PROL_GAUCHE='LINEAIRE' )

FO8=DEFI_FONCTION(    NOM_PARA='X',
                        VALE=( -5.2,  6.11,
                                8.5,  6.04,  ),
                         PROL_DROITE='CONSTANT',
                        PROL_GAUCHE='CONSTANT' )

FO9=DEFI_FONCTION(    NOM_PARA='Y',
                        VALE=( -0.5, -6.05,
                               15.7, -5.88,  ),
                         PROL_DROITE='CONSTANT',
                        PROL_GAUCHE='LINEAIRE' )

FO10=DEFI_FONCTION(    NOM_PARA='INST',
                        VALE=(  2.6,  11.6,
                               19.2,  15.2,      ),
                         PROL_DROITE='CONSTANT',
                        PROL_GAUCHE='LINEAIRE' )

FO11=DEFI_FONCTION(    NOM_PARA='INST',
                        VALE=(  0.6,  0.94,
                               37.3,  1.02,      ),
                         PROL_DROITE='CONSTANT',
                        PROL_GAUCHE='LINEAIRE' )

FO12=DEFI_FONCTION(    NOM_PARA='INST',
                        VALE=( -5.4,  0.91,
                               31.4,  1.08,      ),
                         PROL_DROITE='LINEAIRE',
                        PROL_GAUCHE='LINEAIRE' )

FO13=DEFI_FONCTION(    NOM_PARA='TEMP',
                         VALE=( -1.1, 2.15,
                                 7.8, 1.82,
                                22.4, 2.41, ),
                          PROL_DROITE='LINEAIRE',
                         PROL_GAUCHE='CONSTANT' )

FO14=DEFI_FONCTION(    NOM_PARA='TEMP',
                         VALE=( -8.1,  0.19,
                                12.5,  0.25,
                                25.7,  0.34,      ),
                          PROL_DROITE='LINEAIRE',
                         PROL_GAUCHE='CONSTANT' )

FO15=DEFI_FONCTION(    NOM_PARA='TEMP',
                         VALE=( 9.2,  2.2,
                               11.4,  1.7,
                               15.8,  2.4,    ),
                          PROL_DROITE='LINEAIRE',
                         PROL_GAUCHE='CONSTANT' )

FO16=DEFI_FONCTION(    NOM_PARA='TEMP',
                         VALE=(  8.4, 5.15E1,
                                19.8, 2.82E1,
                                21.4, 4.74E1,   ),
                          PROL_DROITE='LINEAIRE',
                         PROL_GAUCHE='CONSTANT' )

FO17=DEFI_FONCTION(    NOM_PARA='TEMP',
                         VALE=( -12.5, 5.2E1,
                                  6.4, 6.8E1,
                                 11.2, 3.7E1,   ),
                          PROL_DROITE='LINEAIRE',
                         PROL_GAUCHE='CONSTANT' )

# ----------------------------------------------------------------------
#    DEFINITION DES CARACTERISTIQUES ELEMENTAIRES : AXES LOCAUX
# ----------------------------------------------------------------------
CARA1=AFFE_CARA_ELEM(    MODELE=MO,MASSIF=(
                           _F( GROUP_MA = 'TOUT', ANGL_REP = 21.4),
                           _F(  GROUP_MA = ('GMA10', 'GMA11', 'GMA12',), ANGL_REP = 0.),
                          ))

# ----------------------------------------------------------------------
#    DEFINITION ET AFFECTATION DES MATERIAUX : COMPORTEMENTS ELASTIQUES
# ----------------------------------------------------------------------
MAT1=DEFI_MATERIAU(    ELAS=_F(  E = 1.2,
                                NU = 0.3,
                                RHO = 7800.,
                                ALPHA = 1.2),
                         THER=_F(  RHO_CP = 1.4,
                                LAMBDA = 0.8) )

MAT2=DEFI_MATERIAU(    ELAS_FO=_F(  E = FO1,
                                   NU = FO2,
                                   RHO = 7820.,
                                   ALPHA = FO3,TEMP_DEF_ALPHA=6.9),
                         THER=_F(  RHO_CP = 1.2,
                                LAMBDA = 0.9) )

MAT3=DEFI_MATERIAU(    ELAS_ISTR=_F(  E_L = 1.5,
                                     E_N = 0.4,
                                     NU_LT = 0.25,
                                     NU_LN = 0.4,
                                     G_LN = 3.1E1,
                                     RHO = 8500.,
                                     ALPHA_L = 2.1,
                                     ALPHA_N = 0.8),
                         THER=_F(  RHO_CP = 2.2,
                                LAMBDA = 1.9) )

MAT4=DEFI_MATERIAU(    ELAS_ISTR_FO=_F(  E_L = FO1,
                                        E_N = FO13,
                                        NU_LT = FO2,
                                        NU_LN = FO14,
                                        G_LN = FO16,
                                        RHO = 6700.,
                                        ALPHA_L = FO3,
                                        ALPHA_N = FO15,
                                        TEMP_DEF_ALPHA=11.7),
                         THER=_F(  RHO_CP = 2.7,
                                LAMBDA = 0.4) )

MAT5=DEFI_MATERIAU(    ELAS_ORTH=_F(  E_L = 1.6,
                                     E_T = 0.8,
                                     E_N = 2.8,
                                     NU_LT = 0.4,
                                     NU_LN = 0.3,
                                     NU_TN = 0.4,
                                     G_LT = 1.1E1,
                                     G_LN = 2.2E1,
                                     G_TN = 3.5E1,
                                     RHO = 6820.,
                                     ALPHA_L = 3.2,
                                     ALPHA_T = 1.9,
                                     ALPHA_N = 1.7,
                                     XT = 1.2,
                                     XC = 3.5,
                                     YT = 2.7,
                                     YC = 3.4,
                                     S_LT = 2.6),
                         THER=_F(  RHO_CP = 3.2,
                                LAMBDA = 1.9) )

MAT6=DEFI_MATERIAU(    ELAS_ORTH_FO=_F(  E_L = FO1,
                                        E_T = FO13,
                                        E_N = FO1,
                                        NU_LT = FO2_NU,
                                        NU_LN = FO14,
                                        NU_TN = FO14,
                                        G_LT = FO16,
                                        G_LN = FO17,
                                        G_TN = FO16,
                                        RHO = 5240.,
                                        ALPHA_L = FO3,
                                        ALPHA_T = FO15,
                                        ALPHA_N = FO15,
                                        TEMP_DEF_ALPHA=0.),
                         THER=_F(  RHO_CP = 2.5,
                                LAMBDA = 1.7) )

CHMAT=AFFE_MATERIAU(    MAILLAGE=MA,AFFE=(
                          _F(  TOUT = 'OUI',
                                 MATER = MAT1,),
                          _F(  GROUP_MA = 'GMA0',
                                 MATER = MAT2,),
                          _F(  GROUP_MA = 'GMA9',
                                 MATER = MAT3),
                          _F(  GROUP_MA = 'GMA10',
                                 MATER = MAT4,),
                          _F(  GROUP_MA = 'GMA11',
                                 MATER = MAT5),
                          _F(  GROUP_MA = 'GMA12',
                                 MATER = MAT6)) )

# DANS CHAQUE GROUP_MA, TOUS LES TYPES DE MAILLES SONT REPRESENTES

# ----------------------------------------------------------------------
#    AFFECTATION DES CHARGEMENTS ET DES CONDITIONS LIMITES
# ----------------------------------------------------------------------
CHTHF=AFFE_CHAR_THER_F(       MODELE=MOTH,TEMP_IMPO=(
                             _F(  TOUT = 'OUI',
                                         TEMP = FO11),
                             _F(  NOEUD = ('N85', 'N109', 'N38', 'N143',),
                                         TEMP = FO10)) )

THLIN=THER_LINEAIRE(        MODELE=MOTH,
                          CHAM_MATER=CHMAT,
                           CARA_ELEM=CARA1,
                           INCREMENT=_F(  LIST_INST = LR1),
                               EXCIT=_F(  CHARGE = CHTHF) )

#ENGENDRE_TEST (  CO = THLIN, )

TEST_RESU(RESU=( _F(  RESULTAT = THLIN,   NUME_ORDRE = 0,
                     TYPE_TEST = 'SOMM_ABS',
                     NOM_CHAM = 'TEMP',
       REFERENCE = 'NON_REGRESSION', PRECISION = 1.E-10,
                                                 VALE= 5.16522829967345E+02      ),
                   _F(  RESULTAT = THLIN,   NUME_ORDRE = 1,
                     TYPE_TEST = 'SOMM_ABS',
                     NOM_CHAM = 'TEMP',
       REFERENCE = 'NON_REGRESSION', PRECISION = 1.E-10,
                                                 VALE= 5.45884325868386E+02      ),
                   _F(  RESULTAT = THLIN, NUME_ORDRE = 2,
                     TYPE_TEST = 'SOMM_ABS',
                     NOM_CHAM = 'TEMP',
       REFERENCE = 'NON_REGRESSION', PRECISION = 1.E-10,
                                                 VALE= 5.9081392200917E+02       )))

CHMAT2=AFFE_MATERIAU(    MAILLAGE=MA,AFFE=(
                          _F(  TOUT = 'OUI',
                                 MATER = MAT1,),
                          _F(  GROUP_MA = 'GMA0',
                                 MATER = MAT2,),
                          _F(  GROUP_MA = 'GMA9',
                                 MATER = MAT3),
                          _F(  GROUP_MA = 'GMA10',
                                 MATER = MAT4,),
                          _F(  GROUP_MA = 'GMA11',
                                 MATER = MAT5),
                          _F(  GROUP_MA = 'GMA12',
                                 MATER = MAT6)),
                                      AFFE_VARC=(
                          _F(  TOUT = 'OUI',
                                 EVOL=THLIN,
                                 NOM_VARC='TEMP',
                                 VALE_REF=4.8),
                          _F(  GROUP_MA = 'GMA0',
                                 EVOL=THLIN,
                                 NOM_VARC='TEMP',
                                 VALE_REF = 6.9),
                          _F(  GROUP_MA = 'GMA9',
                                 EVOL=THLIN,
                                 VALE_REF=0.,
                                 NOM_VARC='TEMP',),
                          _F(  GROUP_MA = 'GMA10',
                                 EVOL=THLIN,
                                 NOM_VARC='TEMP',
                                 VALE_REF = 11.7),
                          _F(  GROUP_MA = 'GMA11',
                                 EVOL=THLIN,
                                 VALE_REF=0.,
                                 NOM_VARC='TEMP',),
                          _F(  GROUP_MA = 'GMA12',
                                 EVOL=THLIN,
                                 VALE_REF=0.,
                                 NOM_VARC='TEMP',)) )


CHMEC=AFFE_CHAR_MECA(           MODELE=MO,
                               VERI_NORM='NON',
                               PESANTEUR=_F(GRAVITE=9.8,
                                            DIRECTION=(0.3,  0.1, -0.4,),),
                               ROTATION=_F(VITESSE = 0.069631062,
                                           AXE = (0., 0.,   1.,),),
#  ----  MAILLES 2D
                           FORCE_INTERNE=_F(  MAILLE = ('M42', 'M77',),
                                           FX = 0.84),
                           EPSI_INIT=_F(  MAILLE = 'M67',
                                       EPXX = 2.2),
#  ----  MAILLES DE FACE 1D
                           FACE_IMPO=_F(  MAILLE = 'M101',
                                       DNOR = -6.07),
                           FORCE_CONTOUR=_F(  MAILLE = 'M126',
                                           FX = 2.01E1,
                                           FY = 1.05E1),
                           PRES_REP=_F(  MAILLE = 'M120',
                                      PRES = -1.07E1),
#  ----  MAILLES DE TYPE QUELCONQUE
                           LIAISON_GROUP=_F(  MAILLE_1 = 'M87',
                                           GROUP_MA_2 = 'GMA6',
                                           DDL_1 = 'DX',
                                           COEF_MULT_1 = 1.8,
                                           DDL_2 = 'DY',
                                           COEF_MULT_2 = 0.7,
                                           COEF_IMPO = -5.22,
                                           TRAN = (1.6, 1.1,),
                                           SOMMET = 'OUI'),
                           LIAISON_UNIF=_F(  MAILLE = 'M24',
                                          DDL = ('DX', 'DY',)),LIAISON_SOLIDE=(
                           _F(  MAILLE = ('M31', 'M135',),
                                            NUME_LAGR = 'NORMAL'),
                           _F(  NOEUD = ('N37', 'N195',),
                                            NUME_LAGR = 'NORMAL')),
#  ----  NOEUDS
                           DDL_IMPO=_F(  NOEUD = 'N130',
                                      DY = 7.1),
                           LIAISON_DDL=_F(  NOEUD = ('N97', 'N97',),
                                         DDL = ('DY', 'DX',),
                                         COEF_MULT = (1.3,   1.1,),
                                         COEF_IMPO = 6.1),
                           LIAISON_OBLIQUE=_F(  NOEUD = 'N76',
                                             ANGL_NAUT = (18.7, 35.1,),
                                             DX = 5.95),
                           FORCE_NODALE=_F(  NOEUD = 'N30',
                                          FX = 0.86,
                                          FY = 0.98,
                                          ANGL_NAUT = (25.8, 7.1, 29.3,)))

CHMECF=AFFE_CHAR_MECA_F(         MODELE=MO,
                                VERI_NORM='NON',

#  ----  MAILLES 2D
                              FORCE_INTERNE=_F(  GROUP_MA = 'GMA1',
                                              FY = FO4),
                              EPSI_INIT=_F(  GROUP_MA = 'GMA2',
                                          EPYY = FO7),
#  ----  MAILLES DE BORD 1D
                              FACE_IMPO=_F(  GROUP_MA = 'GMA3',
                                          DX = FO9),
                              FORCE_CONTOUR=_F(  GROUP_MA = 'GMA4',
                                              FX = FO6),
                              PRES_REP=_F(  GROUP_MA = 'GMA5',
                                         CISA_2D = FO6),
#  ----  MAILLES DE TYPE QUELCONQUE
                              LIAISON_UNIF=_F(  GROUP_MA = 'GMA7',
                                             DDL = 'DY'),
#  ----  NOEUDS
                              DDL_IMPO=_F(  GROUP_NO = 'GNO1',
                                         DY = FO7),
                              LIAISON_DDL=_F(  GROUP_NO = 'GNO2',
                                            DDL = ('DX', 'DY',),
                                            COEF_MULT = (2.5,  -1.3,),
                                            COEF_IMPO = FO9),
                              LIAISON_OBLIQUE=_F(  GROUP_NO = 'GNO3',
                                                ANGL_NAUT = (-25.4, 2.7,
                                                              18.9, ),
                                                DX = FO9),
                              LIAISON_GROUP=_F(  NOEUD_1 = ('N145', 'N168',),
                                              GROUP_NO_2 = 'GNO4',
                                              SANS_NOEUD = 'N168',
                                              DDL_1 = ('DY', 'DX',),
                                              COEF_MULT_1 = (1.1,  -3.7,),
                                              DDL_2 = 'DX',
                                              COEF_MULT_2 = 2.8,
                                              COEF_IMPO = FO8,
                                             TRAN = (-0.2, -3.1,)),
                              FORCE_NODALE=_F(  GROUP_NO = 'GNO6',
                                             FY = FO6) )

CHCI=AFFE_CHAR_CINE(       MODELE=MO,
                          MECA_IMPO=_F(  NOEUD = 'N199',
                                      DY = 0.0) )

CHCIF=AFFE_CHAR_CINE_F(       MODELE=MO,
                             MECA_IMPO=_F(  GROUP_NO = 'GNO7',
                                         DX = FO7,
                                         DY = FO9) )

# ----------------------------------------------------------------------
#   COMMANDES GLOBALES DE MECANIQUE : STATIQUE LINEAIRE
# ----------------------------------------------------------------------

MSLIN=MECA_STATIQUE(        MODELE=MO,
                           CHAM_MATER=CHMAT2,
                            CARA_ELEM=CARA1,
                           EXCIT=_F(  CHARGE = CHMEC,
                                   FONC_MULT = FO11),
                           LIST_INST=LR1,
                         )

CALC_ELEM( reuse= MSLIN ,RESULTAT= MSLIN ,

                           LIST_INST=LR1,
                           OPTION=(
                            'SIGM_ELNO',
                                   'EPME_ELNO', 'EPME_ELGA',
                                   'EPOT_ELEM', 'EPSI_ELGA',
                                   'EPSI_ELNO', 'SIEQ_ELNO',
                                   'SIEQ_ELGA', 'EPEQ_ELNO',
                                   'EPEQ_ELGA',  ) )


IMPR_RESU(RESU=_F(RESULTAT=MSLIN,NOM_CHAM=('SIEF_ELGA','SIEQ_ELGA')))


#ENGENDRE_TEST (  CO = MSLIN )

TEST_RESU(RESU=( _F(  RESULTAT = MSLIN,    NUME_ORDRE = 1,
                     NOM_CHAM = 'DEPL',
                     TYPE_TEST = 'SOMM_ABS',
       REFERENCE = 'NON_REGRESSION', PRECISION = 1.E-10,
                                                 VALE= 1.79537519378696E+09      ),
                   _F(  RESULTAT = MSLIN,    NUME_ORDRE = 2,
                     NOM_CHAM = 'DEPL',
                     TYPE_TEST = 'SOMM_ABS',
       REFERENCE = 'NON_REGRESSION', PRECISION = 1.E-10,
                                                 VALE= 1.82050730364573E+09      ),
                   _F(  RESULTAT = MSLIN,    NUME_ORDRE = 3,
                     NOM_CHAM = 'DEPL',
                     TYPE_TEST = 'SOMM_ABS',
       REFERENCE = 'NON_REGRESSION', PRECISION = 1.E-10,
                                                 VALE= 1.84564209153262E+09      ),
                   _F(  RESULTAT = MSLIN,    NUME_ORDRE = 1,
                     NOM_CHAM = 'SIEF_ELGA',
                     TYPE_TEST = 'SOMM_ABS',
       REFERENCE = 'NON_REGRESSION', PRECISION = 1.E-10,
                                                 VALE= 4.44057723904317E+08      ),
                   _F(  RESULTAT = MSLIN,    NUME_ORDRE = 2,
                     NOM_CHAM = 'SIEF_ELGA',
                     TYPE_TEST = 'SOMM_ABS',
       REFERENCE = 'NON_REGRESSION', PRECISION = 1.E-10,
                                                 VALE= 4.5027366050782E+08       ),
                   _F(  RESULTAT = MSLIN,    NUME_ORDRE = 3,
                     NOM_CHAM = 'SIEF_ELGA',
                     TYPE_TEST = 'SOMM_ABS',
       REFERENCE = 'NON_REGRESSION', PRECISION = 1.E-10,
                                                 VALE= 4.56489883656191E+08      ),
                   _F(  RESULTAT = MSLIN,    NUME_ORDRE = 1,
                     NOM_CHAM = 'SIGM_ELNO',
                     TYPE_TEST = 'SOMM_ABS',
       REFERENCE = 'NON_REGRESSION', PRECISION = 1.E-10,
                                                 VALE= 5.4061380614063E+08      ),
                   _F(  RESULTAT = MSLIN,    NUME_ORDRE = 2,
                     NOM_CHAM = 'SIGM_ELNO',
                     TYPE_TEST = 'SOMM_ABS',
       REFERENCE = 'NON_REGRESSION', PRECISION = 1.E-10,
                                                 VALE= 5.4816938571623E+08      ),
                   _F(  RESULTAT = MSLIN,    NUME_ORDRE = 3,
                     NOM_CHAM = 'SIGM_ELNO',
                     TYPE_TEST = 'SOMM_ABS',
       REFERENCE = 'NON_REGRESSION', PRECISION = 1.E-10,
                                                 VALE= 5.5572499566517E+08      ),
                   _F(  RESULTAT = MSLIN,    NUME_ORDRE = 1,
                     NOM_CHAM = 'EPME_ELNO',
                     TYPE_TEST = 'SOMM_ABS',
       REFERENCE = 'NON_REGRESSION', PRECISION = 1.E-10,
                                                 VALE= 2.80490351559856E+08      ),
                   _F(  RESULTAT = MSLIN,    NUME_ORDRE = 2,
                     NOM_CHAM = 'EPME_ELNO',
                     TYPE_TEST = 'SOMM_ABS',
       REFERENCE = 'NON_REGRESSION', PRECISION = 1.E-10,
                                                 VALE= 2.84413978797808E+08      ),
                   _F(  RESULTAT = MSLIN,    NUME_ORDRE = 3,
                     NOM_CHAM = 'EPME_ELNO',
                     TYPE_TEST = 'SOMM_ABS',
       REFERENCE = 'NON_REGRESSION', PRECISION = 1.E-10,
                                                 VALE= 2.88337957488205E+08      ),
                   _F(  RESULTAT = MSLIN,    NUME_ORDRE = 1,
                     NOM_CHAM = 'EPME_ELGA',
                     TYPE_TEST = 'SOMM_ABS',
       REFERENCE = 'NON_REGRESSION', PRECISION = 1.E-10,
                                                 VALE= 2.15396659571967E+08      ),
                   _F(  RESULTAT = MSLIN,    NUME_ORDRE = 2,
                     NOM_CHAM = 'EPME_ELGA',
                     TYPE_TEST = 'SOMM_ABS',
       REFERENCE = 'NON_REGRESSION', PRECISION = 1.E-10,
                                                 VALE= 2.18412794795644E+08      ),
                   _F(  RESULTAT = MSLIN,    NUME_ORDRE = 3,
                     NOM_CHAM = 'EPME_ELGA',
                     TYPE_TEST = 'SOMM_ABS',
       REFERENCE = 'NON_REGRESSION', PRECISION = 1.E-10,
                                                 VALE= 2.21429264874678E+08      ),
                   _F(  RESULTAT = MSLIN,    NUME_ORDRE = 1,
                     NOM_CHAM = 'EPOT_ELEM',
                     TYPE_TEST = 'SOMM_ABS',
       REFERENCE = 'NON_REGRESSION', PRECISION = 1.E-10,
                                                 VALE= 1.00966557593369E+13      ),
                   _F(  RESULTAT = MSLIN,    NUME_ORDRE = 2,
                     NOM_CHAM = 'EPOT_ELEM',
                     TYPE_TEST = 'SOMM_ABS',
       REFERENCE = 'NON_REGRESSION', PRECISION = 1.E-10,
                                                 VALE= 1.03808844489275E+13      ),
                   _F(  RESULTAT = MSLIN,    NUME_ORDRE = 3,
                     NOM_CHAM = 'EPOT_ELEM',
                     TYPE_TEST = 'SOMM_ABS',
       REFERENCE = 'NON_REGRESSION', PRECISION = 1.E-10,
                                                 VALE= 1.06690759828502E+13      ),
                   _F(  RESULTAT = MSLIN,    NUME_ORDRE = 1,
                     NOM_CHAM = 'EPSI_ELGA',
                     TYPE_TEST = 'SOMM_ABS',
       REFERENCE = 'NON_REGRESSION', PRECISION = 1.E-10,
                                                 VALE= 2.15396305261086E+08      ),
                   _F(  RESULTAT = MSLIN,    NUME_ORDRE = 2,
                     NOM_CHAM = 'EPSI_ELGA',
                     TYPE_TEST = 'SOMM_ABS',
       REFERENCE = 'NON_REGRESSION', PRECISION = 1.E-10,
                                                 VALE= 2.18412442306503E+08      ),
                   _F(  RESULTAT = MSLIN,    NUME_ORDRE = 3,
                     NOM_CHAM = 'EPSI_ELGA',
                     TYPE_TEST = 'SOMM_ABS',
       REFERENCE = 'NON_REGRESSION', PRECISION = 1.E-10,
                                                 VALE= 2.21428914192731E+08      ),
                   _F(  RESULTAT = MSLIN,    NUME_ORDRE = 1,
                     NOM_CHAM = 'EPSI_ELNO',
                     TYPE_TEST = 'SOMM_ABS',
       REFERENCE = 'NON_REGRESSION', PRECISION = 1.E-10,
                                                 VALE= 2.80489897372935E+08      ),
                   _F(  RESULTAT = MSLIN,    NUME_ORDRE = 2,
                     NOM_CHAM = 'EPSI_ELNO',
                     TYPE_TEST = 'SOMM_ABS',
       REFERENCE = 'NON_REGRESSION', PRECISION = 1.E-10,
                                                 VALE= 2.84413525230378E+08      ),
                   _F(  RESULTAT = MSLIN,    NUME_ORDRE = 3,
                     NOM_CHAM = 'EPSI_ELNO',
                     TYPE_TEST = 'SOMM_ABS',
       REFERENCE = 'NON_REGRESSION', PRECISION = 1.E-10,
                                                 VALE= 2.88337504538246E+08      ),
                   _F(  RESULTAT = MSLIN,    NUME_ORDRE = 1,
                     NOM_CHAM = 'SIEQ_ELNO',
                     TYPE_TEST = 'SOMM_ABS',
       REFERENCE = 'NON_REGRESSION', PRECISION = 1.E-10,
                                                 VALE= 1.86443668792122E+09      ),
                   _F(  RESULTAT = MSLIN,    NUME_ORDRE = 2,
                     NOM_CHAM = 'SIEQ_ELNO',
                     TYPE_TEST = 'SOMM_ABS',
       REFERENCE = 'NON_REGRESSION', PRECISION = 1.E-10,
                                                 VALE= 1.89057480083475E+09      ),
                   _F(  RESULTAT = MSLIN,    NUME_ORDRE = 3,
                     NOM_CHAM = 'SIEQ_ELNO',
                     TYPE_TEST = 'SOMM_ABS',
       REFERENCE = 'NON_REGRESSION', PRECISION = 1.E-10,
                                                 VALE= 1.91671674603751E+09      ),
                   _F(  RESULTAT = MSLIN,    NUME_ORDRE = 1,
                     NOM_CHAM = 'SIEQ_ELGA',
                     TYPE_TEST = 'SOMM_ABS',
       REFERENCE = 'NON_REGRESSION', PRECISION = 1.E-10,
                                                 VALE= 1.5739566491223E+09       ),
                   _F(  RESULTAT = MSLIN,    NUME_ORDRE = 2,
                     NOM_CHAM = 'SIEQ_ELGA',
                     TYPE_TEST = 'SOMM_ABS',
       REFERENCE = 'NON_REGRESSION', PRECISION = 1.E-10,
                                                 VALE= 1.596022638068E+09       ),
                   _F(  RESULTAT = MSLIN,    NUME_ORDRE = 3,
                     NOM_CHAM = 'SIEQ_ELGA',
                     TYPE_TEST = 'SOMM_ABS',
       REFERENCE = 'NON_REGRESSION', PRECISION = 1.E-10,
                                                 VALE= 1.6180912184632E+09       ),
                   _F(  RESULTAT = MSLIN,    NUME_ORDRE = 1,
                     NOM_CHAM = 'EPEQ_ELNO',
                     TYPE_TEST = 'SOMM_ABS',
       REFERENCE = 'NON_REGRESSION', PRECISION = 1.E-10,
                                                 VALE= 6.03610674057844E+08      ),
                   _F(  RESULTAT = MSLIN,    NUME_ORDRE = 2,
                     NOM_CHAM = 'EPEQ_ELNO',
                     TYPE_TEST = 'SOMM_ABS',
       REFERENCE = 'NON_REGRESSION', PRECISION = 1.E-10,
                                                 VALE= 6.12043413288522E+08      ),
                   _F(  RESULTAT = MSLIN,    NUME_ORDRE = 3,
                     NOM_CHAM = 'EPEQ_ELNO',
                     TYPE_TEST = 'SOMM_ABS',
       REFERENCE = 'NON_REGRESSION', PRECISION = 1.E-10,
                                                 VALE= 6.20476595125462E+08      ),
                   _F(  RESULTAT = MSLIN,    NUME_ORDRE = 1,
                     NOM_CHAM = 'EPEQ_ELGA',
                     TYPE_TEST = 'SOMM_ABS',
       REFERENCE = 'NON_REGRESSION', PRECISION = 1.E-10,
                                                 VALE= 4.64938690464958E+08      ),
                   _F(  RESULTAT = MSLIN,    NUME_ORDRE = 2,
                     NOM_CHAM = 'EPEQ_ELGA',
                     TYPE_TEST = 'SOMM_ABS',
       REFERENCE = 'NON_REGRESSION', PRECISION = 1.E-10,
                                                 VALE= 4.71439421316437E+08      ),
                   _F(  RESULTAT = MSLIN,    NUME_ORDRE = 3,
                     NOM_CHAM = 'EPEQ_ELGA',
                     TYPE_TEST = 'SOMM_ABS',
       REFERENCE = 'NON_REGRESSION', PRECISION = 1.E-10,
                                                 VALE= 4.7794060025795E+08       ))
            )

MSLI2=MECA_STATIQUE(        MODELE=MO,
                          CHAM_MATER=CHMAT2,
                           CARA_ELEM=CARA1,EXCIT=(
                          _F(  CHARGE = CHCI,
                                  FONC_MULT = FO12),
                          _F(  CHARGE = CHMECF,
                                 FONC_MULT = FO12),
                          _F(  CHARGE = CHCIF,
                                 FONC_MULT = FO11),),
                          LIST_INST=LR1)

# ----------------------------------------------------------------------
#   POST_TRAITEMENT DU CALCUL
# ----------------------------------------------------------------------
CALC_ELEM( reuse=MSLI2,
                           OPTION=( 'SIGM_ELNO',
                                    'EPME_ELGA',
                                    'EPME_ELNO', 'EPOT_ELEM',
                                    'EPSG_ELGA', 'EPSG_ELNO',
                                    'EPSI_ELGA', 'EPSI_ELNO',
                                    'SIEQ_ELNO', 'SIEQ_ELGA',
                                    'EPEQ_ELNO', 'EPEQ_ELGA',
                                     ),
                          RESULTAT=MSLI2,

                       NUME_ORDRE=(1, 2, 3,) )

CALC_CHAMP( reuse=MSLI2,DEFORMATION='EPSI_NOEU',CRITERES=('SIEQ_NOEU','EPEQ_NOEU'),CONTRAINTE='SIGM_NOEU',
                       RESULTAT=MSLI2,

                      PRECISION=1.000000000E-03,
                        CRITERE='ABSOLU',
                           INST=11.5   )

#ENGENDRE_TEST (  CO = MSLI2, )

TEST_RESU(RESU=( _F(  RESULTAT = MSLI2,    NUME_ORDRE = 1,
                     NOM_CHAM = 'DEPL',
                     TYPE_TEST = 'SOMM_ABS',
       REFERENCE = 'NON_REGRESSION', PRECISION = 1.E-10,
                                                 VALE= 7.87959061556538E+03      ),
                   _F(  RESULTAT = MSLI2,    NUME_ORDRE = 2,
                     NOM_CHAM = 'DEPL',
                     TYPE_TEST = 'SOMM_ABS',
       REFERENCE = 'NON_REGRESSION', PRECISION = 1.E-10,
                                                 VALE= 8.06540327799552E+03      ),
                   _F(  RESULTAT = MSLI2,    NUME_ORDRE = 3,
                     NOM_CHAM = 'DEPL',
                     TYPE_TEST = 'SOMM_ABS',
       REFERENCE = 'NON_REGRESSION', PRECISION = 1.E-10,
                                                 VALE= 8.25477434643462E+03      ))
            )

TEST_RESU(RESU=( _F(  RESULTAT = MSLI2,    NUME_ORDRE = 1,
                     NOM_CHAM = 'SIEF_ELGA',
                     TYPE_TEST = 'SOMM_ABS',
       REFERENCE = 'NON_REGRESSION', PRECISION = 1.E-10,
                                                 VALE= 1.5785028664917E+04       ),
                   _F(  RESULTAT = MSLI2,    NUME_ORDRE = 2,
                     NOM_CHAM = 'SIEF_ELGA',
                     TYPE_TEST = 'SOMM_ABS',
       REFERENCE = 'NON_REGRESSION', PRECISION = 1.E-10,
                                                 VALE= 1.58570011235119E+04      ),
                   _F(  RESULTAT = MSLI2,    NUME_ORDRE = 3,
                     NOM_CHAM = 'SIEF_ELGA',
                     TYPE_TEST = 'SOMM_ABS',
       REFERENCE = 'NON_REGRESSION', PRECISION = 1.E-10,
                                                 VALE= 1.5951926675282E+04       ),
                   _F(  RESULTAT = MSLI2,    NUME_ORDRE = 1,
                     NOM_CHAM = 'SIGM_ELNO',
                     TYPE_TEST = 'SOMM_ABS',
       REFERENCE = 'NON_REGRESSION', PRECISION = 1.E-10,
                                                 VALE= 20870.148036206      ),
                   _F(  RESULTAT = MSLI2,    NUME_ORDRE = 2,
                     NOM_CHAM = 'SIGM_ELNO',
                     TYPE_TEST = 'SOMM_ABS',
       REFERENCE = 'NON_REGRESSION', PRECISION = 1.E-10,
                                                 VALE= 20971.214466595      ),
                   _F(  RESULTAT = MSLI2,    NUME_ORDRE = 3,
                     NOM_CHAM = 'SIGM_ELNO',
                     TYPE_TEST = 'SOMM_ABS',
       REFERENCE = 'NON_REGRESSION', PRECISION = 1.E-10,
                                                 VALE= 21131.493921876      ),
                   _F(  RESULTAT = MSLI2,    NUME_ORDRE = 1,
                     NOM_CHAM = 'EPME_ELGA',
                     TYPE_TEST = 'SOMM_ABS',
       REFERENCE = 'NON_REGRESSION', PRECISION = 1.E-10,
                                                 VALE= 4.56278740592067E+03      ),
                   _F(  RESULTAT = MSLI2,    NUME_ORDRE = 2,
                     NOM_CHAM = 'EPME_ELGA',
                     TYPE_TEST = 'SOMM_ABS',
       REFERENCE = 'NON_REGRESSION', PRECISION = 1.E-10,
                                                 VALE= 4.59287778338343E+03      ),
                   _F(  RESULTAT = MSLI2,    NUME_ORDRE = 3,
                     NOM_CHAM = 'EPME_ELGA',
                     TYPE_TEST = 'SOMM_ABS',
       REFERENCE = 'NON_REGRESSION', PRECISION = 1.E-10,
                                                 VALE= 4.64118245556106E+03      ),
                   _F(  RESULTAT = MSLI2,    NUME_ORDRE = 1,
                     NOM_CHAM = 'EPME_ELNO',
                     TYPE_TEST = 'SOMM_ABS',
       REFERENCE = 'NON_REGRESSION', PRECISION = 1.E-10,
                                                 VALE= 6.38685212628925E+03      ),
                   _F(  RESULTAT = MSLI2,    NUME_ORDRE = 2,
                     NOM_CHAM = 'EPME_ELNO',
                     TYPE_TEST = 'SOMM_ABS',
       REFERENCE = 'NON_REGRESSION', PRECISION = 1.E-10,
                                                 VALE= 6.42500865596849E+03      ),
                   _F(  RESULTAT = MSLI2,    NUME_ORDRE = 3,
                     NOM_CHAM = 'EPME_ELNO',
                     TYPE_TEST = 'SOMM_ABS',
       REFERENCE = 'NON_REGRESSION', PRECISION = 1.E-10,
                                                 VALE= 6.48994612834635E+03      ),
                   _F(  RESULTAT = MSLI2,    NUME_ORDRE = 1,
                     NOM_CHAM = 'EPOT_ELEM',
                     TYPE_TEST = 'SOMM_ABS',
       REFERENCE = 'NON_REGRESSION', PRECISION = 1.E-10,
                                                 VALE= 7.74254721507769E+03      ),
                   _F(  RESULTAT = MSLI2,    NUME_ORDRE = 2,
                     NOM_CHAM = 'EPOT_ELEM',
                     TYPE_TEST = 'SOMM_ABS',
       REFERENCE = 'NON_REGRESSION', PRECISION = 1.E-10,
                                                 VALE= 7.8159081948137E+03       ),
                   _F(  RESULTAT = MSLI2,    NUME_ORDRE = 3,
                     NOM_CHAM = 'EPOT_ELEM',
                     TYPE_TEST = 'SOMM_ABS',
       REFERENCE = 'NON_REGRESSION', PRECISION = 1.E-10,
                                                 VALE= 7.91937982248681E+03      ),
                   _F(  RESULTAT = MSLI2,    NUME_ORDRE = 1,
                     NOM_CHAM = 'EPSG_ELGA',
                     TYPE_TEST = 'SOMM_ABS',
       REFERENCE = 'NON_REGRESSION', PRECISION = 1.E-10,
                                                 VALE= 3.3353352542791E+05       ),
                   _F(  RESULTAT = MSLI2,    NUME_ORDRE = 2,
                     NOM_CHAM = 'EPSG_ELGA',
                     TYPE_TEST = 'SOMM_ABS',
       REFERENCE = 'NON_REGRESSION', PRECISION = 1.E-10,
                                                 VALE= 3.49467156390563E+05      ),
                   _F(  RESULTAT = MSLI2,    NUME_ORDRE = 3,
                     NOM_CHAM = 'EPSG_ELGA',
                     TYPE_TEST = 'SOMM_ABS',
       REFERENCE = 'NON_REGRESSION', PRECISION = 1.E-10,
                                                 VALE= 3.65755421599715E+05      ),
                   _F(  RESULTAT = MSLI2,    NUME_ORDRE = 1,
                     NOM_CHAM = 'EPSG_ELNO',
                     TYPE_TEST = 'SOMM_ABS',
       REFERENCE = 'NON_REGRESSION', PRECISION = 1.E-10,
                                                 VALE= 3.54657033977731E+05      ),
                   _F(  RESULTAT = MSLI2,    NUME_ORDRE = 2,
                     NOM_CHAM = 'EPSG_ELNO',
                     TYPE_TEST = 'SOMM_ABS',
       REFERENCE = 'NON_REGRESSION', PRECISION = 1.E-10,
                                                 VALE= 3.71096412311554E+05      ),
                   _F(  RESULTAT = MSLI2,    NUME_ORDRE = 3,
                     NOM_CHAM = 'EPSG_ELNO',
                     TYPE_TEST = 'SOMM_ABS',
       REFERENCE = 'NON_REGRESSION', PRECISION = 1.E-10,
                                                 VALE= 3.88065700521801E+05      ),
                   _F(  RESULTAT = MSLI2,    NUME_ORDRE = 1,
                     NOM_CHAM = 'EPSI_ELGA',
                     TYPE_TEST = 'SOMM_ABS',
       REFERENCE = 'NON_REGRESSION', PRECISION = 1.E-10,
                                                 VALE= 6.86592157134497E+03      ),
                   _F(  RESULTAT = MSLI2,    NUME_ORDRE = 2,
                     NOM_CHAM = 'EPSI_ELGA',
                     TYPE_TEST = 'SOMM_ABS',
       REFERENCE = 'NON_REGRESSION', PRECISION = 1.E-10,
                                                 VALE= 6.8857145727578E+03       ),
                   _F(  RESULTAT = MSLI2,    NUME_ORDRE = 3,
                     NOM_CHAM = 'EPSI_ELGA',
                     TYPE_TEST = 'SOMM_ABS',
       REFERENCE = 'NON_REGRESSION', PRECISION = 1.E-10,
                                                 VALE= 6.91916191520352E+03      ),
                   _F(  RESULTAT = MSLI2,    NUME_ORDRE = 1,
                     NOM_CHAM = 'EPSI_ELNO',
                     TYPE_TEST = 'SOMM_ABS',
       REFERENCE = 'NON_REGRESSION', PRECISION = 1.E-10,
                                                 VALE= 9.04623376686895E+03      ),
                   _F(  RESULTAT = MSLI2,    NUME_ORDRE = 2,
                     NOM_CHAM = 'EPSI_ELNO',
                     TYPE_TEST = 'SOMM_ABS',
       REFERENCE = 'NON_REGRESSION', PRECISION = 1.E-10,
                                                 VALE= 9.0741040933462E+03       ),
                   _F(  RESULTAT = MSLI2,    NUME_ORDRE = 3,
                     NOM_CHAM = 'EPSI_ELNO',
                     TYPE_TEST = 'SOMM_ABS',
       REFERENCE = 'NON_REGRESSION', PRECISION = 1.E-10,
                                                 VALE= 9.11563418228507E+03      ),
                   _F(  RESULTAT = MSLI2,    NUME_ORDRE = 1,
                     NOM_CHAM = 'SIEQ_ELNO',
                     TYPE_TEST = 'SOMM_ABS',
       REFERENCE = 'NON_REGRESSION', PRECISION = 1.E-10,
                                                 VALE= 6.85583716567992E+04      ),
                   _F(  RESULTAT = MSLI2,    NUME_ORDRE = 2,
                     NOM_CHAM = 'SIEQ_ELNO',
                     TYPE_TEST = 'SOMM_ABS',
       REFERENCE = 'NON_REGRESSION', PRECISION = 1.E-10,
                                                 VALE= 6.89858270733333E+04      ),
                   _F(  RESULTAT = MSLI2,    NUME_ORDRE = 3,
                     NOM_CHAM = 'SIEQ_ELNO',
                     TYPE_TEST = 'SOMM_ABS',
       REFERENCE = 'NON_REGRESSION', PRECISION = 1.E-10,
                                                 VALE= 6.95626454114961E+04      ),
                   _F(  RESULTAT = MSLI2,    NUME_ORDRE = 1,
                     NOM_CHAM = 'SIEQ_ELGA',
                     TYPE_TEST = 'SOMM_ABS',
       REFERENCE = 'NON_REGRESSION', PRECISION = 1.E-10,
                                                 VALE= 55587.289606412     ),
                   _F(  RESULTAT = MSLI2,    NUME_ORDRE = 2,
                     NOM_CHAM = 'SIEQ_ELGA',
                     TYPE_TEST = 'SOMM_ABS',
       REFERENCE = 'NON_REGRESSION', PRECISION = 1.E-10,
                                                 VALE= 55948.115313067      ),
                   _F(  RESULTAT = MSLI2,    NUME_ORDRE = 3,
                     NOM_CHAM = 'SIEQ_ELGA',
                     TYPE_TEST = 'SOMM_ABS',
       REFERENCE = 'NON_REGRESSION', PRECISION = 1.E-10,
                                                 VALE= 56370.782621897      ),
                   _F(  RESULTAT = MSLI2,    NUME_ORDRE = 1,
                     NOM_CHAM = 'EPEQ_ELNO',
                     TYPE_TEST = 'SOMM_ABS',
       REFERENCE = 'NON_REGRESSION', PRECISION = 1.E-10,
                                                 VALE= 1.66313249676257E+04      ),
                   _F(  RESULTAT = MSLI2,    NUME_ORDRE = 2,
                     NOM_CHAM = 'EPEQ_ELNO',
                     TYPE_TEST = 'SOMM_ABS',
       REFERENCE = 'NON_REGRESSION', PRECISION = 1.E-10,
                                                 VALE= 1.67311168349031E+04      ),
                   _F(  RESULTAT = MSLI2,    NUME_ORDRE = 3,
                     NOM_CHAM = 'EPEQ_ELNO',
                     TYPE_TEST = 'SOMM_ABS',
       REFERENCE = 'NON_REGRESSION', PRECISION = 1.E-10,
                                                 VALE= 1.68604866541201E+04      ),
                   _F(  RESULTAT = MSLI2,    NUME_ORDRE = 1,
                     NOM_CHAM = 'EPEQ_ELGA',
                     TYPE_TEST = 'SOMM_ABS',
       REFERENCE = 'NON_REGRESSION', PRECISION = 1.E-10,
                                                 VALE= 1.3739281374684E+04       ),
                   _F(  RESULTAT = MSLI2,    NUME_ORDRE = 2,
                     NOM_CHAM = 'EPEQ_ELGA',
                     TYPE_TEST = 'SOMM_ABS',
       REFERENCE = 'NON_REGRESSION', PRECISION = 1.E-10,
                                                 VALE= 1.38179946732324E+04      ),
                   _F(  RESULTAT = MSLI2,    NUME_ORDRE = 3,
                     NOM_CHAM = 'EPEQ_ELGA',
                     TYPE_TEST = 'SOMM_ABS',
       REFERENCE = 'NON_REGRESSION', PRECISION = 1.E-10,
                                                 VALE= 1.3925273798259E+04       ))
            )

TEST_RESU(RESU=( _F(  RESULTAT = MSLI2,    INST = 11.5,
                     NOM_CHAM = 'EPSI_NOEU',
                     TYPE_TEST = 'SOMM_ABS',
       REFERENCE = 'NON_REGRESSION', PRECISION = 1.E-10,
                                                 VALE= 3.32640828966208E+03      ),
                   _F(  RESULTAT = MSLI2,    INST = 11.5,
                     NOM_CHAM = 'SIEQ_NOEU',
                     TYPE_TEST = 'SOMM_ABS',
       REFERENCE = 'NON_REGRESSION', PRECISION = 1.E-10,
                                                 VALE= 2.21118736896167E+04      ),
                   _F(  RESULTAT = MSLI2,    INST = 11.5,
                     NOM_CHAM = 'EPEQ_NOEU',
                     TYPE_TEST = 'SOMM_ABS',
       REFERENCE = 'NON_REGRESSION', PRECISION = 1.E-10,
                                                 VALE= 6.56285612963572E+03      ),
                   _F(  RESULTAT = MSLI2,    INST = 11.5,
                     NOM_CHAM = 'SIGM_NOEU',
                     TYPE_TEST = 'SOMM_ABS',
       REFERENCE = 'NON_REGRESSION', PRECISION = 1.E-10,
                                                 VALE= 5828.1909999462      ))
            )

# --------------------------------------------------------------------

CHAMNO1=CREA_CHAMP(  OPERATION='EXTR', TYPE_CHAM='NOEU_DEPL_R',
                     NOM_CHAM='DEPL', RESULTAT=MSLI2,
                       INST=0.7,
                       INTERPOL='LIN'
                        )

CHAMNO2=CREA_CHAMP(  OPERATION='EXTR', TYPE_CHAM='NOEU_DEPL_R',
                      NOM_CHAM='DEPL', RESULTAT=MSLI2,
                         TYPE_MAXI='NORM_TRAN',
                         TYPE_RESU='INST',
                         LIST_INST=LR1    )

CHAMEL1=CREA_CHAMP(  OPERATION='EXTR', TYPE_CHAM='ELGA_SIEF_R',
                      NOM_CHAM='SIEF_ELGA', RESULTAT=MSLI2,
                       INST=1.8,
                       INTERPOL='LIN'
                        )

CHAMEL2=CREA_CHAMP(  OPERATION='EXTR', TYPE_CHAM='ELGA_EPSI_R',
                      NOM_CHAM='EPSI_ELGA', RESULTAT=MSLI2,
                       INST=1.8,
                       INTERPOL='LIN'
                        )

CHAMEL3=CREA_CHAMP(  OPERATION='EXTR', TYPE_CHAM='ELNO_SIEF_R',
                     NOM_CHAM='SIGM_ELNO', RESULTAT=MSLI2,
                       INST=1.8,
                       INTERPOL='LIN'
                        )

CHAMEL4=CREA_CHAMP(  OPERATION='EXTR', TYPE_CHAM='ELNO_EPSI_R',
                     NOM_CHAM='EPSI_ELNO', RESULTAT=MSLI2,
                       INST=7.1,
                       INTERPOL='LIN'
                        )

CHAMEL5=CREA_CHAMP(  OPERATION='EXTR', TYPE_CHAM='ELNO_SIEF_R',
                       NOM_CHAM='SIEQ_ELNO', RESULTAT=MSLI2,
                        INST=6.4,
                        INTERPOL='LIN'   )

CHAMEL6=CREA_CHAMP(  OPERATION='EXTR', TYPE_CHAM='ELGA_EPSI_R',
                      NOM_CHAM='EPSI_ELGA', RESULTAT=MSLI2,
                        TYPE_MAXI='MINI',
                        TYPE_RESU='VALE',
                        TOUT_ORDRE='OUI' )

CHAMEL7=CALC_CHAM_ELEM(        MODELE=MO,
                              CARA_ELEM=CARA1,
                             GROUP_MA='GMA8',
                             OPTION='COOR_ELGA' )

#ENGENDRE_TEST (  CO = (CHAMNO1, CHAMNO2 ), )
#ENGENDRE_TEST (  CO = (CHAMEL1,CHAMEL2,CHAMEL3,CHAMEL4,CHAMEL5,CHAMEL6,CHAMEL7 ), )

TEST_RESU( CHAM_NO=_F(  CHAM_GD = CHAMNO1,
                        TYPE_TEST = 'SOMM_ABS',
       REFERENCE = 'NON_REGRESSION', PRECISION = 1.E-10,
                                                 VALE= 7.91604686452761E+03      ))

TEST_RESU( CHAM_NO=_F(  CHAM_GD = CHAMNO2,
                        TYPE_TEST = 'SOMM_ABS',
       REFERENCE = 'NON_REGRESSION', PRECISION = 1.E-10,
                                                 VALE= 3.03630803685949E+03      ))

TEST_RESU( CHAM_ELEM=_F(  CHAM_GD = CHAMEL1,
                          TYPE_TEST = 'SOMM_ABS',
       REFERENCE = 'NON_REGRESSION', PRECISION = 1.E-10,
                                                 VALE= 1.58075958063828E+04      ))

TEST_RESU( CHAM_ELEM=_F(  CHAM_GD = CHAMEL2,
                          TYPE_TEST = 'SOMM_ABS',
       REFERENCE = 'NON_REGRESSION', PRECISION = 1.E-10,
                                                 VALE= 6.8713119959382E+03       ))

TEST_RESU( CHAM_ELEM=_F(  CHAM_GD = CHAMEL3,
                          TYPE_TEST = 'SOMM_ABS',
       REFERENCE = 'NON_REGRESSION', PRECISION = 1.E-10,
                                                 VALE= 20903.549866889       ))

TEST_RESU( CHAM_ELEM=_F(  CHAM_GD = CHAMEL4,
                          TYPE_TEST = 'SOMM_ABS',
       REFERENCE = 'NON_REGRESSION', PRECISION = 1.E-10,
                                                 VALE= 9.08279943058504E+03      ))

TEST_RESU( CHAM_ELEM=_F(  CHAM_GD = CHAMEL5,
                          TYPE_TEST = 'SOMM_ABS',
       REFERENCE = 'NON_REGRESSION', PRECISION = 1.E-10,
                                                 VALE= 6.90366671252565E+04      ))

TEST_RESU( CHAM_ELEM=_F(  CHAM_GD = CHAMEL6,
                          TYPE_TEST = 'SOMM_ABS',
       REFERENCE = 'NON_REGRESSION', PRECISION = 1.E-10,
                                                 VALE= 6.93862396036801E+03      ))

TEST_RESU( CHAM_ELEM=_F(  CHAM_GD = CHAMEL7,
                          MAILLE = 'M71',
                          POINT = 2,
                          NOM_CMP = 'Y',
       REFERENCE = 'NON_REGRESSION', PRECISION = 1.E-10,
                                                 VALE= 1.72988888888889E+00      ))

TEST_RESU( CHAM_ELEM=_F(  CHAM_GD = CHAMEL7,
                          MAILLE = 'M88',
                          POINT = 9,
                          NOM_CMP = 'X',
       REFERENCE = 'NON_REGRESSION', PRECISION = 1.E-10,
                                                 VALE= 3.2263E+00                ))

# --------------------------------------------------------------------

TABLE1=POST_ELEM(        MODELE=MO,
                        CHAM_MATER=CHMAT2,
                         CARA_ELEM=CARA1,
                             TITRE='MASSE INERTIE ET CENTRE DE GRAVITE',MASS_INER=(
                         _F( GROUP_MA = 'GMA8'),
                         _F( TOUT = 'OUI'),
                         _F( MAILLE = 'M54')) )

TABLE2=POST_ELEM(       RESULTAT=MSLI2,
                              INST=5.5,
                          ENER_POT=(_F( TOUT = 'OUI',),
                                    _F(GROUP_MA = 'GMA8',),
                                    _F(MAILLE = ('M44', 'M99',)) ))

#ENGENDRE_TEST (  CO=(TABLE1,TABLE2), )

TEST_TABLE(      TABLE=TABLE1,       NOM_PARA='MASSE',
                TYPE_TEST='SOMM_ABS',
       REFERENCE='NON_REGRESSION', PRECISION=1.E-10,
                                                 VALE= 4.9864193751426E+05       )

TEST_TABLE(      TABLE=TABLE1,       NOM_PARA='CDG_X',
                TYPE_TEST='SOMM_ABS',
       REFERENCE='NON_REGRESSION', PRECISION=1.E-10,
                                                 VALE= 9.71577272487306E+00      )

TEST_TABLE(      TABLE=TABLE1,       NOM_PARA='CDG_Y',
                TYPE_TEST='SOMM_ABS',
       REFERENCE='NON_REGRESSION', PRECISION=1.E-10,
                                                 VALE= 8.47710842426191E+00      )

TEST_TABLE(      TABLE=TABLE1,       NOM_PARA='CDG_Z',
                TYPE_TEST='SOMM_ABS',
                  CRITERE='ABSOLU',
       REFERENCE='NON_REGRESSION', PRECISION=1.E-10,
                                                 VALE= 0.0E+00                   )

TEST_TABLE(      TABLE=TABLE1,       NOM_PARA='IX_G',
                TYPE_TEST='SOMM_ABS',
       REFERENCE='NON_REGRESSION', PRECISION=1.E-10,
                                                 VALE= 3.99702008168987E+06      )

TEST_TABLE(      TABLE=TABLE1,       NOM_PARA='IY_G',
                TYPE_TEST='SOMM_ABS',
       REFERENCE='NON_REGRESSION', PRECISION=1.E-10,
                                                 VALE= 1.54615454230281E+06      )

TEST_TABLE(      TABLE=TABLE1,       NOM_PARA='IZ_G',
                TYPE_TEST='SOMM_ABS',
       REFERENCE='NON_REGRESSION', PRECISION=1.E-10,
                                                 VALE= 5.54317462399268E+06      )

TEST_TABLE(      TABLE=TABLE1,       NOM_PARA='IXY_G',
                TYPE_TEST='SOMM_ABS',
       REFERENCE='NON_REGRESSION', PRECISION=1.E-10,
                                                 VALE= 2.12139847974129E+04      )

TEST_TABLE(      TABLE=TABLE1,       NOM_PARA='IXZ_G',
                  CRITERE='ABSOLU',
                TYPE_TEST='SOMM_ABS',
       REFERENCE='NON_REGRESSION', PRECISION=1.E-10,
                                                 VALE= 0.0E+00                   )

TEST_TABLE(      TABLE=TABLE1,       NOM_PARA='IYZ_G',
                  CRITERE='ABSOLU',
                TYPE_TEST='SOMM_ABS',
       REFERENCE='NON_REGRESSION', PRECISION=1.E-10,
                                                 VALE= 0.0E+00                   )

TEST_TABLE(      TABLE=TABLE1,       NOM_PARA='IX_PRIN_G',
                TYPE_TEST='SOMM_ABS',
       REFERENCE='NON_REGRESSION', PRECISION=1.E-10,
                                                 VALE= 1.54425905268604E+06      )

TEST_TABLE(      TABLE=TABLE1,       NOM_PARA='IY_PRIN_G',
                TYPE_TEST='SOMM_ABS',
       REFERENCE='NON_REGRESSION', PRECISION=1.E-10,
                                                 VALE= 3.99891557130663E+06      )

TEST_TABLE(      TABLE=TABLE1,       NOM_PARA='IZ_PRIN_G',
                TYPE_TEST='SOMM_ABS',
       REFERENCE='NON_REGRESSION', PRECISION=1.E-10,
                                                 VALE= 5.54317462399268E+06      )

TEST_TABLE(      TABLE=TABLE1,       NOM_PARA='ALPHA',
                TYPE_TEST='SOMM_ABS',
       REFERENCE='NON_REGRESSION', PRECISION=1.E-10,
                                                 VALE= 2.05458759565853E+02      )

TEST_TABLE(      TABLE=TABLE1,       NOM_PARA='BETA',
                TYPE_TEST='SOMM_ABS',
                  CRITERE='ABSOLU',
       REFERENCE='NON_REGRESSION', PRECISION=1.E-10,
                                                 VALE= 0.0E+00                   )

TEST_TABLE(      TABLE=TABLE1,       NOM_PARA='GAMMA',
                TYPE_TEST='SOMM_ABS',
       REFERENCE='NON_REGRESSION', PRECISION=1.E-10,
                                                 VALE= 3.6E+02                   )

TEST_TABLE(      TABLE=TABLE2,       NOM_PARA='NUME_ORDRE',
                TYPE_TEST='SOMM',
       REFERENCE='NON_REGRESSION', PRECISION=1.E-10,
                        VALE_I=8                 )

TEST_TABLE(      TABLE=TABLE2,       NOM_PARA='TOTALE',
                TYPE_TEST='SOMM_ABS',
       REFERENCE='NON_REGRESSION', PRECISION=1.E-10,
                                                 VALE= 9.26467637578483E+03      )

TEST_TABLE(      TABLE=TABLE2,       NOM_PARA='POUR_CENT',
                TYPE_TEST='SOMM_ABS',
       REFERENCE='NON_REGRESSION', PRECISION=1.E-10,
                                                 VALE= 1.18536146342308E+02      )

LR3=DEFI_LIST_REEL(         DEBUT=0.,
                         INTERVALLE=_F(  JUSQU_A = 10.,
                                      NOMBRE = 5) )

FO18=RECU_FONCTION(       RESULTAT=MSLI2,
                            NOM_CHAM='SIGM_ELNO',
                              MAILLE='M71',
                               NOEUD='N156',
                             NOM_CMP='SIXY',
                           LIST_INST=LR3,
                         INTERP_NUME='LIN',
                            NOM_PARA='INST',
                            NOM_RESU='VITE',
                            INTERPOL=('LIN', 'LOG',),
                          PROL_DROITE='LINEAIRE',
                         PROL_GAUCHE='CONSTANT'  )

FO19=RECU_FONCTION(        CHAM_GD=CHAMEL2,
                              MAILLE='M88',
                               POINT=2,
                             NOM_CMP='EPXX',
                            INTERPOL=('LIN', 'LOG',),
                          PROL_DROITE='CONSTANT',
                         PROL_GAUCHE='CONSTANT'  )

FO20=RECU_FONCTION(        CHAM_GD=CHAMNO1,
                             NOM_CMP='DX',
                               NOEUD='N137',
                            INTERPOL=('LIN', 'LOG',),
                          PROL_DROITE='CONSTANT',
                         PROL_GAUCHE='CONSTANT'  )

FO21=CALC_FONCTION( COMB=(   _F(  FONCTION = FO10,
                                COEF = 5.1),
                         _F(  FONCTION = FO11,
                                COEF = -3.7),
                         _F(  FONCTION = FO12,
                                COEF = 0.8)),
                            NOM_PARA='INST',
                            NOM_RESU='VITE',
                          PROL_DROITE='LINEAIRE',
                         PROL_GAUCHE='LINEAIRE'  )

FO22=CALC_FONCTION(      DERIVE=_F(  FONCTION = FO18) )

FO23=CALC_FONCTION(     INTEGRE=_F(  FONCTION = FO21,
                                    COEF = 1.4) )

FO24=INFO_FONCTION(         MAX=_F(  FONCTION = FO21),  )

FO25=CALC_FONCTION(    ENVELOPPE=_F(  FONCTION = ( FO10, FO11, FO12, ),
                                     CRITERE = 'INF') )

FO26=CALC_FONCTION(    ENVELOPPE=_F(  FONCTION = ( FO11, FO12, ),
                                     CRITERE = 'SUP') )

CHEM1=INTE_MAIL_2D(        MAILLAGE=MA,
                          DEFI_CHEMIN=_F(  MAILLE = ('M99', 'M147', 'M148', 'M100',)),
                            PRECISION=1.E-05 )

TABLE3=POST_RELEVE_T( ACTION=(   _F(  NOEUD = ( 'N109', 'N110', 'N111',
                                                      'N104', 'N103', ),
                                    RESULTAT = MSLI2,
                                    NOM_CHAM = 'EPSI_ELNO',
                                    NUME_ORDRE = 2,
                                    PRECISION = 1.E-05,
                                    CRITERE = 'RELATIF',
                                    NOM_CMP = ('EPXX', 'EPXY',),
                                    REPERE = 'LOCAL',
                                    TRAC_DIR = 'OUI',
                                    DIRECTION = (0.5, 0.6, 0.3,),
                                    INTITULE = 'TABLE_3A',
                                    OPERATION = 'EXTRACTION'),
                           _F(  CHEMIN = CHEM1,
                                    CHAM_GD = CHAMNO1,
                                    RESULTANTE = ('DY', 'DX',),
                                    INTITULE = 'TABLE_3B',
                                    OPERATION = 'MOYENNE',
                                    MOYE_NOEUD = 'NON')) )

#ENGENDRE_TEST (  CO=TABLE3 )

TEST_TABLE(      TABLE=TABLE3,       NOM_PARA='DX',
                TYPE_TEST='SOMM_ABS',
       REFERENCE='NON_REGRESSION', PRECISION=1.E-10,
                                                 VALE= 2.86523816795226E+01      )

TEST_TABLE(      TABLE=TABLE3,       NOM_PARA='DY',
                TYPE_TEST='SOMM_ABS',
       REFERENCE='NON_REGRESSION', PRECISION=1.E-10,
                                                 VALE= 2.48735916141495E+02      )

TEST_TABLE(      TABLE=TABLE3,       NOM_PARA='TR_DIR_1',
                TYPE_TEST='SOMM',
       REFERENCE = 'NON_REGRESSION', PRECISION = 1.E-10,
                                                 VALE= -3.10774122992819E+01     )

TEST_TABLE(      TABLE=TABLE3,       NOM_PARA='TR_DIR_2',
                TYPE_TEST='SOMM_ABS',
       REFERENCE='NON_REGRESSION', PRECISION=1.E-10,
                                                 VALE= 3.10035797675747E+01      )

TEST_TABLE(      TABLE=TABLE3,       NOM_PARA='TR_DIR_2',
                TYPE_TEST='MAX',
       REFERENCE='NON_REGRESSION', PRECISION=1.E-10,
                                                 VALE= 1.71861978427733E+00      )

TEST_TABLE(      TABLE=TABLE3,       NOM_PARA='TR_DIR_2',
                TYPE_TEST='MIN',
       REFERENCE='NON_REGRESSION', PRECISION=1.E-10,
                                                 VALE= -1.13736546661954E+01     )

TEST_TABLE(      TABLE=TABLE3,       NOM_PARA='TR_DIR_3',
                TYPE_TEST='SOMM',
                  CRITERE='ABSOLU',
       REFERENCE='NON_REGRESSION', PRECISION=1.E-10,
                                                 VALE= 0.0E+00                   )

# ---------------------------------------------------------
# VALIDATION: MACR_LIGN_COUPE/OPERATION='MOYENNE',RESULTANTE
# VALIDATION: MACR_LIGN_COUPE/OPERATION='EXTRACTION',TRAC_DIR


MA=DEFI_GROUP(reuse=MA,MAILLAGE=MA,
              CREA_GROUP_NO=(_F(NOM='NOCHE1',NOEUD=('N2','N27','N28','N48','N34','N35','N31',),),
                             _F(NOM='NOCHE2',NOEUD=('N109','N110','N111','N104','N103', ),),),)

TABL4A=MACR_LIGN_COUPE(RESULTAT=MSLI2,NOM_CHAM='EPSI_ELNO',NUME_ORDRE = 2,
                LIGN_COUPE=(_F(TYPE='GROUP_NO',GROUP_NO='NOCHE2',NOM_CMP = ('EPXX', 'EPXY',),
                            TRAC_DIR = 'OUI',DIRECTION = (0.5, 0.6, 0.3,),OPERATION = 'EXTRACTION',
                            DISTANCE_MAX=0.001,),),)

TABL4B=MACR_LIGN_COUPE(CHAM_GD= CHAMNO1,NOM_CHAM='DEPL',MODELE=MO,
                LIGN_COUPE=(_F(TYPE='GROUP_NO',GROUP_NO='NOCHE1',
                              RESULTANTE = ('DY', 'DX',),OPERATION = 'MOYENNE',
                              DISTANCE_MAX=0.001,),),)

TABLE4=CALC_TABLE(TABLE=TABL4A,
                  ACTION=_F(OPERATION='COMB',TABLE=TABL4B),)

IMPR_TABLE(TABLE=TABLE4)
#ENGENDRE_TEST (  CO=TABLE4 )

TEST_TABLE(      TABLE=TABLE4,       NOM_PARA='DX',
                TYPE_TEST='SOMM_ABS',
       REFERENCE='NON_REGRESSION', PRECISION=3.E-10,
                                                 VALE= 2.86523816790798E+01      )

TEST_TABLE(      TABLE=TABLE4,       NOM_PARA='DY',
                TYPE_TEST='SOMM_ABS',
       REFERENCE='NON_REGRESSION', PRECISION=1.E-10,
                                                 VALE= 2.48735916142042E+02      )

TEST_TABLE(      TABLE=TABLE4,       NOM_PARA='TR_DIR_1',
                TYPE_TEST='SOMM',
       REFERENCE = 'NON_REGRESSION', PRECISION = 1.E-10,
                                                 VALE= -3.10774122991859E+01     )

TEST_TABLE(      TABLE=TABLE4,       NOM_PARA='TR_DIR_2',
                TYPE_TEST='SOMM_ABS',
       REFERENCE='NON_REGRESSION', PRECISION=1.E-10,
                                                 VALE= 3.10035797675098E+01      )

TEST_TABLE(      TABLE=TABLE4,       NOM_PARA='TR_DIR_2',
                TYPE_TEST='MAX',
       REFERENCE='NON_REGRESSION', PRECISION=1.E-10,
                                                 VALE= 1.71861978427729E+00      )

TEST_TABLE(      TABLE=TABLE4,       NOM_PARA='TR_DIR_2',
                TYPE_TEST='MIN',
       REFERENCE='NON_REGRESSION', PRECISION=1.E-10,
                                                 VALE= -1.13736546661954E+01     )

TEST_TABLE(      TABLE=TABLE4,       NOM_PARA='TR_DIR_3',
                TYPE_TEST='SOMM',
                  CRITERE='ABSOLU',
       REFERENCE='NON_REGRESSION', PRECISION=1.E-10,
                                                 VALE= 0.0E+00                   )

# ---------------------------------------------------------
# VALIDATION: MACR_LIGN_COUPE/OPERATION='MOYENNE'
# AVEC UNE LIGNE DE COUPE DE TYPE SEGMENT DEPASSANT
# DE LA STRUCTURE

# -> TRAC_DIR

T_E1=MACR_LIGN_COUPE(RESULTAT=MSLI2,NOM_CHAM='EPSI_ELNO',NUME_ORDRE = 2,
                LIGN_COUPE=(_F(TYPE='SEGMENT',COOR_ORIG=(0.5,-4.),COOR_EXTR=(2.4,-2.9),NB_POINTS=3,
                            NOM_CMP = ('EPXX', 'EPXY',),
                            TRAC_DIR = 'OUI',DIRECTION = (0.5, 0.6, 0.3,),OPERATION = 'EXTRACTION',
                            DISTANCE_MAX=0.001,),),)

T_M1=MACR_LIGN_COUPE(RESULTAT=MSLI2,NOM_CHAM='EPSI_ELNO',NUME_ORDRE = 2,
                LIGN_COUPE=(_F(TYPE='SEGMENT',COOR_ORIG=(0.5,-4.),COOR_EXTR=(2.4,-2.9),NB_POINTS=3,
                            NOM_CMP = ('EPXX', 'EPXY',),
                            TRAC_DIR = 'OUI',DIRECTION = (0.5, 0.6, 0.3,),OPERATION = 'MOYENNE',
                            DISTANCE_MAX=0.001,),),)

TEST_TABLE(      TABLE=T_M1,       NOM_PARA='TR_DIR_1',
                    FILTRE=_F(  NOM_PARA = 'QUANTITE',
                            VALE_K = 'MINIMUM',         ),
                REFERENCE='NON_REGRESSION',      VALE=   -3.9657361302663    )

TEST_TABLE(      TABLE=T_M1,       NOM_PARA='TR_DIR_1',
                    FILTRE=_F(  NOM_PARA = 'QUANTITE',
                            VALE_K = 'MAXIMUM',         ),
                REFERENCE='NON_REGRESSION',      VALE=   -3.0001415848996    )

TEST_TABLE(      TABLE=T_M1,       NOM_PARA='TR_DIR_2',
                    FILTRE=_F(  NOM_PARA = 'QUANTITE',
                            VALE_K = 'MINIMUM',         ),
                REFERENCE='NON_REGRESSION',      VALE=   -5.5904298129475    )

TEST_TABLE(      TABLE=T_M1,       NOM_PARA='TR_DIR_2',
                    FILTRE=_F(  NOM_PARA = 'QUANTITE',
                            VALE_K = 'MAXIMUM',         ),
                REFERENCE='NON_REGRESSION',      VALE=   -3.8143210178959    )


#IMPR_TABLE(TABLE=T_E1);

#IMPR_TABLE(TABLE=T_M1);

# -> TRAC_NOR

T_E2=MACR_LIGN_COUPE(RESULTAT=MSLI2,NOM_CHAM='EPSI_ELNO',NUME_ORDRE = 2,
                LIGN_COUPE=(_F(TYPE='SEGMENT',COOR_ORIG=(0.5,-4.),COOR_EXTR=(2.4,-2.9),NB_POINTS=3,
                            NOM_CMP = ('EPXX', 'EPXY',),
                            TRAC_NOR = 'OUI',OPERATION = 'EXTRACTION',
                            DISTANCE_MAX=0.001,),),)

T_M2=MACR_LIGN_COUPE(RESULTAT=MSLI2,NOM_CHAM='EPSI_ELNO',NUME_ORDRE = 2,
                LIGN_COUPE=(_F(TYPE='SEGMENT',COOR_ORIG=(0.5,-4.),COOR_EXTR=(2.4,-2.9),NB_POINTS=3,
                            NOM_CMP = ('EPXX', 'EPXY',),
                            TRAC_NOR = 'OUI',OPERATION = 'MOYENNE',
                            DISTANCE_MAX=0.001,),),)

TEST_TABLE(      TABLE=T_M2,       NOM_PARA='TR_NOR_1',
                    FILTRE=_F(  NOM_PARA = 'QUANTITE',
                            VALE_K = 'MINIMUM',         ),
                REFERENCE='NON_REGRESSION',      VALE=   3.1246255168691     )

TEST_TABLE(      TABLE=T_M2,       NOM_PARA='TR_NOR_1',
                    FILTRE=_F(  NOM_PARA = 'QUANTITE',
                            VALE_K = 'MAXIMUM',         ),
                REFERENCE='NON_REGRESSION',      VALE=   4.0667851163382     )

TEST_TABLE(      TABLE=T_M2,       NOM_PARA='TR_NOR_2',
                    FILTRE=_F(  NOM_PARA = 'QUANTITE',
                            VALE_K = 'MINIMUM',         ),
                REFERENCE='NON_REGRESSION',      VALE=   -8.1408663746168    )

TEST_TABLE(      TABLE=T_M2,       NOM_PARA='TR_NOR_2',
                    FILTRE=_F(  NOM_PARA = 'QUANTITE',
                            VALE_K = 'MAXIMUM',         ),
                REFERENCE='NON_REGRESSION',      VALE=   -5.6002444629827    )

#IMPR_TABLE(TABLE=T_E2);

#IMPR_TABLE(TABLE=T_M2);



# -> TOUT_CMP

T_E3=MACR_LIGN_COUPE(RESULTAT=MSLI2,NOM_CHAM='DEPL',NUME_ORDRE = 2,
                LIGN_COUPE=(_F(TYPE='SEGMENT',COOR_ORIG=(0.5,-4.),COOR_EXTR=(2.4,-2.9),NB_POINTS=3,
                            OPERATION = 'EXTRACTION',
                            DISTANCE_MAX=0.001,),),)

T_M3=MACR_LIGN_COUPE(RESULTAT=MSLI2,NOM_CHAM='DEPL',NUME_ORDRE = 2,
                LIGN_COUPE=(_F(TYPE='SEGMENT',COOR_ORIG=(0.5,-4.),COOR_EXTR=(2.4,-2.9),NB_POINTS=3,
                            OPERATION = 'MOYENNE',
                            DISTANCE_MAX=0.001,),),)

TEST_TABLE(      TABLE=T_M3,       NOM_PARA='DX',
                    FILTRE=_F(  NOM_PARA = 'QUANTITE',
                            VALE_K = 'MINIMUM',         ),
                REFERENCE='NON_REGRESSION',      VALE=   -25.915732687196    )

TEST_TABLE(      TABLE=T_M3,       NOM_PARA='DX',
                    FILTRE=_F(  NOM_PARA = 'QUANTITE',
                            VALE_K = 'MAXIMUM',         ),
                REFERENCE='NON_REGRESSION',      VALE=   -20.896743867263    )

TEST_TABLE(      TABLE=T_M3,       NOM_PARA='DY',
                    FILTRE=_F(  NOM_PARA = 'QUANTITE',
                            VALE_K = 'MINIMUM',         ),
                REFERENCE='NON_REGRESSION',      VALE=   34.008389433351     )

TEST_TABLE(      TABLE=T_M3,       NOM_PARA='DY',
                    FILTRE=_F(  NOM_PARA = 'QUANTITE',
                            VALE_K = 'MAXIMUM',         ),
                REFERENCE='NON_REGRESSION',      VALE=   60.662915767769     )

#IMPR_TABLE(TABLE=T_E3);

#IMPR_TABLE(TABLE=T_M3);

FIN( )
#


