# TITRE CROSSE SOUS CHARGEMENTS DIVERS (SANS SOUS-STRUCTURATION)
#            CONFIGURATION MANAGEMENT OF EDF VERSION
# ======================================================================
# COPYRIGHT (C) 1991 - 2012  EDF R&D                  WWW.CODE-ASTER.ORG
# THIS PROGRAM IS FREE SOFTWARE; YOU CAN REDISTRIBUTE IT AND/OR MODIFY
# IT UNDER THE TERMS OF THE GNU GENERAL PUBLIC LICENSE AS PUBLISHED BY
# THE FREE SOFTWARE FOUNDATION; EITHER VERSION 2 OF THE LICENSE, OR
# (AT YOUR OPTION) ANY LATER VERSION.
#
# THIS PROGRAM IS DISTRIBUTED IN THE HOPE THAT IT WILL BE USEFUL, BUT
# WITHOUT ANY WARRANTY; WITHOUT EVEN THE IMPLIED WARRANTY OF
# MERCHANTABILITY OR FITNESS FOR A PARTICULAR PURPOSE. SEE THE GNU
# GENERAL PUBLIC LICENSE FOR MORE DETAILS.
#
# YOU SHOULD HAVE RECEIVED A COPY OF THE GNU GENERAL PUBLIC LICENSE
# ALONG WITH THIS PROGRAM; IF NOT, WRITE TO EDF R&D CODE_ASTER,
#    1 AVENUE DU GENERAL DE GAULLE, 92141 CLAMART CEDEX, FRANCE.
# ======================================================================
#CAS_TEST__: SSLP100A
# SSLP100/A
# CROSSE CHARGEE EN SOUS-STRUCTURATION STATIQUE.
# MODELISATION : SANS SOUS-STRUCTURES (MODELISATION DE REFERENCE).
#======================================================================


DEBUT(CODE=_F(  NOM = 'SSLP100A',NIV_PUB_WEB='INTERNET'),DEBUG=_F(SDVERI='OUI'))
ZERO=DEFI_CONSTANTE(VALE=0.0)
DEUX=DEFI_CONSTANTE(VALE=2.0)
FONC=FORMULE(NOM_PARA=('X','Y'),VALE='-X+Y')
ACIER=DEFI_MATERIAU(ELAS=_F( E = 15., NU = 0.3) )

MA=LIRE_MAILLAGE(FORMAT='MED',)

CHMAT=AFFE_MATERIAU(  MAILLAGE=MA,
                         AFFE=_F(  TOUT = 'OUI', MATER = ACIER) )

MO=AFFE_MODELE(  MAILLAGE=MA,     AFFE= (
    _F( TOUT = 'OUI',      MODELISATION = 'D_PLAN',   PHENOMENE = 'MECANIQUE'),
    _F( MAILLE = 'MISOLE', MODELISATION = '2D_DIS_T', PHENOMENE = 'MECANIQUE'),
))

CARELE=AFFE_CARA_ELEM( MODELE=MO, DISCRET_2D=( _F(MAILLE='MISOLE',CARA = 'K_T_N',
                                     VALE = (180000.,0.,180000.,),),
                      ))
CHBL=AFFE_CHAR_MECA_F(MODELE=MO,DDL_IMPO=(
#                    J , N8, N17, N25 :

                    _F( NOEUD = ('N8','N17','N25',), DX = ZERO, DY = ZERO),
                    _F( NOEUD = ('N35',), DX = DEUX)),
#
#  TEST DE LIAISON_DDL COEF_MULT_FONC
#
                    LIAISON_DDL=(
#           GH :

  _F( NOEUD = ('N22','N22',),DDL = ('DY','DX',), COEF_MULT_FONC = (FONC,FONC,),
   COEF_IMPO = ZERO),
  _F( NOEUD = ('N24','N24',),DDL = ('DY','DX',), COEF_MULT_FONC = (FONC,FONC,),
   COEF_IMPO = ZERO),
  _F( NOEUD = ('N26','N26',),DDL = ('DY','DX',), COEF_MULT_FONC = (FONC,FONC,),
   COEF_IMPO = ZERO),
  _F( NOEUD = ('N28','N28',),DDL = ('DY','DX',), COEF_MULT_FONC = (FONC,FONC,),
   COEF_IMPO = ZERO))
            )

CHF1=AFFE_CHAR_MECA(MODELE=MO,
#           SUIVEUR:
           PRES_REP=_F( GROUP_MA = ('GRMA14','GRMA17','GRMA20',), PRES = 10.0)
                       )

CHF2=AFFE_CHAR_MECA(MODELE=MO,
#       NON-SUIVEUR:
         FORCE_NODALE=_F( NOEUD = ('N11','N19','N27','N33','N31',), FY = -20.0)
                       )

MELGR=CALC_MATR_ELEM(   OPTION='RIGI_MECA',  CARA_ELEM=CARELE,
           MODELE=MO, CHARGE=CHBL,       CHAM_MATER=CHMAT )

VELG1=CALC_VECT_ELEM(   CHARGE=(CHBL,CHF1,), OPTION='CHAR_MECA' )

VELG2=CALC_VECT_ELEM(   CHARGE=(CHBL,CHF2,), OPTION='CHAR_MECA' )

NUG=NUME_DDL(  MATR_RIGI=(MELGR,),  METHODE='LDLT',  RENUM='RCMK')

MATAS=ASSE_MATRICE(   NUME_DDL=NUG,  MATR_ELEM=MELGR)

VECAS1=ASSE_VECTEUR(   NUME_DDL=NUG,  VECT_ELEM=VELG1)

VECAS2=ASSE_VECTEUR(   NUME_DDL=NUG,  VECT_ELEM=VELG2)

MATAS=FACTORISER( reuse=MATAS, MATR_ASSE=MATAS)

U1=RESOUDRE( MATR=MATAS,   CHAM_NO=VECAS1)

U2=RESOUDRE( MATR=MATAS,   CHAM_NO=VECAS2)


TEST_RESU(CHAM_NO=(_F(NOEUD='N31',
                      NOM_CMP='DX',
                      CHAM_GD=U1,
                      VALE_CALC=1.88327,
                      TOLE_MACHINE=1.0000000000000001E-05,),
                   _F(NOEUD='N31',
                      NOM_CMP='DY',
                      CHAM_GD=U1,
                      VALE_CALC=0.025922400000000002,
                      TOLE_MACHINE=1.0000000000000001E-05,),
                   _F(NOEUD='N28',
                      NOM_CMP='DX',
                      CHAM_GD=U1,
                      VALE_CALC=-0.082737199999999997,
                      TOLE_MACHINE=1.0000000000000001E-05,),
                   _F(NOEUD='N28',
                      NOM_CMP='DY',
                      CHAM_GD=U1,
                      VALE_CALC=0.082737199999999997,
                      TOLE_MACHINE=1.0000000000000001E-05,),
                   _F(NOEUD='N13',
                      NOM_CMP='DX',
                      CHAM_GD=U1,
                      VALE_CALC=0.27037499999999998,
                      TOLE_MACHINE=1.0000000000000001E-05,),
                   _F(NOEUD='N13',
                      NOM_CMP='DY',
                      CHAM_GD=U1,
                      VALE_CALC=0.56955199999999995,
                      TOLE_MACHINE=1.0000000000000001E-05,),
                   _F(NOEUD='N10',
                      NOM_CMP='DX',
                      CHAM_GD=U1,
                      VALE_CALC=0.51770300000000002,
                      TOLE_MACHINE=1.0000000000000001E-05,),
                   _F(NOEUD='N10',
                      NOM_CMP='DY',
                      CHAM_GD=U1,
                      VALE_CALC=0.54338699999999995,
                      TOLE_MACHINE=1.0000000000000001E-05,),
                   _F(NOEUD='N31',
                      NOM_CMP='DX',
                      CHAM_GD=U2,
                      VALE_CALC=1.7188300000000001,
                      TOLE_MACHINE=1.0000000000000001E-05,),
                   _F(NOEUD='N31',
                      NOM_CMP='DY',
                      CHAM_GD=U2,
                      VALE_CALC=-6.0436699999999997,
                      TOLE_MACHINE=1.0000000000000001E-05,),
                   _F(NOEUD='N28',
                      NOM_CMP='DX',
                      CHAM_GD=U2,
                      VALE_CALC=-0.046019600000000001,
                      TOLE_MACHINE=1.0000000000000001E-05,),
                   _F(NOEUD='N28',
                      NOM_CMP='DY',
                      CHAM_GD=U2,
                      VALE_CALC=0.046019600000000001,
                      TOLE_MACHINE=1.0000000000000001E-05,),
                   _F(NOEUD='N13',
                      NOM_CMP='DX',
                      CHAM_GD=U2,
                      VALE_CALC=0.22690299999999999,
                      TOLE_MACHINE=1.0000000000000001E-05,),
                   _F(NOEUD='N13',
                      NOM_CMP='DY',
                      CHAM_GD=U2,
                      VALE_CALC=-0.61429599999999995,
                      TOLE_MACHINE=1.0000000000000001E-05,),
                   _F(NOEUD='N10',
                      NOM_CMP='DX',
                      CHAM_GD=U2,
                      VALE_CALC=-0.95711000000000002,
                      TOLE_MACHINE=1.0000000000000001E-05,),
                   _F(NOEUD='N10',
                      NOM_CMP='DY',
                      CHAM_GD=U2,
                      VALE_CALC=-2.53878,
                      TOLE_MACHINE=1.0000000000000001E-05,),
                   ),
          )

FIN()
#
