# MODIF  DATE 12/05/2005   AUTEUR DURAND C.DURAND 
# TITRE TEST DE NON-REGRESSION ASTER : MECANIQUE LINEAIRE 2D D_PLAN
# RESPONSABLE VABHHTS J.PELLET
#            CONFIGURATION MANAGEMENT OF EDF VERSION
# ======================================================================
# COPYRIGHT (C) 1991 - 2001  EDF R&D                  WWW.CODE-ASTER.ORG
# THIS PROGRAM IS FREE SOFTWARE; YOU CAN REDISTRIBUTE IT AND/OR MODIFY
# IT UNDER THE TERMS OF THE GNU GENERAL PUBLIC LICENSE AS PUBLISHED BY
# THE FREE SOFTWARE FOUNDATION; EITHER VERSION 2 OF THE LICENSE, OR
# (AT YOUR OPTION) ANY LATER VERSION.
#
# THIS PROGRAM IS DISTRIBUTED IN THE HOPE THAT IT WILL BE USEFUL, BUT
# WITHOUT ANY WARRANTY; WITHOUT EVEN THE IMPLIED WARRANTY OF
# MERCHANTABILITY OR FITNESS FOR A PARTICULAR PURPOSE. SEE THE GNU
# GENERAL PUBLIC LICENSE FOR MORE DETAILS.
#
# YOU SHOULD HAVE RECEIVED A COPY OF THE GNU GENERAL PUBLIC LICENSE
# ALONG WITH THIS PROGRAM; IF NOT, WRITE TO EDF R&D CODE_ASTER,
#    1 AVENUE DU GENERAL DE GAULLE, 92141 CLAMART CEDEX, FRANCE.
# ======================================================================
DEBUT(CODE=_F( NOM = 'SSLP200B',NIV_PUB_WEB='INTERNET'))

# ======================================================
#
#      TEST SSLP200B DE NON_REGRESSION ASTER
#
#      MECANIQUE LINEAIRE 2D, MODELISATION D_PLAN_SI
#
#      ATTENTION :
#      LES VALEURS DE REFERENCE ONT ETE OBTENUES
#      PAR UN PASSAGE PRECEDENT DU CODE_ASTER.
# ======================================================

# ----------------------------------------------------------------------
#    DEFINITION DU MODELE
# ----------------------------------------------------------------------
MA=LIRE_MAILLAGE(  )

DEFI_GROUP( reuse=MA,   MAILLAGE=MA,
  CREA_GROUP_MA=_F(  NOM = 'TOUT', TOUT = 'OUI'))

#      TRIA3  QUAD4  TRIA6  QUAD8  QUAD9

MO=AFFE_MODELE(    MAILLAGE=MA,
                         AFFE=(_F(TOUT = 'OUI',PHENOMENE = 'MECANIQUE',
                                MODELISATION = ('D_PLAN','D_PLAN_SI')),
_F(GROUP_MA='LESQUAD4',PHENOMENE='MECANIQUE',MODELISATION='D_PLAN')))

MOTH=AFFE_MODELE(    MAILLAGE=MA,
                           AFFE=_F(  TOUT = 'OUI',
                                  PHENOMENE = 'THERMIQUE',
                                  MODELISATION = 'PLAN') )

# ----------------------------------------------------------------------
#    DEFINITION DE CHAMPS
# ----------------------------------------------------------------------
LR1=DEFI_LIST_REEL(         DEBUT=-0.5,
                         INTERVALLE=_F(  JUSQU_A = 11.5,
                                      NOMBRE = 2) )

FO1=DEFI_FONCTION(    NOM_PARA='TEMP',

                        VALE=( -5.1, 1.05,
                                4.8, 1.12,
                               17.3, 1.14,),
                         PROL_DROITE='LINEAIRE',
                        PROL_GAUCHE='CONSTANT' )

FO2=DEFI_FONCTION(    NOM_PARA='TEMP',
                        VALE=( -8.1,  0.28,
                               12.5,  0.33,
                               25.7,  0.31,      ),
                         PROL_DROITE='LINEAIRE',
                        PROL_GAUCHE='CONSTANT' )

FO2_NU=DEFI_FONCTION(    NOM_PARA='TEMP',
                        VALE=( -8.1,  0.13674,
                               12.5,  0.185909619,
                               25.7,  0.14058841,      ),
                         PROL_DROITE='LINEAIRE',
                        PROL_GAUCHE='CONSTANT' )

FO3=DEFI_FONCTION(    NOM_PARA='TEMP',
                        VALE=( -5.1, 1.06,
                                4.8, 1.11,
                               17.3, 1.02,   ),
                         PROL_DROITE='LINEAIRE',
                        PROL_GAUCHE='CONSTANT' )

FO4=DEFI_FONCTION(    NOM_PARA='INST',
                        VALE=( -1.5, 0.85,
                                0.8, 0.98,
                                8.5, 0.94,   ),
                         PROL_DROITE='LINEAIRE',
                        PROL_GAUCHE='CONSTANT' )

FO5=DEFI_FONCTION(    NOM_PARA='X',
                        VALE=(  0.8, -0.91,
                                1.5, -0.94,
                                3.8, -0.89,  ),
                         PROL_DROITE='CONSTANT',
                        PROL_GAUCHE='LINEAIRE' )

FO6=DEFI_FONCTION(    NOM_PARA='Y',
                        VALE=( -2.1,  1.02E1,
                                3.3,  0.98,
                                8.9,  1.13E1,  ),
                         PROL_DROITE='LINEAIRE',
                        PROL_GAUCHE='LINEAIRE' )

FO7=DEFI_FONCTION(    NOM_PARA='INST',
                        VALE=(  0.,  -4.91,
                               11.2, -1.98,  ),
                         PROL_DROITE='LINEAIRE',
                        PROL_GAUCHE='LINEAIRE' )

FO8=DEFI_FONCTION(    NOM_PARA='X',
                        VALE=( -5.2,  6.11,
                                8.5,  6.04,  ),
                         PROL_DROITE='CONSTANT',
                        PROL_GAUCHE='CONSTANT' )

FO9=DEFI_FONCTION(    NOM_PARA='Y',
                        VALE=( -0.5, -6.05,
                               15.7, -5.88,  ),
                         PROL_DROITE='CONSTANT',
                        PROL_GAUCHE='LINEAIRE' )

FO10=DEFI_FONCTION(    NOM_PARA='INST',
                        VALE=(  2.6,  11.6,
                               19.2,  15.2,      ),
                         PROL_DROITE='CONSTANT',
                        PROL_GAUCHE='LINEAIRE' )

FO11=DEFI_FONCTION(    NOM_PARA='INST',
                        VALE=(  0.6,  0.94,
                               37.3,  1.02,      ),
                         PROL_DROITE='CONSTANT',
                        PROL_GAUCHE='LINEAIRE' )

FO12=DEFI_FONCTION(    NOM_PARA='INST',
                        VALE=( -5.4,  0.91,
                               31.4,  1.08,      ),
                         PROL_DROITE='LINEAIRE',
                        PROL_GAUCHE='LINEAIRE' )

FO13=DEFI_FONCTION(    NOM_PARA='TEMP',
                         VALE=( -1.1, 2.15,
                                 7.8, 1.82,
                                22.4, 2.41, ),
                          PROL_DROITE='LINEAIRE',
                         PROL_GAUCHE='CONSTANT' )

FO14=DEFI_FONCTION(    NOM_PARA='TEMP',
                         VALE=( -8.1,  0.19,
                                12.5,  0.25,
                                25.7,  0.34,      ),
                          PROL_DROITE='LINEAIRE',
                         PROL_GAUCHE='CONSTANT' )

FO15=DEFI_FONCTION(    NOM_PARA='TEMP',
                         VALE=( 9.2,  2.2,
                               11.4,  1.7,
                               15.8,  2.4,    ),
                          PROL_DROITE='LINEAIRE',
                         PROL_GAUCHE='CONSTANT' )

FO16=DEFI_FONCTION(    NOM_PARA='TEMP',
                         VALE=(  8.4, 5.15E1,
                                19.8, 2.82E1,
                                21.4, 4.74E1,   ),
                          PROL_DROITE='LINEAIRE',
                         PROL_GAUCHE='CONSTANT' )

FO17=DEFI_FONCTION(    NOM_PARA='TEMP',
                         VALE=( -12.5, 5.2E1,
                                  6.4, 6.8E1,
                                 11.2, 3.7E1,   ),
                          PROL_DROITE='LINEAIRE',
                         PROL_GAUCHE='CONSTANT' )

# ----------------------------------------------------------------------
#    DEFINITION DES CARACTERISTIQUES ELEMENTAIRES : AXES LOCAUX
# ----------------------------------------------------------------------
CARA1=AFFE_CARA_ELEM(    MODELE=MO,MASSIF=(
                           _F(
       GROUP_MA = 'TOUT',

                                    ANGL_REP = (21.4, 5.8, -16.7,)),
                           _F(  GROUP_MA = ('GMA10', 'GMA11', 'GMA12',),
                                    ANGL_AXE = (57.4, 22.7,),
                                    ORIG_AXE = (1.1, 0.5, 0.6,))) )

# ----------------------------------------------------------------------
#    DEFINITION ET AFFECTATION DES MATERIAUX : COMPORTEMENTS ELASTIQUES
# ----------------------------------------------------------------------
MAT1=DEFI_MATERIAU(    ELAS=_F(  E = 1.2,
                                NU = 0.3,
                                RHO = 7800.,
                                ALPHA = 1.2),
                         THER=_F(  RHO_CP = 1.4,
                                LAMBDA = 0.8) )

MAT2=DEFI_MATERIAU(    ELAS_FO=_F(  E = FO1,
                                   NU = FO2,
                                   RHO = 7820.,
                                   ALPHA = FO3,TEMP_DEF_ALPHA=6.9),
                         THER=_F(  RHO_CP = 1.2,
                                LAMBDA = 0.9) )

MAT3=DEFI_MATERIAU(    ELAS_ISTR=_F(  E_L = 1.5,
                                     E_N = 0.4,
                                     NU_LT = 0.25,
                                     NU_LN = 0.4,
                                     G_LN = 3.1E1,
                                     RHO = 8500.,
                                     ALPHA_L = 2.1,
                                     ALPHA_N = 0.8),
                         THER=_F(  RHO_CP = 2.2,
                                LAMBDA = 1.9) )

MAT4=DEFI_MATERIAU(    ELAS_ISTR_FO=_F(  E_L = FO1,
                                        E_N = FO13,
                                        NU_LT = FO2,
                                        NU_LN = FO14,
                                        G_LN = FO16,
                                        RHO = 6700.,
                                        ALPHA_L = FO3,
                                        ALPHA_N = FO15,
                                        TEMP_DEF_ALPHA=11.7),
                         THER=_F(  RHO_CP = 2.7,
                                LAMBDA = 0.4) )

MAT5=DEFI_MATERIAU(    ELAS_ORTH=_F(  E_L = 1.6,
                                     E_T = 0.8,
                                     E_N = 2.8,
                                     NU_LT = 0.4,
                                     NU_LN = 0.3,
                                     NU_TN = 0.4,
                                     G_LT = 1.1E1,
                                     G_LN = 2.2E1,
                                     G_TN = 3.5E1,
                                     RHO = 6820.,
                                     ALPHA_L = 3.2,
                                     ALPHA_T = 1.9,
                                     ALPHA_N = 1.7,
                                     XT = 1.2,
                                     XC = 3.5,
                                     YT = 2.7,
                                     YC = 3.4,
                                     S_LT = 2.6),
                         THER=_F(  RHO_CP = 3.2,
                                LAMBDA = 1.9) )

MAT6=DEFI_MATERIAU(    ELAS_ORTH_FO=_F(  E_L = FO1,
                                        E_T = FO13,
                                        E_N = FO1,
                                        NU_LT = FO2_NU,
                                        NU_LN = FO14,
                                        NU_TN = FO14,
                                        G_LT = FO16,
                                        G_LN = FO17,
                                        G_TN = FO16,
                                        RHO = 5240.,
                                        ALPHA_L = FO3,
                                        ALPHA_T = FO15,
                                        ALPHA_N = FO15,
                                        TEMP_DEF_ALPHA=0.),
                         THER=_F(  RHO_CP = 2.5,
                                LAMBDA = 1.7) )

CHMAT=AFFE_MATERIAU(    MAILLAGE=MA,AFFE=(
                          _F(  TOUT = 'OUI',
                                 MATER = MAT1,
                                 TEMP_REF = 4.8),
                          _F(  GROUP_MA = 'GMA0',
                                 MATER = MAT2,
                                 TEMP_REF = 6.9),
                          _F(  GROUP_MA = 'GMA9',
                                 MATER = MAT3),
                          _F(  GROUP_MA = 'GMA10',
                                 MATER = MAT4,
                                 TEMP_REF = 11.7),
                          _F(  GROUP_MA = 'GMA11',
                                 MATER = MAT5),
                          _F(  GROUP_MA = 'GMA12',
                                 MATER = MAT6)) )

# DANS CHAQUE GROUP_MA, TOUS LES TYPES DE MAILLES SONT REPRESENTES

# ----------------------------------------------------------------------
#    AFFECTATION DES CHARGEMENTS ET DES CONDITIONS LIMITES
# ----------------------------------------------------------------------
CHTHF=AFFE_CHAR_THER_F(       MODELE=MOTH,TEMP_IMPO=(
                             _F(  TOUT = 'OUI',
                                         TEMP = FO11),
                             _F(  NOEUD = ('N85', 'N109', 'N38', 'N143',),
                                         TEMP = FO10)) )

THLIN=THER_LINEAIRE(        MODELE=MOTH,
                          CHAM_MATER=CHMAT,
                           CARA_ELEM=CARA1,
                           INCREMENT=_F(  LIST_INST = LR1),
                               EXCIT=_F(  CHARGE = CHTHF) )

TEST_RESU(RESU=( _F(  RESULTAT = THLIN,   NUME_ORDRE = 0,
                     TYPE_TEST = 'SOMM_ABS',
                     NOM_CHAM = 'TEMP',
       REFERENCE = 'NON_REGRESSION', PRECISION = 1.E-10, VERSION = '6.0.24',
                  VALE = 5.1641329766713E+02),
                   _F(  RESULTAT = THLIN,   NUME_ORDRE = 1,
                     TYPE_TEST = 'SOMM_ABS',
                     NOM_CHAM = 'TEMP',
       REFERENCE = 'NON_REGRESSION', PRECISION = 1.E-10, VERSION = '6.0.24',
                  VALE = 5.4581384228580E+02),
                   _F(  RESULTAT = THLIN, NUME_ORDRE = 2,
                     TYPE_TEST = 'SOMM_ABS',
                     NOM_CHAM = 'TEMP',
       REFERENCE = 'NON_REGRESSION', PRECISION = 1.E-10, VERSION = '6.0.24',
                  VALE = 5.9073538825513E+02)))

CHMEC=AFFE_CHAR_MECA(           MODELE=MO,
                               VERI_NORM='NON',
                           TEMP_CALCULEE=THLIN,
                               PESANTEUR=(9.8,  0.3,  0.1, -0.4,),
                                ROTATION=(0.2,  0.5, -0.2,  0.2,),
#  ----  MAILLES 2D
                           FORCE_INTERNE=_F(  MAILLE = ('M42', 'M77',),
                                           FX = 0.84),
                           EPSI_INIT=_F(  MAILLE = 'M67',
                                       EPXX = 2.2),
#  ----  MAILLES DE FACE 1D
                           FACE_IMPO=_F(  MAILLE = 'M101',
                                       DNOR = -6.07),
                           FORCE_CONTOUR=_F(  MAILLE = 'M126',
                                           FX = 2.01E1,
                                           FY = 1.05E1),
                           PRES_REP=_F(  MAILLE = 'M120',
                                      PRES = -1.07E1),
#  ----  MAILLES DE TYPE QUELCONQUE
                           LIAISON_GROUP=_F(  MAILLE_1 = 'M87',
                                           GROUP_MA_2 = 'GMA6',
                                           DDL_1 = 'DX',
                                           COEF_MULT_1 = 1.8,
                                           DDL_2 = 'DY',
                                           COEF_MULT_2 = 0.7,
                                           COEF_IMPO = -5.22,
                                           TRAN = (1.6, 1.1,),
                                           SOMMET = 'OUI'),
                           LIAISON_UNIF=_F(  MAILLE = 'M24',
                                          DDL = ('DX', 'DY',)),LIAISON_SOLIDE=(
                           _F(  MAILLE = ('M31', 'M135',),
                                            NUME_LAGR = 'NORMAL'),
                           _F(  NOEUD = ('N37', 'N195',),
                                            NUME_LAGR = 'NORMAL')),
#  ----  NOEUDS
                           DDL_IMPO=_F(  NOEUD = 'N130',
                                      DY = 7.1),
                           LIAISON_DDL=_F(  NOEUD = ('N97', 'N97',),
                                         DDL = ('DY', 'DX',),
                                         COEF_MULT = (1.3,   1.1,),
                                         COEF_IMPO = 6.1),
                           LIAISON_OBLIQUE=_F(  NOEUD = 'N76',
                                             ANGL_NAUT = (18.7, 35.1,),
                                             DX = 5.95),
                           FORCE_NODALE=_F(  NOEUD = 'N30',
                                          FX = 0.86,
                                          FY = 0.98,
                                          ANGL_NAUT = (25.8, 7.1, 29.3,)))

CHMETH=AFFE_CHAR_MECA(         MODELE=MO,
                            TEMP_CALCULEE=THLIN)

CHMECF=AFFE_CHAR_MECA_F(         MODELE=MO,
                                VERI_NORM='NON',

#  ----  MAILLES 2D
                              FORCE_INTERNE=_F(  GROUP_MA = 'GMA1',
                                              FY = FO4),
                              EPSI_INIT=_F(  GROUP_MA = 'GMA2',
                                          EPYY = FO7),
#  ----  MAILLES DE BORD 1D
                              FACE_IMPO=_F(  GROUP_MA = 'GMA3',
                                          DX = FO9),
                              FORCE_CONTOUR=_F(  GROUP_MA = 'GMA4',
                                              FX = FO6),
                              PRES_REP=_F(  GROUP_MA = 'GMA5',
                                         CISA_2D = FO6),
#  ----  MAILLES DE TYPE QUELCONQUE
                              LIAISON_UNIF=_F(  GROUP_MA = 'GMA7',
                                             DDL = 'DY'),
#  ----  NOEUDS
                              DDL_IMPO=_F(  GROUP_NO = 'GNO1',
                                         DY = FO7),
                              LIAISON_DDL=_F(  GROUP_NO = 'GNO2',
                                            DDL = ('DX', 'DY',),
                                            COEF_MULT = (2.5,  -1.3,),
                                            COEF_IMPO = FO9),
                              LIAISON_OBLIQUE=_F(  GROUP_NO = 'GNO3',
                                                ANGL_NAUT = (-25.4, 2.7,
                                                              18.9, ),
                                                DX = FO9),
                              LIAISON_GROUP=_F(  NOEUD_1 = ('N145', 'N168',),
                                              GROUP_NO_2 = 'GNO4',
                                              SANS_NOEUD = 'N168',
                                              DDL_1 = ('DY', 'DX',),
                                              COEF_MULT_1 = (1.1,  -3.7,),
                                              DDL_2 = 'DX',
                                              COEF_MULT_2 = 2.8,
                                              COEF_IMPO = FO8,
                                             TRAN = (-0.2, -3.1,)),
                              FORCE_NODALE=_F(  GROUP_NO = 'GNO6',
                                             FY = FO6) )

CHCI=AFFE_CHAR_CINE(       MODELE=MO,
                          MECA_IMPO=_F(  NOEUD = 'N199',
                                      DY = 0.0) )

CHCIF=AFFE_CHAR_CINE_F(       MODELE=MO,
                             MECA_IMPO=_F(  GROUP_NO = 'GNO7',
                                         DX = FO7,
                                         DY = FO9) )

MATELEM1=CALC_MATR_ELEM(        OPTION='RIGI_MECA',
                                  MODELE=MO,
                              CHAM_MATER=CHMAT,
                               CARA_ELEM=CARA1,
                                 CHARGE=(CHMEC, CHMECF, ),
                                    INST=2.9 )

MATELEM2=CALC_MATR_ELEM(        OPTION='MASS_MECA',
                                  MODELE=MO,
                              CHAM_MATER=CHMAT,
                               CARA_ELEM=CARA1,
                                 CHARGE=(CHMEC, CHMECF, ),
                                    INST=1.9 )

# ----------------------------------------------------------------------
#   COMMANDES GLOBALES DE MECANIQUE : STATIQUE LINEAIRE
# ----------------------------------------------------------------------

MSLIN=MECA_STATIQUE(        MODELE=MO,
                           CHAM_MATER=CHMAT,
                            CARA_ELEM=CARA1,
                           EXCIT=_F(  CHARGE = CHMEC,
                                   FONC_MULT = FO11),
                           LIST_INST=LR1,
                         )

CALC_ELEM( reuse= MSLIN ,RESULTAT= MSLIN ,         
                           
                           LIST_INST=LR1,
                           OPTION=(
                             'SIGM_ELNO_DEPL',
                                   'EPME_ELNO_DEPL', 'EPME_ELGA_DEPL',
                                   'EPOT_ELEM_DEPL', 'EPSI_ELGA_DEPL',
                                   'EPSI_ELNO_DEPL', 'EQUI_ELNO_SIGM',
                                   'EQUI_ELGA_SIGM', 'EQUI_ELNO_EPSI',
                                   'EQUI_ELGA_EPSI',  ) )

TEST_RESU(RESU=( _F(  RESULTAT = MSLIN,    NUME_ORDRE = 1,
                     NOM_CHAM = 'DEPL',
                     TYPE_TEST = 'SOMM_ABS',
       REFERENCE = 'NON_REGRESSION', PRECISION = 1.E-10, VERSION = '6.0.24',
                  VALE = 1.7670678382530E+09),
                   _F(  RESULTAT = MSLIN,    NUME_ORDRE = 2,
                     NOM_CHAM = 'DEPL',
                     TYPE_TEST = 'SOMM_ABS',
       REFERENCE = 'NON_REGRESSION', PRECISION = 1.E-10, VERSION = '6.0.24',
                  VALE = 1.7917683450377E+09),
                   _F(  RESULTAT = MSLIN,    NUME_ORDRE = 3,
                     NOM_CHAM = 'DEPL',
                     TYPE_TEST = 'SOMM_ABS',
       REFERENCE = 'NON_REGRESSION', PRECISION = 1.E-10, VERSION = '6.0.24',
                  VALE = 1.8164688309353E+09),
                   _F(  RESULTAT = MSLIN,    NUME_ORDRE = 1,
                     NOM_CHAM = 'SIEF_ELGA_DEPL',
                     TYPE_TEST = 'SOMM_ABS',
       REFERENCE = 'NON_REGRESSION', PRECISION = 1.E-10, VERSION = '6.0.24',
                  VALE = 5.5350421913180E+08),
                   _F(  RESULTAT = MSLIN,    NUME_ORDRE = 2,
                     NOM_CHAM = 'SIEF_ELGA_DEPL',
                     TYPE_TEST = 'SOMM_ABS',
       REFERENCE = 'NON_REGRESSION', PRECISION = 1.E-10, VERSION = '6.0.24',
                  VALE = 5.6114607139486E+08),
                   _F(  RESULTAT = MSLIN,    NUME_ORDRE = 3,
                     NOM_CHAM = 'SIEF_ELGA_DEPL',
                     TYPE_TEST = 'SOMM_ABS',
       REFERENCE = 'NON_REGRESSION', PRECISION = 1.E-10, VERSION = '6.0.24',
                  VALE = 5.6878323576000E+08),
                   _F(  RESULTAT = MSLIN,    NUME_ORDRE = 1,
                     NOM_CHAM = 'SIGM_ELNO_DEPL',
                     TYPE_TEST = 'SOMM_ABS',
       REFERENCE = 'NON_REGRESSION', PRECISION = 1.E-10, VERSION = '6.0.24',
                  VALE = 1.0256392134904E+09),
                   _F(  RESULTAT = MSLIN,    NUME_ORDRE = 2,
                     NOM_CHAM = 'SIGM_ELNO_DEPL',
                     TYPE_TEST = 'SOMM_ABS',
       REFERENCE = 'NON_REGRESSION', PRECISION = 1.E-10, VERSION = '6.0.24',
                  VALE = 1.0396270052097E+09),
                   _F(  RESULTAT = MSLIN,    NUME_ORDRE = 3,
                     NOM_CHAM = 'SIGM_ELNO_DEPL',
                     TYPE_TEST = 'SOMM_ABS',
       REFERENCE = 'NON_REGRESSION', PRECISION = 1.E-10, VERSION = '6.0.24',
                  VALE = 1.0536009930014E+09),
                   _F(  RESULTAT = MSLIN,    NUME_ORDRE = 1,
                     NOM_CHAM = 'EPME_ELNO_DEPL',
                     TYPE_TEST = 'SOMM_ABS',
       REFERENCE = 'NON_REGRESSION', PRECISION = 1.E-10, VERSION = '6.0.24',
                  VALE = 5.2113049488582E+08),
                   _F(  RESULTAT = MSLIN,    NUME_ORDRE = 2,
                     NOM_CHAM = 'EPME_ELNO_DEPL',
                     TYPE_TEST = 'SOMM_ABS',
       REFERENCE = 'NON_REGRESSION', PRECISION = 1.E-10, VERSION = '6.0.24',
                  VALE = 5.2824485056874E+08),
                   _F(  RESULTAT = MSLIN,    NUME_ORDRE = 3,
                     NOM_CHAM = 'EPME_ELNO_DEPL',
                     TYPE_TEST = 'SOMM_ABS',
       REFERENCE = 'NON_REGRESSION', PRECISION = 1.E-10, VERSION = '6.0.24',
                  VALE = 5.3535260590723E+08),
                   _F(  RESULTAT = MSLIN,    NUME_ORDRE = 1,
                     NOM_CHAM = 'EPME_ELGA_DEPL',
                     TYPE_TEST = 'SOMM_ABS',
       REFERENCE = 'NON_REGRESSION', PRECISION = 1.E-10, VERSION = '6.0.24',
                  VALE = 2.7898367484231E+08),
                   _F(  RESULTAT = MSLIN,    NUME_ORDRE = 2,
                     NOM_CHAM = 'EPME_ELGA_DEPL',
                     TYPE_TEST = 'SOMM_ABS',
       REFERENCE = 'NON_REGRESSION', PRECISION = 1.E-10, VERSION = '6.0.24',
                  VALE = 2.8281524661330E+08),
                   _F(  RESULTAT = MSLIN,    NUME_ORDRE = 3,
                     NOM_CHAM = 'EPME_ELGA_DEPL',
                     TYPE_TEST = 'SOMM_ABS',
       REFERENCE = 'NON_REGRESSION', PRECISION = 1.E-10, VERSION = '6.0.24',
                  VALE = 2.8664410284312E+08),
                   _F(  RESULTAT = MSLIN,    NUME_ORDRE = 1,
                     NOM_CHAM = 'EPOT_ELEM_DEPL',
                     TYPE_TEST = 'SOMM_ABS',
       REFERENCE = 'NON_REGRESSION', PRECISION = 1.E-10, VERSION = '6.3.20',
                  VALE = 3.3564158486059E+13),
                   _F(  RESULTAT = MSLIN,    NUME_ORDRE = 2,
                     NOM_CHAM = 'EPOT_ELEM_DEPL',
                     TYPE_TEST = 'SOMM_ABS',
       REFERENCE = 'NON_REGRESSION', PRECISION = 1.E-10, VERSION = '6.3.20',
                  VALE = 3.4470522028349E+13),
                   _F(  RESULTAT = MSLIN,    NUME_ORDRE = 3,
                     NOM_CHAM = 'EPOT_ELEM_DEPL',
                     TYPE_TEST = 'SOMM_ABS',
       REFERENCE = 'NON_REGRESSION', PRECISION = 1.E-10, VERSION = '6.3.20',
                  VALE = 3.5387542552638E+13),
                   _F(  RESULTAT = MSLIN,    NUME_ORDRE = 1,
                     NOM_CHAM = 'EPSI_ELGA_DEPL',
                     TYPE_TEST = 'SOMM_ABS',
       REFERENCE = 'NON_REGRESSION', PRECISION = 1.E-10, VERSION = '6.0.24',
                  VALE = 2.7898329422143E+08),
                   _F(  RESULTAT = MSLIN,    NUME_ORDRE = 2,
                     NOM_CHAM = 'EPSI_ELGA_DEPL',
                     TYPE_TEST = 'SOMM_ABS',
       REFERENCE = 'NON_REGRESSION', PRECISION = 1.E-10, VERSION = '6.0.24',
                  VALE = 2.8281486380494E+08),
                   _F(  RESULTAT = MSLIN,    NUME_ORDRE = 3,
                     NOM_CHAM = 'EPSI_ELGA_DEPL',
                     TYPE_TEST = 'SOMM_ABS',
       REFERENCE = 'NON_REGRESSION', PRECISION = 1.E-10, VERSION = '6.0.24',
                  VALE = 2.8664371785315E+08),
                   _F(  RESULTAT = MSLIN,    NUME_ORDRE = 1,
                     NOM_CHAM = 'EPSI_ELNO_DEPL',
                     TYPE_TEST = 'SOMM_ABS',
       REFERENCE = 'NON_REGRESSION', PRECISION = 1.E-10, VERSION = '6.0.24',
                  VALE = 5.2113005676399E+08),
                   _F(  RESULTAT = MSLIN,    NUME_ORDRE = 2,
                     NOM_CHAM = 'EPSI_ELNO_DEPL',
                     TYPE_TEST = 'SOMM_ABS',
       REFERENCE = 'NON_REGRESSION', PRECISION = 1.E-10, VERSION = '6.0.24',
                  VALE = 5.2824441278037E+08),
                   _F(  RESULTAT = MSLIN,    NUME_ORDRE = 3,
                     NOM_CHAM = 'EPSI_ELNO_DEPL',
                     TYPE_TEST = 'SOMM_ABS',
       REFERENCE = 'NON_REGRESSION', PRECISION = 1.E-10, VERSION = '6.0.24',
                  VALE = 5.3535216845544E+08),
                   _F(  RESULTAT = MSLIN,    NUME_ORDRE = 1,
                     NOM_CHAM = 'EQUI_ELNO_SIGM',
                     TYPE_TEST = 'SOMM_ABS',
       REFERENCE = 'NON_REGRESSION', PRECISION = 1.E-10, VERSION = '7.01.13',
                  VALE = 2.4865438040759E+09),
                   _F(  RESULTAT = MSLIN,    NUME_ORDRE = 2,
                     NOM_CHAM = 'EQUI_ELNO_SIGM',
                     TYPE_TEST = 'SOMM_ABS',
       REFERENCE = 'NON_REGRESSION', PRECISION = 1.E-10, VERSION = '7.01.13',
                  VALE = 2.5206308539008E+09),
                   _F(  RESULTAT = MSLIN,    NUME_ORDRE = 3,
                     NOM_CHAM = 'EQUI_ELNO_SIGM',
                     TYPE_TEST = 'SOMM_ABS',
       REFERENCE = 'NON_REGRESSION', PRECISION = 1.E-10, VERSION = '7.01.13',
                  VALE = 2.5546903023042E+09),
                   _F(  RESULTAT = MSLIN,    NUME_ORDRE = 1,
                     NOM_CHAM = 'EQUI_ELGA_SIGM',
                     TYPE_TEST = 'SOMM_ABS',
       REFERENCE = 'NON_REGRESSION', PRECISION = 1.E-10, VERSION = '6.0.24',
                  VALE = 1.4826703874404E+09),
                   _F(  RESULTAT = MSLIN,    NUME_ORDRE = 2,
                     NOM_CHAM = 'EQUI_ELGA_SIGM',
                     TYPE_TEST = 'SOMM_ABS',
       REFERENCE = 'NON_REGRESSION', PRECISION = 1.E-10, VERSION = '6.0.24',
                  VALE = 1.5031833417540E+09),
                   _F(  RESULTAT = MSLIN,    NUME_ORDRE = 3,
                     NOM_CHAM = 'EQUI_ELGA_SIGM',
                     TYPE_TEST = 'SOMM_ABS',
       REFERENCE = 'NON_REGRESSION', PRECISION = 1.E-10, VERSION = '6.0.24',
                  VALE = 1.5236856912720E+09),
                   _F(  RESULTAT = MSLIN,    NUME_ORDRE = 1,
                     NOM_CHAM = 'EQUI_ELNO_EPSI',
                     TYPE_TEST = 'SOMM_ABS',
       REFERENCE = 'NON_REGRESSION', PRECISION = 1.E-10, VERSION = '6.0.24',
                  VALE = 1.0926904566510E+09),
                   _F(  RESULTAT = MSLIN,    NUME_ORDRE = 2,
                     NOM_CHAM = 'EQUI_ELNO_EPSI',
                     TYPE_TEST = 'SOMM_ABS',
       REFERENCE = 'NON_REGRESSION', PRECISION = 1.E-10, VERSION = '6.0.24',
                  VALE = 1.1075957507207E+09),
                   _F(  RESULTAT = MSLIN,    NUME_ORDRE = 3,
                     NOM_CHAM = 'EQUI_ELNO_EPSI',
                     TYPE_TEST = 'SOMM_ABS',
       REFERENCE = 'NON_REGRESSION', PRECISION = 1.E-10, VERSION = '6.0.24',
                  VALE = 1.1224872680751E+09),
                   _F(  RESULTAT = MSLIN,    NUME_ORDRE = 1,
                     NOM_CHAM = 'EQUI_ELGA_EPSI',
                     TYPE_TEST = 'SOMM_ABS',
       REFERENCE = 'NON_REGRESSION', PRECISION = 1.E-10, VERSION = '6.0.24',
                  VALE = 5.8582984484862E+08),
                   _F(  RESULTAT = MSLIN,    NUME_ORDRE = 2,
                     NOM_CHAM = 'EQUI_ELGA_EPSI',
                     TYPE_TEST = 'SOMM_ABS',
       REFERENCE = 'NON_REGRESSION', PRECISION = 1.E-10, VERSION = '6.0.24',
                  VALE = 5.9386993945943E+08),
                   _F(  RESULTAT = MSLIN,    NUME_ORDRE = 3,
                     NOM_CHAM = 'EQUI_ELGA_EPSI',
                     TYPE_TEST = 'SOMM_ABS',
       REFERENCE = 'NON_REGRESSION', PRECISION = 1.E-10, VERSION = '6.0.24',
                  VALE = 6.0190440715443E+08))
            )

MSLI2=MECA_STATIQUE(        MODELE=MO,
                          CHAM_MATER=CHMAT,
                           CARA_ELEM=CARA1,EXCIT=(
                          _F(  CHARGE = CHCI,
                                  FONC_MULT = FO12),
                          _F(  CHARGE = CHMECF,
                                 FONC_MULT = FO12),
                          _F(  CHARGE = CHCIF,
                                 FONC_MULT = FO11),
                          _F(  CHARGE = CHMETH)),
                          LIST_INST=LR1)

TEST_RESU(RESU=( _F(  RESULTAT = MSLI2,    NUME_ORDRE = 1,
                     NOM_CHAM = 'DEPL',
                     TYPE_TEST = 'SOMM_ABS',
       REFERENCE = 'NON_REGRESSION', PRECISION = 1.E-10, VERSION = '6.0.24',
                  VALE = 1.8063929377253E+04),
                   _F(  RESULTAT = MSLI2,    NUME_ORDRE = 2,
                     NOM_CHAM = 'DEPL',
                     TYPE_TEST = 'SOMM_ABS',
       REFERENCE = 'NON_REGRESSION', PRECISION = 1.E-10, VERSION = '6.0.24',
                  VALE = 1.8106854736266E+04),
                   _F(  RESULTAT = MSLI2,    NUME_ORDRE = 3,
                     NOM_CHAM = 'DEPL',
                     TYPE_TEST = 'SOMM_ABS',
       REFERENCE = 'NON_REGRESSION', PRECISION = 1.E-10, VERSION = '6.0.24',
                  VALE = 1.8164541501513E+04))
            )

# ----------------------------------------------------------------------
#   POST_TRAITEMENT DU CALCUL
# ----------------------------------------------------------------------
CALC_ELEM( reuse=MSLI2,       
                           OPTION=( 'SIGM_ELNO_DEPL',
                                    'EPME_ELGA_DEPL',
                                    'ERRE_ELGA_NORE', 'ERRE_ELNO_ELGA',
                                    'EPME_ELNO_DEPL', 'EPOT_ELEM_DEPL',
                                    'EPSG_ELGA_DEPL', 'EPSG_ELNO_DEPL',
                                    'EPSI_ELGA_DEPL', 'EPSI_ELNO_DEPL',
                                    'EQUI_ELNO_SIGM', 'EQUI_ELGA_SIGM',
                                    'EQUI_ELNO_EPSI', 'EQUI_ELGA_EPSI',
                                     ),
                          RESULTAT=MSLI2,
                            
                       NUME_ORDRE=(1, 2, 3,) )

TEST_RESU(RESU=( _F(  RESULTAT = MSLI2,    NUME_ORDRE = 1,
                     NOM_CHAM = 'SIEF_ELGA_DEPL',
                     TYPE_TEST = 'SOMM_ABS',
       REFERENCE = 'NON_REGRESSION', PRECISION = 1.E-10, VERSION = '6.0.24',
                  VALE = 9.7688265188984E+04),
                   _F(  RESULTAT = MSLI2,    NUME_ORDRE = 2,
                     NOM_CHAM = 'SIEF_ELGA_DEPL',
                     TYPE_TEST = 'SOMM_ABS',
       REFERENCE = 'NON_REGRESSION', PRECISION = 1.E-10, VERSION = '6.0.24',
                  VALE = 9.9952459268898E+04),
                   _F(  RESULTAT = MSLI2,    NUME_ORDRE = 3,
                     NOM_CHAM = 'SIEF_ELGA_DEPL',
                     TYPE_TEST = 'SOMM_ABS',
       REFERENCE = 'NON_REGRESSION', PRECISION = 1.E-10, VERSION = '6.0.24',
                  VALE = 1.0226509073612E+05),
                   _F(  RESULTAT = MSLI2,    NUME_ORDRE = 1,
                     NOM_CHAM = 'SIGM_ELNO_DEPL',
                     TYPE_TEST = 'SOMM_ABS',
       REFERENCE = 'NON_REGRESSION', PRECISION = 1.E-10, VERSION = '6.0.24',
                  VALE = 1.4392270425823E+05),
                   _F(  RESULTAT = MSLI2,    NUME_ORDRE = 2,
                     NOM_CHAM = 'SIGM_ELNO_DEPL',
                     TYPE_TEST = 'SOMM_ABS',
       REFERENCE = 'NON_REGRESSION', PRECISION = 1.E-10, VERSION = '6.0.24',
                  VALE = 1.4649458688417E+05),
                   _F(  RESULTAT = MSLI2,    NUME_ORDRE = 3,
                     NOM_CHAM = 'SIGM_ELNO_DEPL',
                     TYPE_TEST = 'SOMM_ABS',
       REFERENCE = 'NON_REGRESSION', PRECISION = 1.E-10, VERSION = '6.0.24',
                  VALE = 1.4911484415561E+05),
                   _F(  RESULTAT = MSLI2,    NUME_ORDRE = 1,
                     NOM_CHAM = 'EPME_ELGA_DEPL',
                     TYPE_TEST = 'SOMM_ABS',
       REFERENCE = 'NON_REGRESSION', PRECISION = 1.E-10, VERSION = '6.0.24',
                  VALE = 3.4886806301480E+04),
                   _F(  RESULTAT = MSLI2,    NUME_ORDRE = 2,
                     NOM_CHAM = 'EPME_ELGA_DEPL',
                     TYPE_TEST = 'SOMM_ABS',
       REFERENCE = 'NON_REGRESSION', PRECISION = 1.E-10, VERSION = '6.0.24',
                  VALE = 3.5609999252411E+04),
                   _F(  RESULTAT = MSLI2,    NUME_ORDRE = 3,
                     NOM_CHAM = 'EPME_ELGA_DEPL',
                     TYPE_TEST = 'SOMM_ABS',
       REFERENCE = 'NON_REGRESSION', PRECISION = 1.E-10, VERSION = '6.0.24',
                  VALE = 3.6350578062396E+04),
                   _F(  RESULTAT = MSLI2,    NUME_ORDRE = 1,
                     NOM_CHAM = 'EPME_ELNO_DEPL',
                     TYPE_TEST = 'SOMM_ABS',
       REFERENCE = 'NON_REGRESSION', PRECISION = 1.E-10, VERSION = '6.0.24',
                  VALE = 5.3111501567746E+04),
                   _F(  RESULTAT = MSLI2,    NUME_ORDRE = 2,
                     NOM_CHAM = 'EPME_ELNO_DEPL',
                     TYPE_TEST = 'SOMM_ABS',
       REFERENCE = 'NON_REGRESSION', PRECISION = 1.E-10, VERSION = '6.0.24',
                  VALE = 5.3970134126233E+04),
                   _F(  RESULTAT = MSLI2,    NUME_ORDRE = 3,
                     NOM_CHAM = 'EPME_ELNO_DEPL',
                     TYPE_TEST = 'SOMM_ABS',
       REFERENCE = 'NON_REGRESSION', PRECISION = 1.E-10, VERSION = '6.3.20',
                  VALE = 5.4871089513006E+04),
                   _F(  RESULTAT = MSLI2,    NUME_ORDRE = 1,
                     NOM_CHAM = 'EPOT_ELEM_DEPL',
                     TYPE_TEST = 'SOMM_ABS',
       REFERENCE = 'NON_REGRESSION', PRECISION = 1.E-10, VERSION = '6.3.20',
                  VALE = 3.9089236693748E+05),
                   _F(  RESULTAT = MSLI2,    NUME_ORDRE = 2,
                     NOM_CHAM = 'EPOT_ELEM_DEPL',
                     TYPE_TEST = 'SOMM_ABS',
       REFERENCE = 'NON_REGRESSION', PRECISION = 1.E-10, VERSION = '6.3.20',
                  VALE = 4.1123720076325E+05),
                   _F(  RESULTAT = MSLI2,    NUME_ORDRE = 3,
                     NOM_CHAM = 'EPOT_ELEM_DEPL',
                     TYPE_TEST = 'SOMM_ABS',
       REFERENCE = 'NON_REGRESSION', PRECISION = 1.E-10, VERSION = '6.0.24',
                  VALE =4.3268847418210E+05),
                   _F(  RESULTAT = MSLI2,    NUME_ORDRE = 1,
                     NOM_CHAM = 'EPSG_ELGA_DEPL',
                     TYPE_TEST = 'SOMM_ABS',
       REFERENCE = 'NON_REGRESSION', PRECISION = 1.E-10, VERSION = '6.0.24',
                  VALE = 1.0722545572006E+07),
                   _F(  RESULTAT = MSLI2,    NUME_ORDRE = 2,
                     NOM_CHAM = 'EPSG_ELGA_DEPL',
                     TYPE_TEST = 'SOMM_ABS',
       REFERENCE = 'NON_REGRESSION', PRECISION = 1.E-10, VERSION = '6.0.24',
                  VALE = 1.1336080017300E+07),
                   _F(  RESULTAT = MSLI2,    NUME_ORDRE = 3,
                     NOM_CHAM = 'EPSG_ELGA_DEPL',
                     TYPE_TEST = 'SOMM_ABS',
       REFERENCE = 'NON_REGRESSION', PRECISION = 1.E-10, VERSION = '6.0.24',
                  VALE = 1.1974571811257E+07),
                   _F(  RESULTAT = MSLI2,    NUME_ORDRE = 1,
                     NOM_CHAM = 'EPSG_ELNO_DEPL',
                     TYPE_TEST = 'SOMM_ABS',
       REFERENCE = 'NON_REGRESSION', PRECISION = 1.E-10, VERSION = '6.0.24',
                  VALE = 8.9587452988404E+06),
                   _F(  RESULTAT = MSLI2,    NUME_ORDRE = 2,
                     NOM_CHAM = 'EPSG_ELNO_DEPL',
                     TYPE_TEST = 'SOMM_ABS',
       REFERENCE = 'NON_REGRESSION', PRECISION = 1.E-10, VERSION = '6.0.24',
                  VALE = 9.4398205809754E+06),
                   _F(  RESULTAT = MSLI2,    NUME_ORDRE = 3,
                     NOM_CHAM = 'EPSG_ELNO_DEPL',
                     TYPE_TEST = 'SOMM_ABS',
       REFERENCE = 'NON_REGRESSION', PRECISION = 1.E-10, VERSION = '6.0.24',
                  VALE = 9.9441497580030E+06),
                   _F(  RESULTAT = MSLI2,    NUME_ORDRE = 1,
                     NOM_CHAM = 'EPSI_ELGA_DEPL',
                     TYPE_TEST = 'SOMM_ABS',
       REFERENCE = 'NON_REGRESSION', PRECISION = 1.E-10, VERSION = '6.0.24',
                  VALE = 3.6022419054721E+04),
                   _F(  RESULTAT = MSLI2,    NUME_ORDRE = 2,
                     NOM_CHAM = 'EPSI_ELGA_DEPL',
                     TYPE_TEST = 'SOMM_ABS',
       REFERENCE = 'NON_REGRESSION', PRECISION = 1.E-10, VERSION = '6.0.24',
                  VALE = 3.6747343411927E+04),
                   _F(  RESULTAT = MSLI2,    NUME_ORDRE = 3,
                     NOM_CHAM = 'EPSI_ELGA_DEPL',
                     TYPE_TEST = 'SOMM_ABS',
       REFERENCE = 'NON_REGRESSION', PRECISION = 1.E-10, VERSION = '6.0.24',
                  VALE = 3.7487095981951E+04),
                   _F(  RESULTAT = MSLI2,    NUME_ORDRE = 1,
                     NOM_CHAM = 'EPSI_ELNO_DEPL',
                     TYPE_TEST = 'SOMM_ABS',
       REFERENCE = 'NON_REGRESSION', PRECISION = 1.E-10, VERSION = '6.0.24',
                  VALE = 5.4542564775347E+04),
                   _F(  RESULTAT = MSLI2,    NUME_ORDRE = 2,
                     NOM_CHAM = 'EPSI_ELNO_DEPL',
                     TYPE_TEST = 'SOMM_ABS',
       REFERENCE = 'NON_REGRESSION', PRECISION = 1.E-10, VERSION = '6.0.24',
                  VALE = 5.5390627181913E+04),
                   _F(  RESULTAT = MSLI2,    NUME_ORDRE = 3,
                     NOM_CHAM = 'EPSI_ELNO_DEPL',
                     TYPE_TEST = 'SOMM_ABS',
       REFERENCE = 'NON_REGRESSION', PRECISION = 1.E-10, VERSION = '6.0.24',
                  VALE = 5.6267525246859E+04),
                   _F(  RESULTAT = MSLI2,    NUME_ORDRE = 1,
                     NOM_CHAM = 'EQUI_ELNO_SIGM',
                     TYPE_TEST = 'SOMM_ABS',
       REFERENCE = 'NON_REGRESSION', PRECISION = 1.E-10, VERSION = '7.01.13',
                  VALE = 3.2670752904854E+05),
                   _F(  RESULTAT = MSLI2,    NUME_ORDRE = 2,
                     NOM_CHAM = 'EQUI_ELNO_SIGM',
                     TYPE_TEST = 'SOMM_ABS',
       REFERENCE = 'NON_REGRESSION', PRECISION = 1.E-10, VERSION = '7.01.13',
                  VALE = 3.3231062167984E+05),
                   _F(  RESULTAT = MSLI2,    NUME_ORDRE = 3,
                     NOM_CHAM = 'EQUI_ELNO_SIGM',
                     TYPE_TEST = 'SOMM_ABS',
       REFERENCE = 'NON_REGRESSION', PRECISION = 1.E-10, VERSION = '7.01.13',
                  VALE = 3.3764082542451E+05),
                   _F(  RESULTAT = MSLI2,    NUME_ORDRE = 1,
                     NOM_CHAM = 'EQUI_ELGA_SIGM',
                     TYPE_TEST = 'SOMM_ABS',
       REFERENCE = 'NON_REGRESSION', PRECISION = 1.E-10, VERSION = '6.0.24',
                  VALE = 2.3934120973217E+05),
                   _F(  RESULTAT = MSLI2,    NUME_ORDRE = 2,
                     NOM_CHAM = 'EQUI_ELGA_SIGM',
                     TYPE_TEST = 'SOMM_ABS',
       REFERENCE = 'NON_REGRESSION', PRECISION = 1.E-10, VERSION = '6.0.24',
                  VALE = 2.4449727163854E+05),
                   _F(  RESULTAT = MSLI2,    NUME_ORDRE = 3,
                     NOM_CHAM = 'EQUI_ELGA_SIGM',
                     TYPE_TEST = 'SOMM_ABS',
       REFERENCE = 'NON_REGRESSION', PRECISION = 1.E-10, VERSION = '6.0.24',
                  VALE = 2.4974227009302E+05),
                   _F(  RESULTAT = MSLI2,    NUME_ORDRE = 1,
                     NOM_CHAM = 'EQUI_ELNO_EPSI',
                     TYPE_TEST = 'SOMM_ABS',
       REFERENCE = 'NON_REGRESSION', PRECISION = 1.E-10, VERSION = '6.0.24',
                  VALE = 1.0802699431135E+05),
                   _F(  RESULTAT = MSLI2,    NUME_ORDRE = 2,
                     NOM_CHAM = 'EQUI_ELNO_EPSI',
                     TYPE_TEST = 'SOMM_ABS',
       REFERENCE = 'NON_REGRESSION', PRECISION = 1.E-10, VERSION = '6.0.24',
                  VALE = 1.0968082640177E+05),
                   _F(  RESULTAT = MSLI2,    NUME_ORDRE = 3,
                     NOM_CHAM = 'EQUI_ELNO_EPSI',
                     TYPE_TEST = 'SOMM_ABS',
       REFERENCE = 'NON_REGRESSION', PRECISION = 1.E-10, VERSION = '6.0.24',
                  VALE = 1.1137238634002E+05),
                   _F(  RESULTAT = MSLI2,    NUME_ORDRE = 1,
                     NOM_CHAM = 'EQUI_ELGA_EPSI',
                     TYPE_TEST = 'SOMM_ABS',
       REFERENCE = 'NON_REGRESSION', PRECISION = 1.E-10, VERSION = '6.0.24',
                  VALE = 7.2675095404951E+04),
                   _F(  RESULTAT = MSLI2,    NUME_ORDRE = 2,
                     NOM_CHAM = 'EQUI_ELGA_EPSI',
                     TYPE_TEST = 'SOMM_ABS',
       REFERENCE = 'NON_REGRESSION', PRECISION = 1.E-10, VERSION = '6.0.24',
                  VALE = 7.4099615033673E+04),
                   _F(  RESULTAT = MSLI2,    NUME_ORDRE = 3,
                     NOM_CHAM = 'EQUI_ELGA_EPSI',
                     TYPE_TEST = 'SOMM_ABS',
       REFERENCE = 'NON_REGRESSION', PRECISION = 1.E-10, VERSION = '6.0.24',
                  VALE = 7.5551268189078E+04))
            )

CALC_NO( reuse=MSLI2,       OPTION=( 'EPSI_NOEU_DEPL', 'EQUI_NOEU_SIGM',
                                  'EQUI_NOEU_EPSI', 'SIGM_NOEU_DEPL', ),
                       RESULTAT=MSLI2,
                      
                      PRECISION=1.000000000E-03,
                        CRITERE='ABSOLU',
                           INST=11.5   )

TEST_RESU(RESU=( _F(  RESULTAT = MSLI2,    INST = 11.5,
                     NOM_CHAM = 'EPSI_NOEU_DEPL',
                     TYPE_TEST = 'SOMM_ABS',
       REFERENCE = 'NON_REGRESSION', PRECISION = 1.E-10, VERSION = '6.0.24',
                  VALE = 1.6089278300051E+04),
                   _F(  RESULTAT = MSLI2,    INST = 11.5,
                     NOM_CHAM = 'EQUI_NOEU_SIGM',
                     TYPE_TEST = 'SOMM_ABS',
       REFERENCE = 'NON_REGRESSION', PRECISION = 1.E-10, VERSION = '7.01.13',
                  VALE = 1.0889099742762E+05),
                   _F(  RESULTAT = MSLI2,    INST = 11.5,
                     NOM_CHAM = 'EQUI_NOEU_EPSI',
                     TYPE_TEST = 'SOMM_ABS',
       REFERENCE = 'NON_REGRESSION', PRECISION = 1.E-10, VERSION = '6.0.24',
                  VALE = 4.0313406012680E+04),
                   _F(  RESULTAT = MSLI2,    INST = 11.5,
                     NOM_CHAM = 'SIGM_NOEU_DEPL',
                     TYPE_TEST = 'SOMM_ABS',
       REFERENCE = 'NON_REGRESSION', PRECISION = 1.E-10, VERSION = '6.0.24',
                  VALE = 3.2133856696587E+04))
            )

CHAMNO1=CREA_CHAMP(  OPERATION='EXTR', TYPE_CHAM='NOEU_DEPL_R',
NOM_CHAM='DEPL', RESULTAT=MSLI2,
                       INST=0.7,
                       INTERPOL='LIN'
                        )

TEST_RESU( CHAM_NO=_F(  CHAM_GD = CHAMNO1,
                        TYPE_TEST = 'SOMM_ABS',
       REFERENCE = 'NON_REGRESSION', PRECISION = 1.E-10, VERSION = '6.0.24',
                  VALE = 1.8069549034564E+04))

CHAMEL1=CREA_CHAMP(  OPERATION='EXTR', TYPE_CHAM='ELGA_SIEF_R',
NOM_CHAM='SIEF_ELGA_DEPL', RESULTAT=MSLI2,
                       INST=1.8,
                       INTERPOL='LIN'
                        )

TEST_RESU( CHAM_ELEM=_F(  CHAM_GD = CHAMEL1,
                          TYPE_TEST = 'SOMM_ABS',
       REFERENCE = 'NON_REGRESSION', PRECISION = 1.E-10, VERSION = '6.0.24',
                  VALE = 9.8551493269441E+04))

CHAMEL2=CREA_CHAMP(  OPERATION='EXTR', TYPE_CHAM='ELGA_EPSI_R',
NOM_CHAM='EPSI_ELGA_DEPL', RESULTAT=MSLI2,
                       INST=1.8,
                       INTERPOL='LIN'
                        )

TEST_RESU( CHAM_ELEM=_F(  CHAM_GD = CHAMEL2,
                          TYPE_TEST = 'SOMM_ABS',
       REFERENCE = 'NON_REGRESSION', PRECISION = 1.E-10, VERSION = '6.0.24',
                  VALE = 3.6298726381941E+04))

CHAMEL3=CREA_CHAMP(  OPERATION='EXTR', TYPE_CHAM='ELNO_SIEF_R',
NOM_CHAM='SIGM_ELNO_DEPL', RESULTAT=MSLI2,
                       INST=1.8,
                       INTERPOL='LIN'
                        )

TEST_RESU( CHAM_ELEM=_F(  CHAM_GD = CHAMEL3,
                          TYPE_TEST = 'SOMM_ABS',
       REFERENCE = 'NON_REGRESSION', PRECISION = 1.E-10, VERSION = '6.0.24',
                  VALE = 1.4490369678049E+05))

CHAMEL4=CREA_CHAMP(  OPERATION='EXTR', TYPE_CHAM='ELNO_EPSI_R',
NOM_CHAM='EPSI_ELNO_DEPL', RESULTAT=MSLI2,
                       INST=7.1,
                       INTERPOL='LIN'
                        )

TEST_RESU( CHAM_ELEM=_F(  CHAM_GD = CHAMEL4,
                          TYPE_TEST = 'SOMM_ABS',
       REFERENCE = 'NON_REGRESSION', PRECISION = 1.E-10, VERSION = '6.0.24',
                  VALE = 5.5621482406824E+04))

CHAMELG=CALC_CHAM_ELEM(        MODELE=MO,
                             CHAM_MATER=CHMAT,
                              CARA_ELEM=CARA1,
                             GROUP_MA='GMA8',
                             OPTION='COOR_ELGA' )

TEST_RESU( CHAM_ELEM=_F(  CHAM_GD = CHAMELG,
                          MAILLE = 'M71',
                          POINT = 2,
                          NOM_CMP = 'Y',
       REFERENCE = 'NON_REGRESSION', PRECISION = 1.E-10, VERSION = '6.0.24',
                  VALE = 1.7298888888889E+00))

TEST_RESU( CHAM_ELEM=_F(  CHAM_GD = CHAMELG,
                          MAILLE = 'M88',
                          POINT = 9,
                          NOM_CMP = 'X',
       REFERENCE = 'NON_REGRESSION', PRECISION = 1.E-10, VERSION = '6.0.24',
                  VALE = 3.2263000000000E+00))


TABLE1=POST_ELEM(        MODELE=MO,
                        CHAM_MATER=CHMAT,
                         CARA_ELEM=CARA1,
                             TITRE='MASSE INERTIE ET CENTRE DE GRAVITE',MASS_INER=(
                         _F( GROUP_MA = 'GMA8'),
                         _F( TOUT = 'OUI'),
                         _F( MAILLE = 'M54')) )

TEST_TABLE(      TABLE=TABLE1,       NOM_PARA='MASSE',
                TYPE_TEST='SOMM_ABS',
       REFERENCE='NON_REGRESSION', PRECISION=1.E-10, VERSION='6.0.24',
                   VALE=4.9864193751426E+05      )

TEST_TABLE(      TABLE=TABLE1,       NOM_PARA='CDG_X',
                TYPE_TEST='SOMM_ABS',
       REFERENCE='NON_REGRESSION', PRECISION=1.E-10, VERSION='6.0.24',
                   VALE=9.7157727248731E+00      )

TEST_TABLE(      TABLE=TABLE1,       NOM_PARA='CDG_Y',
                TYPE_TEST='SOMM_ABS',
       REFERENCE='NON_REGRESSION', PRECISION=1.E-10, VERSION='6.0.24',
                    VALE=8.4771084242619E+00     )

TEST_TABLE(      TABLE=TABLE1,       NOM_PARA='CDG_Z',
                TYPE_TEST='SOMM_ABS',
                  CRITERE='ABSOLU',
       REFERENCE='NON_REGRESSION', PRECISION=1.E-10, VERSION='6.0.24',
                   VALE=0.0000000000000E+00      )

TEST_TABLE(      TABLE=TABLE1,       NOM_PARA='IX_G',
                TYPE_TEST='SOMM_ABS',
       REFERENCE='NON_REGRESSION', PRECISION=1.E-10, VERSION='6.0.24',
                   VALE=3.9970200816899E+06      )

TEST_TABLE(      TABLE=TABLE1,       NOM_PARA='IY_G',
                TYPE_TEST='SOMM_ABS',
       REFERENCE='NON_REGRESSION', PRECISION=1.E-10, VERSION='6.0.24',
                   VALE=1.5461545423028E+06      )

TEST_TABLE(      TABLE=TABLE1,       NOM_PARA='IZ_G',
                TYPE_TEST='SOMM_ABS',
       REFERENCE='NON_REGRESSION', PRECISION=1.E-10, VERSION='6.0.24',
                   VALE=5.5431746239927E+06      )

TEST_TABLE(      TABLE=TABLE1,       NOM_PARA='IXY_G',
                TYPE_TEST='SOMM_ABS',
       REFERENCE='NON_REGRESSION', PRECISION=1.E-10, VERSION='6.0.24',
                   VALE=2.1213984797414E+04      )

TEST_TABLE(      TABLE=TABLE1,       NOM_PARA='IXZ_G',
                  CRITERE='ABSOLU',
                TYPE_TEST='SOMM_ABS',
       REFERENCE='NON_REGRESSION', PRECISION=1.E-10, VERSION='6.0.24',
                   VALE=0.0000000000000E+00      )

TEST_TABLE(      TABLE=TABLE1,       NOM_PARA='IYZ_G',
                  CRITERE='ABSOLU',
                TYPE_TEST='SOMM_ABS',
       REFERENCE='NON_REGRESSION', PRECISION=1.E-10, VERSION='6.0.24',
                   VALE=0.0000000000000E+00      )

TEST_TABLE(      TABLE=TABLE1,       NOM_PARA='IX_PRIN_G',
                TYPE_TEST='SOMM_ABS',
       REFERENCE='NON_REGRESSION', PRECISION=1.E-10, VERSION='6.0.24',
                   VALE=1.5442590526860E+06      )

TEST_TABLE(      TABLE=TABLE1,       NOM_PARA='IY_PRIN_G',
                TYPE_TEST='SOMM_ABS',
       REFERENCE='NON_REGRESSION', PRECISION=1.E-10, VERSION='6.0.24',
                   VALE=3.9989155713066E+06      )

TEST_TABLE(      TABLE=TABLE1,       NOM_PARA='IZ_PRIN_G',
                TYPE_TEST='SOMM_ABS',
       REFERENCE='NON_REGRESSION', PRECISION=1.E-10, VERSION='6.0.24',
                   VALE=5.5431746239927E+06      )

TEST_TABLE(      TABLE=TABLE1,       NOM_PARA='ALPHA',
                TYPE_TEST='SOMM_ABS',
       REFERENCE='NON_REGRESSION', PRECISION=1.E-10, VERSION='6.0.24',
                   VALE=2.0545875956585E+02      )

TEST_TABLE(      TABLE=TABLE1,       NOM_PARA='BETA',
                TYPE_TEST='SOMM_ABS',
                  CRITERE='ABSOLU',
       REFERENCE='NON_REGRESSION', PRECISION=1.E-10, VERSION='6.0.24',
                   VALE=0.0000000000000E+00      )

TEST_TABLE(      TABLE=TABLE1,       NOM_PARA='GAMMA',
                TYPE_TEST='SOMM_ABS',
       REFERENCE='NON_REGRESSION', PRECISION=1.E-10, VERSION='6.0.24',
                   VALE=3.6000000000000E+02      )

TABLE2=POST_ELEM(        
                          RESULTAT=MSLI2,
                              INST=5.5,
                          ENER_POT=_F( TOUT = 'OUI',
                                    GROUP_MA = 'GMA8',
                                    MAILLE = ('M44', 'M99',)) )

TEST_TABLE(      TABLE=TABLE2,       NOM_PARA='NUME_ORDRE',
                TYPE_TEST='SOMM',
       REFERENCE='NON_REGRESSION', PRECISION=1.E-10, VERSION='6.0.24',
                        VALE_I=8                 )

TEST_TABLE(      TABLE=TABLE2,       NOM_PARA='TOTALE',
                TYPE_TEST='SOMM_ABS',
       REFERENCE='NON_REGRESSION', PRECISION=1.E-10, VERSION='6.3.20',
                   VALE=2.9532922743978E+04      )

TEST_TABLE(      TABLE=TABLE2,       NOM_PARA='POUR_CENT',
                TYPE_TEST='SOMM_ABS',
       REFERENCE='NON_REGRESSION', PRECISION=1.E-10, VERSION='6.3.20',
                   VALE=6.0395344226905E+02      )

CHAMEL13=CREA_CHAMP(  OPERATION='EXTR', TYPE_CHAM='ELNO_SIEF_R',
NOM_CHAM='EQUI_ELNO_SIGM', RESULTAT=MSLI2,
                        INST=6.4,
                        INTERPOL='LIN'   )

TEST_RESU( CHAM_ELEM=_F(  CHAM_GD = CHAMEL13,
                          TYPE_TEST = 'SOMM_ABS',
       REFERENCE = 'NON_REGRESSION', PRECISION = 1.E-10, VERSION = '7.01.13',
                  VALE = 3.3305499508176E+05))

CHAMEL14=CREA_CHAMP(  OPERATION='EXTR', TYPE_CHAM='ELGA_EPSI_R',
NOM_CHAM='EPSI_ELGA_DEPL', RESULTAT=MSLI2,
                        TYPE_MAXI='MINI',
                        TYPE_RESU='VALE',
                        TOUT_ORDRE='OUI' )

TEST_RESU( CHAM_ELEM=_F(  CHAM_GD = CHAMEL14,
                          TYPE_TEST = 'SOMM_ABS',
       REFERENCE = 'NON_REGRESSION', PRECISION = 1.E-10, VERSION = '6.0.24',
                  VALE = 3.6783281756626E+04))

CHAMNO3=CREA_CHAMP(  OPERATION='EXTR', TYPE_CHAM='NOEU_DEPL_R',
NOM_CHAM='DEPL', RESULTAT=MSLI2,
                         TYPE_MAXI='NORM_TRAN',
                         TYPE_RESU='INST',
                         LIST_INST=LR1    )

TEST_RESU( CHAM_NO=_F(  CHAM_GD = CHAMNO3,
                        TYPE_TEST = 'SOMM_ABS',
       REFERENCE = 'NON_REGRESSION', PRECISION = 1.E-10, VERSION = '6.0.24',
                  VALE = 2.3623567625144E+03))

LR3=DEFI_LIST_REEL(         DEBUT=0.,
                         INTERVALLE=_F(  JUSQU_A = 10.,
                                      NOMBRE = 5) )

FO18=RECU_FONCTION(       RESULTAT=MSLI2,
                            NOM_CHAM='SIGM_ELNO_DEPL',
                              MAILLE='M71',
                               NOEUD='N156',
                             NOM_CMP='SIXY',
                           LIST_INST=LR3,
                         INTERP_NUME='LIN',
                            NOM_PARA='INST',
                            NOM_RESU='VITE',
                            INTERPOL=('LIN', 'LOG',),
                          PROL_DROITE='LINEAIRE',
                         PROL_GAUCHE='CONSTANT'  )

FO19=RECU_FONCTION(        CHAM_GD=CHAMEL2,
                              MAILLE='M88',
                               POINT=2,
                             NOM_CMP='EPXX',
                            INTERPOL=('LIN', 'LOG',),
                          PROL_DROITE='CONSTANT',
                         PROL_GAUCHE='CONSTANT'  )

FO20=RECU_FONCTION(        CHAM_GD=CHAMNO1,
                             NOM_CMP='DX',
                               NOEUD='N137',
                            INTERPOL=('LIN', 'LOG',),
                          PROL_DROITE='CONSTANT',
                         PROL_GAUCHE='CONSTANT'  )

FO21=CALC_FONCTION( COMB=(   _F(  FONCTION = FO10,
                                COEF = 5.1),
                         _F(  FONCTION = FO11,
                                COEF = -3.7),
                         _F(  FONCTION = FO12,
                                COEF = 0.8)),
                            NOM_PARA='INST',
                            NOM_RESU='VITE',
                          PROL_DROITE='LINEAIRE',
                         PROL_GAUCHE='LINEAIRE'  )

FO22=CALC_FONCTION(      DERIVE=_F(  FONCTION = FO18) )

FO23=CALC_FONCTION(     INTEGRE=_F(  FONCTION = FO21,
                                    COEF = 1.4) )

FO24=INFO_FONCTION(         MAX=_F(  FONCTION = FO21), )

FO25=CALC_FONCTION(    ENVELOPPE=_F(  FONCTION = ( FO10, FO11, FO12, ),
                                     CRITERE = 'INF') )

FO26=CALC_FONCTION(    ENVELOPPE=_F(  FONCTION = ( FO11, FO12, ),
                                     CRITERE = 'SUP') )

CHEM1=INTE_MAIL_2D(        MAILLAGE=MA,
                          DEFI_CHEMIN=_F(  MAILLE = ('M99', 'M147', 'M148', 'M100',)),
                            PRECISION=1.E-05 )

TABLE3=POST_RELEVE_T( ACTION=(   _F(  NOEUD = ( 'N109', 'N110', 'N111',
                                                      'N104', 'N103', ),
                                    RESULTAT = MSLI2,
                                    NOM_CHAM = 'EPSI_ELNO_DEPL',
                                    NUME_ORDRE = 2,
                                    PRECISION = 1.E-05,
                                    CRITERE = 'RELATIF',
                                    NOM_CMP = ('EPXX', 'EPXY',),
                                    REPERE = 'LOCAL',
                                    TRAC_DIR = 'OUI',
                                    DIRECTION = (0.5, 0.6, 0.3,),
                                    INTITULE = 'TABLE_3A',
                                    OPERATION = 'EXTRACTION'),
                           _F(  CHEMIN = CHEM1,
                                    CHAM_GD = CHAMNO1,
                                    RESULTANTE = ('DY', 'DX',),
                                    INTITULE = 'TABLE_3B',
                                    OPERATION = 'MOYENNE',
                                    MOYE_NOEUD = 'NON')) )

TEST_TABLE(      TABLE=TABLE3,       NOM_PARA='DX',
                TYPE_TEST='SOMM_ABS',
       REFERENCE='NON_REGRESSION', PRECISION=1.E-10, VERSION='6.0.24',
                    VALE=3.0651306957404E+02     )

TEST_TABLE(      TABLE=TABLE3,       NOM_PARA='DY',
                TYPE_TEST='SOMM_ABS',
       REFERENCE='NON_REGRESSION', PRECISION=1.E-10, VERSION='6.0.24',
                    VALE=5.5060082264817E+02     )

TEST_TABLE(      TABLE=TABLE3,       NOM_PARA='TR_DIR_1',
                TYPE_TEST='SOMM',
       REFERENCE='NON_REGRESSION', PRECISION=1.E-10, VERSION='6.0.24',
                    VALE=-1.7908371319604E+02     )

TEST_TABLE(      TABLE=TABLE3,       NOM_PARA='TR_DIR_2',
                TYPE_TEST='SOMM_ABS',
       REFERENCE='NON_REGRESSION', PRECISION=1.E-10, VERSION='6.0.24',
                     VALE=4.4445202851497E+02    )

TEST_TABLE(      TABLE=TABLE3,       NOM_PARA='TR_DIR_2',
                TYPE_TEST='MAX',
       REFERENCE='NON_REGRESSION', PRECISION=1.E-10, VERSION='6.0.24',
                    VALE=7.0735168473361E+01     )

TEST_TABLE(      TABLE=TABLE3,       NOM_PARA='TR_DIR_2',
                TYPE_TEST='MIN',
       REFERENCE='NON_REGRESSION', PRECISION=1.E-10, VERSION='6.0.24',
                    VALE=-2.0364887024225E+02     )

TEST_TABLE(      TABLE=TABLE3,       NOM_PARA='TR_DIR_3',
                TYPE_TEST='SOMM',
                  CRITERE='ABSOLU',
       REFERENCE='NON_REGRESSION', PRECISION=1.E-10, VERSION='6.0.24',
                   VALE=0.0000000000000E+00       )

FIN( )
#
