# MODIF  DATE 20/11/2012   AUTEUR TRAN V-X.TRAN 
# TITRE CALCUL DE K1, K2 EN D_PLAN_INCO_ SUR UNE PLAQUE CIRCULAIRE
# sslp103b.para = tps_job 100 mem_job 256Mo ncpus 1 liste_test S
#            CONFIGURATION MANAGEMENT OF EDF VERSION
# ======================================================================
# COPYRIGHT (C) 1991 - 2012  EDF R&D                  WWW.CODE-ASTER.ORG
# THIS PROGRAM IS FREE SOFTWARE; YOU CAN REDISTRIBUTE IT AND/OR MODIFY  
# IT UNDER THE TERMS OF THE GNU GENERAL PUBLIC LICENSE AS PUBLISHED BY  
# THE FREE SOFTWARE FOUNDATION; EITHER VERSION 2 OF THE LICENSE, OR     
# (AT YOUR OPTION) ANY LATER VERSION.                                                    
#                                                                       
# THIS PROGRAM IS DISTRIBUTED IN THE HOPE THAT IT WILL BE USEFUL, BUT   
# WITHOUT ANY WARRANTY; WITHOUT EVEN THE IMPLIED WARRANTY OF            
# MERCHANTABILITY OR FITNESS FOR A PARTICULAR PURPOSE. SEE THE GNU      
# GENERAL PUBLIC LICENSE FOR MORE DETAILS.                              
#                                                                       
# YOU SHOULD HAVE RECEIVED A COPY OF THE GNU GENERAL PUBLIC LICENSE     
# ALONG WITH THIS PROGRAM; IF NOT, WRITE TO EDF R&D CODE_ASTER,         
#    1 AVENUE DU GENERAL DE GAULLE, 92141 CLAMART CEDEX, FRANCE.        
# ======================================================================

# FISSUREE (FISSURE INCLINEE A 30 DEGRES)
# ETUDE A PARTIR DE LA SOLUTION ANALYTIQUE SINGULIERE EN MODE MIXTE
#

DEBUT(CODE=_F(NOM='SSLP103B',NIV_PUB_WEB='INTERNET'),DEBUG=_F(SDVERI='OUI'))

# EMPLOI DE FORMULE POUR DEFINIR LA SOLUTION ANALYTIQUE SINGULIERE
# EN DEPLACEMENT SUR LE POURTOUR (RAYON R=100MM)
#   NU = 0.3
#
K1=2.

K2=1.

KDP=1.8

KCP=2.7/1.3

A0=8.6602540379999E-01

A1=0.5

UXTEST = FORMULE(NOM_PARA=('X','Y'),VALE='atan2(-X*A1+Y*A0,X*A0+Y*A1)')

UXDP = FORMULE(NOM_PARA=('X','Y'),VALE='''
2.593124823E-5 *
        ( K1*cos(atan2(-X*A1+Y*A0,X*A0+Y*A1)*0.5)
            *(KDP-cos(atan2(-X*A1+Y*A0,X*A0+Y*A1)))
         +K2* sin(atan2(-X*A1+Y*A0,X*A0+Y*A1)*0.5)
            *(KDP+2.0+cos(atan2(-X*A1+Y*A0,X*A0+Y*A1))))
                 ''')

UYDP = FORMULE(NOM_PARA=('X','Y'),VALE='''
2.593124823E-5 *
      (   K1* sin(atan2(-X*A1+Y*A0,X*A0+Y*A1)*0.5)
            *(KDP-cos(atan2(-X*A1+Y*A0,X*A0+Y*A1)))
         -K2* cos(atan2(-X*A1+Y*A0,X*A0+Y*A1)*0.5)
            *(KDP-2.0+cos(atan2(-X*A1+Y*A0,X*A0+Y*A1))))
                 ''')

U1DP = FORMULE(NOM_PARA=('X','Y'),VALE='''
A0*UXDP(X,Y)- A1*UYDP(X,Y)
                 ''')

U2DP = FORMULE(NOM_PARA=('X','Y'),VALE='''
+A1*UXDP(X,Y)+ A0*UYDP(X,Y)
                 ''')

# ---------------------------------------------------------------------
M=LIRE_MAILLAGE(FORMAT='MED',)

M=DEFI_GROUP( reuse=M,  MAILLAGE=M,
                 CREA_GROUP_NO=_F( GROUP_MA = 'CC') )

MA=DEFI_MATERIAU(ELAS=_F( E = 200000.,  NU = 0.3, RHO = 0., ALPHA = 0.00005))

CM=AFFE_MATERIAU(MAILLAGE=M,
                 AFFE=_F(  TOUT = 'OUI',
                        MATER = MA) )

FOND=DEFI_FOND_FISS( MAILLAGE=M,
                       FOND_FISS=_F( NOEUD = 'N1'),)

#---------------------------------------------------------------------
#          MODELISATION ET CALCUL EN DEFORMATIONS PLANES
#---------------------------------------------------------------------
LINST = DEFI_LIST_REEL   ( DEBUT      =  0.,
                           INTERVALLE =_F (JUSQU_A= 1.0, NOMBRE = 1   )
                                         );
                                         
MODP = [None]*2
CHDP = [None]*2
ELADP = [None]*2
THETA = [None]*2
GDP = [None]*2
K1K2 = [None]*2

MODP[0]=AFFE_MODELE( MAILLAGE=M,
                  AFFE=_F(  TOUT = 'OUI',
                         MODELISATION = 'D_PLAN_INCO',
                         PHENOMENE = 'MECANIQUE') )
                         
MODP[1]=AFFE_MODELE( MAILLAGE=M,
                  AFFE=_F(  TOUT = 'OUI',
                         MODELISATION = 'D_PLAN_INCO',
                         PHENOMENE = 'MECANIQUE') )

for i in range(2):                         
   CHDP[i]=AFFE_CHAR_MECA_F(MODELE=MODP[i],
                      DDL_IMPO=_F( GROUP_NO = 'CC',
                                DX = U1DP,
                                DY = U2DP) )

   ELADP[i] = STAT_NON_LINE (  MODELE     =   MODP[i],
                        CHAM_MATER=CM,
                        EXCIT=_F( CHARGE = CHDP[i]),
                        COMP_ELAS  =_F ( RELATION     = 'ELAS',
                                         DEFORMATION  = 'PETIT',
                                         TOUT         = 'OUI'    ),
                        INCREMENT  =_F ( LIST_INST    = LINST, ),
                        CONVERGENCE = _F(
                              RESI_GLOB_MAXI=1e-07,
                              ITER_GLOB_MAXI = 15,
                  ),
                        NEWTON     =_F ( REAC_INCR    = 1 ))


   THETA[i]=CALC_THETA(    MODELE=MODP[i],
                      THETA_2D=_F(  NOEUD = 'N1',
                                 MODULE = 1.,
                                 R_INF = 10.,
                                 R_SUP = 20.),
                       DIRECTION=( 8.6602540379E-01, 0.5, 0.,)  )

   GDP[i]=CALC_G(              RESULTAT=ELADP[i],
                         INST = 1,
                         THETA=_F(THETA=THETA[i]),)

   K1K2[i]=CALC_G(            RESULTAT=ELADP[i],
                         INST = 1,
                          THETA=_F( THETA = THETA[i],
                                    FOND_FISS=FOND),
                          OPTION='CALC_K_G')

#--------------------------------------------------------------------
#            TEST DES RESULTATS DE G, K1 ET K2   EN DP
#--------------------------------------------------------------------


   TEST_TABLE(TABLE=GDP[i],
              NOM_PARA='G',
              VALE_CALC=2.3048695705621E-05,
              VALE_REFE=2.275E-5,
              REFERENCE='NON_DEFINI',
              
              PRECISION=2.E-2)

   TEST_TABLE(TABLE=K1K2[i],
              NOM_PARA='K1',
              VALE_CALC=2.0343525448787,    
              VALE_REFE=2.E0,
              REFERENCE='NON_DEFINI',
              
              PRECISION=2.E-2)

   TEST_TABLE(TABLE=K1K2[i],
              NOM_PARA='K2',
              VALE_CALC=0.93364105730086,   
              VALE_REFE=1.E0,
              REFERENCE='NON_DEFINI',
              
              PRECISION=0.07)

   TEST_TABLE(TABLE=K1K2[i],
              NOM_PARA='G',
              VALE_CALC=2.3048695705621E-05,
              VALE_REFE=2.275E-5,
              REFERENCE='NON_DEFINI',
              
              PRECISION=2.E-2)

   TEST_TABLE(TABLE=K1K2[i],
              NOM_PARA='G_IRWIN',
              VALE_CALC=2.2796755348333E-05,
              VALE_REFE=2.275E-5,
              REFERENCE='NON_DEFINI',
              
              PRECISION=2.E-2)

FIN()
#
