# TITRE MASSIF RECTANGULAIRE EN FLEXION PURE
# ======================================================================
# COPYRIGHT (C) 1991 - 2015  EDF R&D                  WWW.CODE-ASTER.ORG
# THIS PROGRAM IS FREE SOFTWARE; YOU CAN REDISTRIBUTE IT AND/OR MODIFY
# IT UNDER THE TERMS OF THE GNU GENERAL PUBLIC LICENSE AS PUBLISHED BY
# THE FREE SOFTWARE FOUNDATION; EITHER VERSION 2 OF THE LICENSE, OR
# (AT YOUR OPTION) ANY LATER VERSION.
#
# THIS PROGRAM IS DISTRIBUTED IN THE HOPE THAT IT WILL BE USEFUL, BUT
# WITHOUT ANY WARRANTY; WITHOUT EVEN THE IMPLIED WARRANTY OF
# MERCHANTABILITY OR FITNESS FOR A PARTICULAR PURPOSE. SEE THE GNU
# GENERAL PUBLIC LICENSE FOR MORE DETAILS.
#
# YOU SHOULD HAVE RECEIVED A COPY OF THE GNU GENERAL PUBLIC LICENSE
# ALONG WITH THIS PROGRAM; IF NOT, WRITE TO EDF R&D CODE_ASTER,
#    1 AVENUE DU GENERAL DE GAULLE, 92141 CLAMART CEDEX, FRANCE.
# ======================================================================

DEBUT(CODE=_F(NIV_PUB_WEB='INTERNET'), DEBUG=_F(SDVERI='OUI'))

MA=LIRE_MAILLAGE(FORMAT='MED',);

MO=AFFE_MODELE(MAILLAGE=MA,
               AFFE=_F(TOUT='OUI',
                       PHENOMENE='MECANIQUE',
                       MODELISATION='D_PLAN_SI',),);

MA=MODI_MAILLAGE(reuse =MA,
                 MAILLAGE=MA,
                 ORIE_PEAU_2D=_F(GROUP_MA=('LBC','LDA',),),
                 );

L = 100.;

B = 100.;


FSZ = FORMULE(NOM_PARA='Y',VALE='(1. - 4.*Y**2/B**2)');

FSX  = FORMULE(NOM_PARA='Y',VALE='8.*L*Y/B**2');

MATERIAU=DEFI_MATERIAU(ELAS=_F(E=100.,
                               NU=0.4999,),);

CH_MATER=AFFE_MATERIAU(MAILLAGE=MA,
                       AFFE=_F(TOUT='OUI',
                               MATER=MATERIAU,),);

SYMETRIE=AFFE_CHAR_MECA(MODELE=MO,
                        DDL_IMPO=(_F(GROUP_NO='A',
                                     DY=0.0,),
                                  _F(GROUP_NO='D',
                                     DX=0,),),
                        FACE_IMPO=_F(GROUP_MA='LAB',
                                     DTAN=0,),);
# DTAN=0 <=> DX=0
#                                     DX=0,),);

CHARGE=AFFE_CHAR_MECA_F(MODELE=MO,
                        PRES_REP=(_F(GROUP_MA='LBC',
                                    CISA_2D=FSZ,),
                                  _F(GROUP_MA='LDA',
                                     CISA_2D=FSZ,
                                     PRES=FSX),
                                 ),
                           );

INSTANTS=DEFI_LIST_REEL(DEBUT=0.0,
                        INTERVALLE=_F(JUSQU_A=1.0,
                                      NOMBRE=1,),);

RAMPE=DEFI_FONCTION(NOM_PARA='INST',
                    VALE=(0.0,  0.0,
                          1.0,  1.0,),);

RESU=STAT_NON_LINE(MODELE=MO,
                   CHAM_MATER=CH_MATER,
                   EXCIT=(_F(CHARGE=CHARGE,
                             FONC_MULT=RAMPE,),
                          _F(CHARGE=SYMETRIE,),),
                   COMPORTEMENT=_F(RELATION='ELAS',),
                   INCREMENT=_F(LIST_INST=INSTANTS,),
                   NEWTON=_F(REAC_ITER=1,),
                   ARCHIVAGE=_F(LIST_INST=INSTANTS,),);

TEST_RESU(RESU=(_F(GROUP_NO='C',
                   INST=1.0,
                   REFERENCE='ANALYTIQUE',
                   RESULTAT=RESU,
                   NOM_CHAM='DEPL',
                   NOM_CMP='DX',
                   VALE_CALC=-1.525518993,
                   VALE_REFE=-1.5,
                   PRECISION=0.02,),
                _F(GROUP_NO='C',
                   INST=1.0,
                   REFERENCE='ANALYTIQUE',
                   RESULTAT=RESU,
                   NOM_CHAM='DEPL',
                   NOM_CMP='DY',
                   VALE_CALC=4.262121765,
                   VALE_REFE=4.25,
                   PRECISION=3.0000000000000001E-3,),
                ),
          )

FIN();
