# person_in_charge: jean-michel.proix at edf.fr
# TITRE PLAQUE EN PORTE-A-FAUX CHARGEE A SON EXTREMITE
#            CONFIGURATION MANAGEMENT OF EDF VERSION
# ======================================================================
# COPYRIGHT (C) 1991 - 2012  EDF R&D                  WWW.CODE-ASTER.ORG
# THIS PROGRAM IS FREE SOFTWARE; YOU CAN REDISTRIBUTE IT AND/OR MODIFY
# IT UNDER THE TERMS OF THE GNU GENERAL PUBLIC LICENSE AS PUBLISHED BY
# THE FREE SOFTWARE FOUNDATION; EITHER VERSION 2 OF THE LICENSE, OR
# (AT YOUR OPTION) ANY LATER VERSION.
#
# THIS PROGRAM IS DISTRIBUTED IN THE HOPE THAT IT WILL BE USEFUL, BUT
# WITHOUT ANY WARRANTY; WITHOUT EVEN THE IMPLIED WARRANTY OF
# MERCHANTABILITY OR FITNESS FOR A PARTICULAR PURPOSE. SEE THE GNU
# GENERAL PUBLIC LICENSE FOR MORE DETAILS.
#
# YOU SHOULD HAVE RECEIVED A COPY OF THE GNU GENERAL PUBLIC LICENSE
# ALONG WITH THIS PROGRAM; IF NOT, WRITE TO EDF R&D CODE_ASTER,
#    1 AVENUE DU GENERAL DE GAULLE, 92141 CLAMART CEDEX, FRANCE.
# ======================================================================

DEBUT(CODE=_F(NOM='SSLP303A',
              NIV_PUB_WEB='INTERNET',),);

MAIL=LIRE_MAILLAGE(FORMAT='MED',);

#
# DEFINITION DES GROUPES DE NOEUDS

MAIL=DEFI_GROUP(reuse =MAIL,
                MAILLAGE=MAIL,
                CREA_GROUP_NO=(_F(GROUP_MA='ENCAST',),
                               _F(GROUP_MA='LEF',),
                               _F(GROUP_MA='SURF',),
                               _F(GROUP_MA='BORD_CH',),),);

MAIL=DEFI_GROUP(reuse =MAIL,
                MAILLAGE=MAIL,
                CREA_GROUP_MA=_F(NOM='VOLUM',
                                 OPTION='APPUI',
                                 GROUP_NO='SURF',
                                 TYPE_APPUI='AU_MOINS_UN',),);

#
# DEFINITION DU MODELE

MODELE=AFFE_MODELE(MAILLAGE=MAIL,
                   AFFE=_F(TOUT='OUI',
                           PHENOMENE='MECANIQUE',
                           MODELISATION='C_PLAN',),);

#
# DEFINITION DU MATERIAU

ACIER=DEFI_MATERIAU(ELAS=_F(E=2.10000000000E11,
                            NU=0.29999999999999999,
                            RHO=7950.0,
                            ALPHA=1.0000000000000001E-05,),);

#
# ATTRIBUTION DU MATERIAU

CHMAT=AFFE_MATERIAU(MAILLAGE=MAIL,
                    AFFE=_F(TOUT='OUI',
                            MATER=ACIER,),);

#
# DEFINITION DES CONDITIONS AUX LIMITES ET CHARGEMENTS
#
# CALCUL DE LA MAISSE TESTE DEFI_GROUP : APPUI

MASTOT=POST_ELEM(MASS_INER=_F(TOUT='OUI',),
                 MODELE=MODELE,
                 CHAM_MATER=CHMAT,);

MASVOL=POST_ELEM(MASS_INER=_F(GROUP_MA='VOLUM',),
                 MODELE=MODELE,
                 CHAM_MATER=CHMAT,);

# LA VALEUR DE LA MASSE EN VOLUM EST UN TIERS DE LA MASSE TOTALE

TEST_TABLE(REFERENCE='AUTRE_ASTER',
           VALE_CALC=39.750000000,
           VALE_REFE=39.75,
           NOM_PARA='MASSE',
           TABLE=MASVOL,)

CHARGT=AFFE_CHAR_MECA(MODELE=MODELE,
                      DDL_IMPO=_F(GROUP_NO='ENCAST',
                                  DX=0.0,
                                  DY=0.0,),
                      FORCE_CONTOUR=_F(GROUP_MA='BORD_CH',
                                       FY=1.70000E5,),);

#
# RESOLUTION

DEF=MECA_STATIQUE(MODELE=MODELE,
                  CHAM_MATER=CHMAT,
                  EXCIT=_F(CHARGE=CHARGT,),);

#
# RECUPERATION DU CHAMP DE DEPLACEMENTS

U=CREA_CHAMP(TYPE_CHAM='NOEU_DEPL_R',
             OPERATION='EXTR',
             RESULTAT=DEF,
             NOM_CHAM='DEPL',
             NUME_ORDRE=1,);

#
# CALCUL DES CONTRAINTES

DEF=CALC_CHAMP(reuse=DEF,RESULTAT=DEF,CONTRAINTE=('SIGM_ELNO'))


#
# TEST_RESU DU DEPLACEMENT
#

TEST_RESU(CHAM_NO=(_F(NOEUD='N455',
                      REFERENCE='ANALYTIQUE',
                      NOM_CMP='DY',
                      PRECISION=4.0000000000000001E-3,
                      CHAM_GD=U,
                      VALE_CALC=0.129464575,
                      VALE_REFE=0.129,),
                   _F(NOEUD='N756',
                      REFERENCE='ANALYTIQUE',
                      NOM_CMP='DY',
                      PRECISION=4.0000000000000001E-3,
                      CHAM_GD=U,
                      VALE_CALC=0.129464573,
                      VALE_REFE=0.129,),
                   ),
          )

#
# TEST_RESU DE LA CONTRAINTE
#

TEST_RESU(RESU=(_F(NUME_ORDRE=1,
                   REFERENCE='ANALYTIQUE',
                   RESULTAT=DEF,
                   NOM_CHAM='SIGM_ELNO',
                   NOEUD='N1',
                   NOM_CMP='SIXX',
                   VALE_CALC= 2.08629616E+08,
                   VALE_REFE=2.04000000E8,
                   PRECISION=0.023,
                   MAILLE='M1',),
                _F(NUME_ORDRE=1,
                   REFERENCE='ANALYTIQUE',
                   RESULTAT=DEF,
                   NOM_CHAM='SIGM_ELNO',
                   NOEUD='N201',
                   NOM_CMP='SIXX',
                   VALE_CALC= 1.01507467E+08,
                   VALE_REFE=1.02000000E8,
                   PRECISION=5.0000000000000001E-3,
                   MAILLE='M101',),
                ),
          )

FIN();

#
