# ======================================================================
# COPYRIGHT (C) 1991 - 2016  EDF R&D                  WWW.CODE-ASTER.ORG
# THIS PROGRAM IS FREE SOFTWARE; YOU CAN REDISTRIBUTE IT AND/OR MODIFY
# IT UNDER THE TERMS OF THE GNU GENERAL PUBLIC LICENSE AS PUBLISHED BY
# THE FREE SOFTWARE FOUNDATION; EITHER VERSION 2 OF THE LICENSE, OR
# (AT YOUR OPTION) ANY LATER VERSION.
#
# THIS PROGRAM IS DISTRIBUTED IN THE HOPE THAT IT WILL BE USEFUL, BUT
# WITHOUT ANY WARRANTY; WITHOUT EVEN THE IMPLIED WARRANTY OF
# MERCHANTABILITY OR FITNESS FOR A PARTICULAR PURPOSE. SEE THE GNU
# GENERAL PUBLIC LICENSE FOR MORE DETAILS.
#
# YOU SHOULD HAVE RECEIVED A COPY OF THE GNU GENERAL PUBLIC LICENSE
# ALONG WITH THIS PROGRAM; IF NOT, WRITE TO EDF R&D CODE_ASTER,
#    1 AVENUE DU GENERAL DE GAULLE, 92141 CLAMART CEDEX, FRANCE.
# ======================================================================
# DATE      : 30/04/2015
# AUTEUR : Francis LEBOUVIER (DeltaCAD)
# 
# MODELISATION : C_PLAN
# MAILLE              : QUAD8
#------------------------------------------------------------------

DEBUT(CODE=_F(NIV_PUB_WEB='INTERNET'),DEBUG=_F(SDVERI='OUI'))


ma=LIRE_MAILLAGE(FORMAT='MED',);

ma=MODI_MAILLAGE(reuse =ma,
                 MAILLAGE=ma,
                 ORIE_PEAU_2D=_F(GROUP_MA='CD',),);

mod=AFFE_MODELE(MAILLAGE=ma,
                AFFE=_F(TOUT='OUI',
                        PHENOMENE='MECANIQUE',
                        MODELISATION='C_PLAN',),);

mater=DEFI_MATERIAU(ELAS=_F(E=3.e4,
                            NU=.25,),);

chmat=AFFE_MATERIAU(MODELE=mod,
                    AFFE=_F(TOUT='OUI',
                            MATER=mater,),);

Charge=AFFE_CHAR_MECA(MODELE=mod,
                      DDL_IMPO=(_F(GROUP_MA='AB',
                                   DY=0.,),
                                _F(GROUP_MA='DE',
                                   DX=0.,),),
                      FORCE_CONTOUR=_F(GROUP_MA='CD',
                                       FY=2.5,),);

RESU=MECA_STATIQUE(MODELE=mod,
                   CHAM_MATER=chmat,
                   EXCIT=_F(CHARGE=Charge,),
                   OPTION='SANS',);

RESU=CALC_CHAMP(reuse =RESU,
                RESULTAT=RESU,
                CONTRAINTE='SIGM_NOEU',);

IMPR_RESU(RESU=_F(RESULTAT=RESU,IMPR_COOR='OUI',
                  NOM_CHAM='SIGM_NOEU',NOM_CMP=('SIXX','SIYY','SIXY'),
                  GROUP_NO=('A','E','F'),),);

TEST_RESU(RESU=_F(RESULTAT=RESU,
                  INST=0.,
                  NOM_CHAM='SIGM_NOEU',
                  NOM_CMP='SIYY',
                  GROUP_NO='A',
                  VALE_REFE=7.5,
                  REFERENCE='ANALYTIQUE',
                  PRECISION= 0.02,
                  VALE_CALC=7.6284211554,),);

TEST_RESU(RESU=_F(RESULTAT=RESU,
                  INST=0.,
                  NOM_CHAM='SIGM_NOEU',
                  NOM_CMP='SIXX',
                  GROUP_NO='E',
                  VALE_REFE=-2.5,
                  PRECISION= 0.045,
                  REFERENCE='ANALYTIQUE',
                  VALE_CALC=-2.61016309217,),);

#
# --- On passe dans le repere cylindrique
#
RESU1=MODI_REPERE(
                  RESULTAT    = RESU,
                  NUME_ORDRE  = 1,
                  MODI_CHAM  =  _F(NOM_CHAM   = 'SIGM_NOEU',
                                   NOM_CMP    = ('SIXX','SIYY','SIZZ','SIXY',),
                                   TYPE_CHAM  = 'TENS_2D',),
                   REPERE     = 'CYLINDRIQUE',
                   AFFE = _F( ORIGINE    = (0.0, 0.0)))

TEST_RESU(RESU=_F(RESULTAT=RESU1,
                  INST=0.,
                  NOM_CHAM='SIGM_NOEU',
                  NOM_CMP='SIZZ',
                  GROUP_NO='A',
                  VALE_REFE=7.5,
                  PRECISION= 0.02,
                  REFERENCE='ANALYTIQUE',
                  VALE_CALC=7.6284211554,),);

TEST_RESU(RESU=_F(RESULTAT=RESU1,
                  INST=0.,
                  NOM_CHAM='SIGM_NOEU',
                  NOM_CMP='SIZZ',
                  GROUP_NO='E',
                  VALE_REFE=-2.5,
                  PRECISION= 0.045,
                  REFERENCE='ANALYTIQUE',
                  VALE_CALC=-2.61016309217,),);

TEST_RESU(RESU=_F(RESULTAT=RESU1,
                  INST=0.,
                  NOM_CHAM='SIGM_NOEU',
                  NOM_CMP='SIZZ',
                  GROUP_NO='F',
                  VALE_REFE=2.5,
                  PRECISION= 0.005,
                  REFERENCE='ANALYTIQUE',
                  VALE_CALC=2.50548817494,),);

FIN();
#CHECKSUM:6f1031939a03f633b1b1acb52a20ac05  -:FIN CHECKSUM
