# MODIF  DATE 09/10/2012   AUTEUR DELMAS J.DELMAS 
# RESPONSABLE PROIX J.M.PROIX
# TITRE PLAQUE EN FLEXION AVEC DIVERS ELANCEMENTS. MODELISATION SHB MAILLAGE REGULIER
# ssls124b.para = tps_job 60 mem_job 256Mo ncpus 1 liste_test S
#            CONFIGURATION MANAGEMENT OF EDF VERSION
# ======================================================================
# COPYRIGHT (C) 1991 - 2012  EDF R&D                  WWW.CODE-ASTER.ORG
# THIS PROGRAM IS FREE SOFTWARE; YOU CAN REDISTRIBUTE IT AND/OR MODIFY
# IT UNDER THE TERMS OF THE GNU GENERAL PUBLIC LICENSE AS PUBLISHED BY
# THE FREE SOFTWARE FOUNDATION; EITHER VERSION 2 OF THE LICENSE, OR
# (AT YOUR OPTION) ANY LATER VERSION.
#
# THIS PROGRAM IS DISTRIBUTED IN THE HOPE THAT IT WILL BE USEFUL, BUT
# WITHOUT ANY WARRANTY; WITHOUT EVEN THE IMPLIED WARRANTY OF
# MERCHANTABILITY OR FITNESS FOR A PARTICULAR PURPOSE. SEE THE GNU
# GENERAL PUBLIC LICENSE FOR MORE DETAILS.
#
# YOU SHOULD HAVE RECEIVED A COPY OF THE GNU GENERAL PUBLIC LICENSE
# ALONG WITH THIS PROGRAM; IF NOT, WRITE TO EDF R&D CODE_ASTER,
#    1 AVENUE DU GENERAL DE GAULLE, 92141 CLAMART CEDEX, FRANCE.
# ======================================================================
# ELEMENT SHBPS - A.COMBESCURE - S.BAGUET -INSA LYON 2003
#


DEBUT(CODE=_F(NOM='SSLS124B',NIV_PUB_WEB='INTERNET'),DEBUG=_F(SDVERI='OUI'))

YG=2.E11
L=100.
b=10.
F=1.

MAT=DEFI_MATERIAU(ELAS=_F(E=YG,
                          NU=0.0,),);



# CAS 1 :

h=10.

MAIL31=LIRE_MAILLAGE(FORMAT='MED',UNITE=21);

MAIL31=MODI_MAILLAGE(reuse=MAIL31,MAILLAGE=MAIL31,
ORIE_SHB=_F(GROUP_MA='GEOTOT'),)

MAIL31=DEFI_GROUP(reuse =MAIL31, MAILLAGE=MAIL31,
                CREA_GROUP_NO=(_F(GROUP_MA='SUENCAS',),
                               _F(GROUP_MA='SUDEPIM',),
                               _F(GROUP_MA='LI15',),
                               _F(GROUP_MA='LI21',),
                               _F(GROUP_MA='LI87',),),);

CHMAT31=AFFE_MATERIAU(MAILLAGE=MAIL31,
                  AFFE=_F(TOUT='OUI',MATER=MAT,),);

MODMEC31=AFFE_MODELE(MAILLAGE=MAIL31,
                    AFFE=_F(TOUT='OUI',
                            PHENOMENE='MECANIQUE',
                            MODELISATION='SHB',),);


CHARG31=AFFE_CHAR_MECA(MODELE=MODMEC31,
                      DDL_IMPO=(_F(GROUP_MA=('SUENCAS'),
                                   DX=0.0,),
                                _F(GROUP_MA='LI15',
                                   DY=0.0,),
                                _F(GROUP_MA='LI21',
                                   DZ=0.0,),),
                      FORCE_ARETE=(_F(GROUP_MA='LI87',
                                      FZ=F/b,),),
                           );

RESU31=MECA_STATIQUE(MODELE=MODMEC31,
                    CHAM_MATER=CHMAT31,
                    EXCIT=_F(CHARGE=CHARG31,),
                    );

RESU31=CALC_CHAMP(reuse=RESU31,
                  RESULTAT=RESU31,
                  CRITERES=('SIEQ_ELGA','SIEQ_ELNO'),
                  CONTRAINTE=('SIEF_ELNO','SIGM_ELNO'),);

ENGENDRE_TEST(CO=RESU31,TYPE_TEST='SOMM_ABS')

TEST_RESU(RESU=( 
          _F( RESULTAT= RESU31  , NOM_CHAM= 'DEPL', NUME_ORDRE=      1,
              REFERENCE= 'NON_REGRESSION', PRECISION= 1.E-10    ,
              TYPE_TEST= 'SOMM_ABS', VALE=  2.1000000037873E+01 ),
          _F( RESULTAT= RESU31  , NOM_CHAM= 'SIEF_ELGA', NUME_ORDRE=      1,
              REFERENCE= 'NON_REGRESSION', PRECISION= 1.E-10    ,
              TYPE_TEST= 'SOMM_ABS', VALE=  1.2303149306899E+01 ),
          _F( RESULTAT= RESU31  , NOM_CHAM= 'SIEF_ELNO', NUME_ORDRE=      1,
              REFERENCE= 'NON_REGRESSION', PRECISION= 1.E-10    ,
              TYPE_TEST= 'SOMM_ABS', VALE=  3.0168275718667E+01 ),
          _F( RESULTAT= RESU31  , NOM_CHAM= 'SIGM_ELNO', NUME_ORDRE=      1,
              REFERENCE= 'NON_REGRESSION', PRECISION= 1.E-10    ,
              TYPE_TEST= 'SOMM_ABS', VALE=  3.0168275718667E+01 ),
          _F( RESULTAT= RESU31  , NOM_CHAM= 'SIEQ_ELGA', NUME_ORDRE=      1,
              REFERENCE= 'NON_REGRESSION', PRECISION= 1.E-10    ,
              TYPE_TEST= 'SOMM_ABS', VALE=  2.8321865632308E+02 ),
          _F( RESULTAT= RESU31  , NOM_CHAM= 'SIEQ_ELNO', NUME_ORDRE=      1,
              REFERENCE= 'NON_REGRESSION', PRECISION= 1.E-10    ,
              TYPE_TEST= 'SOMM_ABS', VALE=  4.9019399432530E+02 ),
          ),)

Iy=b*h*h*h/12
Uz=F*L*L*L/3/YG/Iy


TEST_RESU(RESU=(
            _F(  RESULTAT = RESU31, NOM_CHAM='DEPL', PRECISION = 4.E-2, REFERENCE='SOURCE_EXTERNE',NUME_ORDRE=1,
              GROUP_NO = 'P7',      NOM_CMP = 'DZ',           VALE = Uz),

            _F(   RESULTAT = RESU31, NOM_CHAM='DEPL',  PRECISION = 4.E-2, REFERENCE='SOURCE_EXTERNE',NUME_ORDRE=1,
              GROUP_NO = 'P8',      NOM_CMP = 'DZ',           VALE = Uz),
              ),)




# CAS 2 :

h=1.0

MAIL32=LIRE_MAILLAGE(FORMAT='MED',UNITE=22);

MAIL32=MODI_MAILLAGE(reuse=MAIL32,MAILLAGE=MAIL32,
ORIE_SHB=_F(GROUP_MA='GEOTOT'),)

MAIL32=DEFI_GROUP(reuse =MAIL32, MAILLAGE=MAIL32,
                CREA_GROUP_NO=(_F(GROUP_MA='SUENCAS',),
                               _F(GROUP_MA='SUDEPIM',),
                               _F(GROUP_MA='LI15',),
                               _F(GROUP_MA='LI21',),
                               _F(GROUP_MA='LI87',),),);

CHMAT32=AFFE_MATERIAU(MAILLAGE=MAIL32,
                  AFFE=_F(TOUT='OUI',MATER=MAT,),);

MODMEC32=AFFE_MODELE(MAILLAGE=MAIL32,
                    AFFE=_F(TOUT='OUI',
                            PHENOMENE='MECANIQUE',
                            MODELISATION='SHB',),);


CHARG32=AFFE_CHAR_MECA(MODELE=MODMEC32,
                      DDL_IMPO=(_F(GROUP_MA=('SUENCAS'),
                                   DX=0.0,),
                                _F(GROUP_MA='LI15',
                                   DY=0.0,),
                                _F(GROUP_MA='LI21',
                                   DZ=0.0,),),
                      FORCE_ARETE=(_F(GROUP_MA='LI87',
                                      FZ=F/b,),),
                           );

RESU32=MECA_STATIQUE(MODELE=MODMEC32,
                    CHAM_MATER=CHMAT32,
                    EXCIT=_F(CHARGE=CHARG32,))


Iy=b*h*h*h/12
Uz=F*L*L*L/3/YG/Iy


TEST_RESU(RESU=(
            _F(  RESULTAT = RESU32, NOM_CHAM='DEPL', PRECISION = 5.E-2, REFERENCE='SOURCE_EXTERNE',NUME_ORDRE=1,
              GROUP_NO = 'P7',      NOM_CMP = 'DZ',           VALE = Uz),

            _F(   RESULTAT = RESU32, NOM_CHAM='DEPL',  PRECISION = 5.E-2, REFERENCE='SOURCE_EXTERNE',NUME_ORDRE=1,
              GROUP_NO = 'P8',      NOM_CMP = 'DZ',           VALE = Uz),
              ),)



# CAS 3 :

h=0.1

MAIL33=LIRE_MAILLAGE(FORMAT='MED',UNITE=23);

MAIL33=MODI_MAILLAGE(reuse=MAIL33,MAILLAGE=MAIL33,
ORIE_SHB=_F(GROUP_MA='GEOTOT'),)

MAIL33=DEFI_GROUP(reuse =MAIL33, MAILLAGE=MAIL33,
                CREA_GROUP_NO=(_F(GROUP_MA='SUENCAS',),
                               _F(GROUP_MA='SUDEPIM',),
                               _F(GROUP_MA='LI15',),
                               _F(GROUP_MA='LI21',),
                               _F(GROUP_MA='LI87',),),);

CHMAT33=AFFE_MATERIAU(MAILLAGE=MAIL33,
                  AFFE=_F(TOUT='OUI',MATER=MAT,),);

MODMEC33=AFFE_MODELE(MAILLAGE=MAIL33,
                    AFFE=_F(TOUT='OUI',
                            PHENOMENE='MECANIQUE',
                            MODELISATION='SHB',),);


CHARG33=AFFE_CHAR_MECA(MODELE=MODMEC33,
                      DDL_IMPO=(_F(GROUP_MA=('SUENCAS'),
                                   DX=0.0,),
                                _F(GROUP_MA='LI15',
                                   DY=0.0,),
                                _F(GROUP_MA='LI21',
                                   DZ=0.0,),),
                      FORCE_ARETE=(_F(GROUP_MA='LI87',
                                      FZ=F/b,),),
                           );

RESU33=MECA_STATIQUE(MODELE=MODMEC33,
                    CHAM_MATER=CHMAT33,
                    EXCIT=_F(CHARGE=CHARG33,),
                    SOLVEUR=_F(METHODE ='MULT_FRONT',NPREC=11 ),
                    );

Iy=b*h*h*h/12
Uz=F*L*L*L/3/YG/Iy


TEST_RESU(RESU=(
            _F(  RESULTAT = RESU33, NOM_CHAM='DEPL', PRECISION = 5.E-2, REFERENCE='SOURCE_EXTERNE',NUME_ORDRE=1,
              GROUP_NO = 'P7',      NOM_CMP = 'DZ',           VALE = Uz),

            _F(   RESULTAT = RESU33, NOM_CHAM='DEPL',  PRECISION = 5.E-2, REFERENCE='SOURCE_EXTERNE',NUME_ORDRE=1,
              GROUP_NO = 'P8',      NOM_CMP = 'DZ',           VALE = Uz),
              ),)



# CAS 4 :

h=0.05

MAIL34=LIRE_MAILLAGE(UNITE=24,FORMAT='MED',
                       VERI_MAIL=_F(VERIF='OUI',
                                    APLAT=1.E-4),)

MAIL34=MODI_MAILLAGE(reuse=MAIL34,MAILLAGE=MAIL34,
ORIE_SHB=_F(GROUP_MA='GEOTOT'),)

MAIL34=DEFI_GROUP(reuse =MAIL34, MAILLAGE=MAIL34,
                CREA_GROUP_NO=(_F(GROUP_MA='SUENCAS',),
                               _F(GROUP_MA='SUDEPIM',),
                               _F(GROUP_MA='LI15',),
                               _F(GROUP_MA='LI21',),
                               _F(GROUP_MA='LI87',),),);

CHMAT34=AFFE_MATERIAU(MAILLAGE=MAIL34,
                  AFFE=_F(TOUT='OUI',MATER=MAT,),);

MODMEC34=AFFE_MODELE(MAILLAGE=MAIL34,
                    AFFE=_F(TOUT='OUI',
                            PHENOMENE='MECANIQUE',
                            MODELISATION='SHB',),)


CHARG34=AFFE_CHAR_MECA(MODELE=MODMEC34,
                      DDL_IMPO=(_F(GROUP_MA=('SUENCAS'),
                                   DX=0.0,),
                                _F(GROUP_MA='LI15',
                                   DY=0.0,),
                                _F(GROUP_MA='LI21',
                                   DZ=0.0,),),
                      FORCE_ARETE=(_F(GROUP_MA='LI87',
                                      FZ=F/b,),),
                           );

RESU34=MECA_STATIQUE(MODELE=MODMEC34,
                    CHAM_MATER=CHMAT34,
                    EXCIT=_F(CHARGE=CHARG34,),
                    SOLVEUR=_F(METHODE ='MULT_FRONT',NPREC=15 ),
                    );

Iy=b*h*h*h/12
Uz=F*L*L*L/3/YG/Iy


TEST_RESU(RESU=(
            _F(  RESULTAT = RESU34, NOM_CHAM='DEPL', PRECISION = 5.E-2, REFERENCE='SOURCE_EXTERNE',NUME_ORDRE=1,
              GROUP_NO = 'P7',      NOM_CMP = 'DZ',           VALE = Uz),

            _F(   RESULTAT = RESU34, NOM_CHAM='DEPL',  PRECISION = 5.E-2, REFERENCE='SOURCE_EXTERNE',NUME_ORDRE=1,
              GROUP_NO = 'P8',      NOM_CMP = 'DZ',           VALE = Uz),
              ),)



# CAS 5 :

h=0.02

MAIL35=LIRE_MAILLAGE(UNITE=25,FORMAT='MED',
                       VERI_MAIL=_F(VERIF='OUI',
                                    APLAT=1.E-4),)

MAIL35=MODI_MAILLAGE(reuse=MAIL35,MAILLAGE=MAIL35,
ORIE_SHB=_F(GROUP_MA='GEOTOT'),)

MAIL35=DEFI_GROUP(reuse =MAIL35, MAILLAGE=MAIL35,
                CREA_GROUP_NO=(_F(GROUP_MA='SUENCAS',),
                               _F(GROUP_MA='SUDEPIM',),
                               _F(GROUP_MA='LI15',),
                               _F(GROUP_MA='LI21',),
                               _F(GROUP_MA='LI87',),),);

CHMAT35=AFFE_MATERIAU(MAILLAGE=MAIL35,
                  AFFE=_F(TOUT='OUI',MATER=MAT,),);

MODMEC35=AFFE_MODELE(MAILLAGE=MAIL35,
                    AFFE=_F(TOUT='OUI',
                            PHENOMENE='MECANIQUE',
                            MODELISATION='SHB',),);


CHARG35=AFFE_CHAR_MECA(MODELE=MODMEC35,
                      DDL_IMPO=(_F(GROUP_MA=('SUENCAS'),
                                   DX=0.0,),
                                _F(GROUP_MA='LI15',
                                   DY=0.0,),
                                _F(GROUP_MA='LI21',
                                   DZ=0.0,),),
                      FORCE_ARETE=(_F(GROUP_MA='LI87',
                                      FZ=F/b,),),
                           );

RESU35=MECA_STATIQUE(MODELE=MODMEC35,
                    CHAM_MATER=CHMAT35,
                    EXCIT=_F(CHARGE=CHARG35,),
                    SOLVEUR=_F(METHODE ='MULT_FRONT',NPREC=18 ),
                    );

Iy=b*h*h*h/12
Uz=F*L*L*L/3/YG/Iy


TEST_RESU(RESU=(
            _F(  RESULTAT = RESU35, NOM_CHAM='DEPL', PRECISION = 10.E-2, REFERENCE='SOURCE_EXTERNE',NUME_ORDRE=1,
              GROUP_NO = 'P7',      NOM_CMP = 'DZ',           VALE = Uz),

            _F(   RESULTAT = RESU35, NOM_CHAM='DEPL',  PRECISION = 10.E-2, REFERENCE='SOURCE_EXTERNE',NUME_ORDRE=1,
              GROUP_NO = 'P8',      NOM_CMP = 'DZ',           VALE = Uz),
              ),)


FIN()

