# TITRE PLAQUE CIRCULAIRE EN APPUI SIMPLE SOUS PRESSION UNIFORME
# ======================================================================
# COPYRIGHT (C) 1991 - 2012  EDF R&D                  WWW.CODE-ASTER.ORG
# THIS PROGRAM IS FREE SOFTWARE; YOU CAN REDISTRIBUTE IT AND/OR MODIFY
# IT UNDER THE TERMS OF THE GNU GENERAL PUBLIC LICENSE AS PUBLISHED BY
# THE FREE SOFTWARE FOUNDATION; EITHER VERSION 2 OF THE LICENSE, OR
# (AT YOUR OPTION) ANY LATER VERSION.
#
# THIS PROGRAM IS DISTRIBUTED IN THE HOPE THAT IT WILL BE USEFUL, BUT
# WITHOUT ANY WARRANTY; WITHOUT EVEN THE IMPLIED WARRANTY OF
# MERCHANTABILITY OR FITNESS FOR A PARTICULAR PURPOSE. SEE THE GNU
# GENERAL PUBLIC LICENSE FOR MORE DETAILS.
#
# YOU SHOULD HAVE RECEIVED A COPY OF THE GNU GENERAL PUBLIC LICENSE
# ALONG WITH THIS PROGRAM; IF NOT, WRITE TO EDF R&D CODE_ASTER,
#    1 AVENUE DU GENERAL DE GAULLE, 92141 CLAMART CEDEX, FRANCE.
# ======================================================================

DEBUT(CODE=_F(NIV_PUB_WEB='INTERNET'),DEBUG=_F(SDVERI='OUI'))

# PLAQUE CIRCULAIRE EN APPUI SIMPLE SOUMISE A UNE PRESSION UNIFORME
# MAILLAGE 1/4 DE PLAQUE
#
# MODELISATION MEC3QU9H:  65 NOEUDS --  16 MAILLES QUAD9
#


MATERI_1=DEFI_MATERIAU( ELAS=_F(  E = 1.,      NU = 0.3,   RHO = 1.) )

MAILLA_1=LIRE_MAILLAGE(FORMAT='MED',   )

MAILLA_1=DEFI_GROUP( reuse=MAILLA_1,   MAILLAGE=MAILLA_1,
  CREA_GROUP_MA=_F(  NOM = 'TOUT', TOUT = 'OUI'))

CH_MAT_1=AFFE_MATERIAU(  MAILLAGE=MAILLA_1,
                            AFFE=_F(  TOUT = 'OUI',   MATER = MATERI_1) )

MODELE_1=AFFE_MODELE(  MAILLAGE=MAILLA_1, VERIF='MAILLE',
                     AFFE=_F( TOUT = 'OUI', MODELISATION = 'COQUE_3D',
                                PHENOMENE = 'MECANIQUE') )

CINE=AFFE_CHAR_MECA(MODELE=MODELE_1,DDL_IMPO=(
                  _F( GROUP_NO = 'ABC',      DX = 0.,  DY = 0.,  DZ = 0.),
                           _F( GROUP_NO = 'OA',       DY = 0.,  DRX = 0., DRZ = 0.),
                           _F( NOEUD = 'A',        DRX = 0.,  DRZ = 0.),
                           _F( GROUP_NO = 'OC',       DX = 0.,  DRY = 0., DRZ = 0.),
                           _F( NOEUD = 'C',        DRY = 0.,  DRZ = 0.),
                           _F( NOEUD = 'O',        DX = 0.,  DY = 0.,
                                              DRX = 0., DRY = 0., DRZ = 0.)))

CHPR=AFFE_CHAR_MECA(MODELE=MODELE_1,
                   FORCE_COQUE=_F(
       GROUP_MA = 'TOUT',
      PRES = 1.) )

CHF3=AFFE_CHAR_MECA(MODELE=MODELE_1,
                   FORCE_COQUE=_F(
       GROUP_MA = 'TOUT',
        F3 = -1.) )

CHPE=AFFE_CHAR_MECA(MODELE=MODELE_1,
                      PESANTEUR=_F(GRAVITE= 10.,
                                   DIRECTION=(0., 0., -1., ), ),)

CARAC__1=AFFE_CARA_ELEM(   MODELE=MODELE_1,
                               COQUE=_F(
       GROUP_MA = 'TOUT',
  EPAIS = 0.1,
                                  A_CIS = 0.83333333333333) )

DEP=MACRO_ELAS_MULT(MODELE=MODELE_1,
                    CHAM_MATER=CH_MAT_1,
                    CARA_ELEM=CARAC__1,
                    CHAR_MECA_GLOBAL=CINE,
                    CAS_CHARGE=(_F(NOM_CAS='CHPR',
                                   CHAR_MECA=CHPR,),
                                _F(NOM_CAS='CHF3',
                                   CHAR_MECA=CHF3,),
                                _F(NOM_CAS='CHPE',
                                   CHAR_MECA=CHPE,),
                                ),
                );

DEP=CALC_CHAMP(reuse=DEP,RESULTAT=DEP,CONTRAINTE=('EFGE_ELNO'))


TEST_RESU(RESU=(_F(NUME_ORDRE=1,
                   RESULTAT=DEP,
                   NOM_CHAM='DEPL',
                   NOEUD='O',
                   NOM_CMP='DZ',
                   VALE_CALC=-703.410976824,
                   VALE_REFE=-703.39999999999998,
                   REFERENCE='NON_DEFINI',
                   CRITERE='RELATIF',
                   PRECISION=5.0000000000000001E-3,),
                _F(NUME_ORDRE=1,
                   RESULTAT=DEP,
                   NOM_CHAM='DEPL',
                   NOEUD='A',
                   NOM_CMP='DZ',
                   VALE_CALC=0.0,
                   CRITERE='ABSOLU',
                   ),
                _F(NUME_ORDRE=1,
                   RESULTAT=DEP,
                   NOM_CHAM='DEPL',
                   NOEUD='B',
                   NOM_CMP='DZ',
                   VALE_CALC=0.0,
                   CRITERE='ABSOLU',
                   ),
                _F(NUME_ORDRE=1,
                   RESULTAT=DEP,
                   NOM_CHAM='DEPL',
                   NOEUD='C',
                   NOM_CMP='DZ',
                   VALE_CALC=0.0,
                   CRITERE='ABSOLU',
                   ),
                _F(NUME_ORDRE=1,
                   RESULTAT=DEP,
                   NOM_CHAM='DEPL',
                   NOEUD='D',
                   NOM_CMP='DZ',
                   VALE_CALC=-495.567928956,
                   VALE_REFE=-495.56,
                   REFERENCE='NON_DEFINI',
                   CRITERE='RELATIF',
                   PRECISION=5.0000000000000001E-3,),
                _F(NUME_ORDRE=1,
                   RESULTAT=DEP,
                   NOM_CHAM='DEPL',
                   NOEUD='E',
                   NOM_CMP='DZ',
                   VALE_CALC=-495.567836483,
                   VALE_REFE=-495.56,
                   REFERENCE='NON_DEFINI',
                   CRITERE='RELATIF',
                   PRECISION=5.0000000000000001E-3,),
                _F(NUME_ORDRE=2,
                   RESULTAT=DEP,
                   NOM_CHAM='DEPL',
                   NOEUD='O',
                   NOM_CMP='DZ',
                   VALE_CALC=-703.410976824,
                   VALE_REFE=-703.39999999999998,
                   REFERENCE='NON_DEFINI',
                   CRITERE='RELATIF',
                   PRECISION=5.0000000000000001E-3,),
                _F(NUME_ORDRE=2,
                   RESULTAT=DEP,
                   NOM_CHAM='DEPL',
                   NOEUD='A',
                   NOM_CMP='DZ',
                   VALE_CALC=0.0,
                   CRITERE='ABSOLU',
                   ),
                _F(NUME_ORDRE=2,
                   RESULTAT=DEP,
                   NOM_CHAM='DEPL',
                   NOEUD='B',
                   NOM_CMP='DZ',
                   VALE_CALC=0.0,
                   CRITERE='ABSOLU',
                   ),
                _F(NUME_ORDRE=2,
                   RESULTAT=DEP,
                   NOM_CHAM='DEPL',
                   NOEUD='C',
                   NOM_CMP='DZ',
                   VALE_CALC=0.0,
                   CRITERE='ABSOLU',
                   ),
                _F(NUME_ORDRE=2,
                   RESULTAT=DEP,
                   NOM_CHAM='DEPL',
                   NOEUD='D',
                   NOM_CMP='DZ',
                   VALE_CALC=-495.567928956,
                   VALE_REFE=-495.56,
                   REFERENCE='NON_DEFINI',
                   CRITERE='RELATIF',
                   PRECISION=5.0000000000000001E-3,),
                _F(NUME_ORDRE=2,
                   RESULTAT=DEP,
                   NOM_CHAM='DEPL',
                   NOEUD='E',
                   NOM_CMP='DZ',
                   VALE_CALC=-495.567836483,
                   VALE_REFE=-495.56,
                   REFERENCE='NON_DEFINI',
                   CRITERE='RELATIF',
                   PRECISION=5.0000000000000001E-3,),
                _F(NUME_ORDRE=3,
                   RESULTAT=DEP,
                   NOM_CHAM='DEPL',
                   NOEUD='O',
                   NOM_CMP='DZ',
                   VALE_CALC=-703.410976824,
                   VALE_REFE=-703.39999999999998,
                   REFERENCE='NON_DEFINI',
                   CRITERE='RELATIF',
                   PRECISION=5.0000000000000001E-3,),
                _F(NUME_ORDRE=3,
                   RESULTAT=DEP,
                   NOM_CHAM='DEPL',
                   NOEUD='A',
                   NOM_CMP='DZ',
                   VALE_CALC=0.0,
                   CRITERE='ABSOLU',
                   ),
                _F(NUME_ORDRE=3,
                   RESULTAT=DEP,
                   NOM_CHAM='DEPL',
                   NOEUD='B',
                   NOM_CMP='DZ',
                   VALE_CALC=0.0,
                   CRITERE='ABSOLU',
                   ),
                _F(NUME_ORDRE=3,
                   RESULTAT=DEP,
                   NOM_CHAM='DEPL',
                   NOEUD='C',
                   NOM_CMP='DZ',
                   VALE_CALC=0.0,
                   CRITERE='ABSOLU',
                   ),
                _F(NUME_ORDRE=3,
                   RESULTAT=DEP,
                   NOM_CHAM='DEPL',
                   NOEUD='D',
                   NOM_CMP='DZ',
                   VALE_CALC=-495.567928956,
                   VALE_REFE=-495.56,
                   REFERENCE='NON_DEFINI',
                   CRITERE='RELATIF',
                   PRECISION=5.0000000000000001E-3,),
                _F(NUME_ORDRE=3,
                   RESULTAT=DEP,
                   NOM_CHAM='DEPL',
                   NOEUD='E',
                   NOM_CMP='DZ',
                   VALE_CALC=-495.567836483,
                   VALE_REFE=-495.56,
                   REFERENCE='NON_DEFINI',
                   CRITERE='RELATIF',
                   PRECISION=5.0000000000000001E-3,),
                ),
          )

#--------------------------------------------------------------------
RELEVE_1=POST_RELEVE_T(
                   ACTION=_F(  NOEUD = ( 'O',  'A',  'C',  'D',  'E', ),
                            INTITULE = 'EFGE',
                            RESULTAT = DEP,
                            NUME_ORDRE=1,
                            NOM_CHAM='EFGE_ELNO',
                            NOM_CMP = ( 'MXX', 'MYY', ),
                            OPERATION = 'EXTRACTION')
                          )

#

TEST_TABLE(PRECISION=0.012999999999999999,
           VALE_CALC=-0.208419973,
           VALE_REFE=-0.20624999999999999,
           REFERENCE='NON_DEFINI',
           NOM_PARA='MXX',
           TABLE=RELEVE_1,
           FILTRE=_F(NOM_PARA='NOEUD',
                     VALE_K='O',),
           )

TEST_TABLE(PRECISION=0.012999999999999999,
           VALE_CALC=-0.208420023,
           VALE_REFE=-0.20624999999999999,
           REFERENCE='NON_DEFINI',
           NOM_PARA='MYY',
           TABLE=RELEVE_1,
           FILTRE=_F(NOM_PARA='NOEUD',
                     VALE_K='O',),
           )

TEST_TABLE(CRITERE='ABSOLU',
           PRECISION=2.E-3,
           VALE_CALC=-6.7614759733005E-04,
           VALE_REFE=0.0,
           REFERENCE='NON_DEFINI',
           NOM_PARA='MXX',
           TABLE=RELEVE_1,
           FILTRE=_F(NOM_PARA='NOEUD',
                     VALE_K='A',),
           )

TEST_TABLE(PRECISION=0.022,
           VALE_CALC=-0.089375295866217,
           VALE_REFE=-0.087499999999999994,
           REFERENCE='NON_DEFINI',
           NOM_PARA='MYY',
           TABLE=RELEVE_1,
           FILTRE=_F(NOM_PARA='NOEUD',
                     VALE_K='A',),
           )

TEST_TABLE(PRECISION=0.023,
           VALE_CALC=-0.088457639471184,
           VALE_REFE=-0.087499999999999994,
           REFERENCE='NON_DEFINI',
           NOM_PARA='MXX',
           TABLE=RELEVE_1,
           FILTRE=_F(NOM_PARA='NOEUD',
                     VALE_K='C',),
           )

TEST_TABLE(CRITERE='ABSOLU',
           PRECISION=2.E-3,
           VALE_CALC=-1.5938017696967E-03,
           VALE_REFE=0.0,
           REFERENCE='NON_DEFINI',
           NOM_PARA='MYY',
           TABLE=RELEVE_1,
           FILTRE=_F(NOM_PARA='NOEUD',
                     VALE_K='C',),
           )

TEST_TABLE(PRECISION=1.E-2,
           VALE_CALC=-0.15458771415698,
           VALE_REFE=-0.15468999999999999,
           REFERENCE='NON_DEFINI',
           NOM_PARA='MXX',
           TABLE=RELEVE_1,
           FILTRE=_F(NOM_PARA='NOEUD',
                     VALE_K='D',),
           )

TEST_TABLE(PRECISION=1.E-2,
           VALE_CALC=-0.17756918890942,
           VALE_REFE=-0.17655999999999999,
           REFERENCE='NON_DEFINI',
           NOM_PARA='MYY',
           TABLE=RELEVE_1,
           FILTRE=_F(NOM_PARA='NOEUD',
                     VALE_K='D',),
           )

TEST_TABLE(PRECISION=1.E-2,
           VALE_CALC=-0.17743463574014,
           VALE_REFE=-0.17655999999999999,
           REFERENCE='NON_DEFINI',
           NOM_PARA='MXX',
           TABLE=RELEVE_1,
           FILTRE=_F(NOM_PARA='NOEUD',
                     VALE_K='E',),
           )

TEST_TABLE(PRECISION=1.E-2,
           VALE_CALC=-0.15472246477454,
           VALE_REFE=-0.15468999999999999,
           REFERENCE='NON_DEFINI',
           NOM_PARA='MYY',
           TABLE=RELEVE_1,
           FILTRE=_F(NOM_PARA='NOEUD',
                     VALE_K='E',),
           )

#---------------------------------------------------------------------
FIN()
#
