# person_in_charge: ayaovi-dzifa.kudawoo at edf.fr
# ======================================================================
# COPYRIGHT (C) 1991 - 2016  EDF R&D                  WWW.CODE-ASTER.ORG
# THIS PROGRAM IS FREE SOFTWARE; YOU CAN REDISTRIBUTE IT AND/OR MODIFY
# IT UNDER THE TERMS OF THE GNU GENERAL PUBLIC LICENSE AS PUBLISHED BY
# THE FREE SOFTWARE FOUNDATION; EITHER VERSION 2 OF THE LICENSE, OR
# (AT YOUR OPTION) ANY LATER VERSION.
#
# THIS PROGRAM IS DISTRIBUTED IN THE HOPE THAT IT WILL BE USEFUL, BUT
# WITHOUT ANY WARRANTY; WITHOUT EVEN THE IMPLIED WARRANTY OF
# MERCHANTABILITY OR FITNESS FOR A PARTICULAR PURPOSE. SEE THE GNU
# GENERAL PUBLIC LICENSE FOR MORE DETAILS.
#
# YOU SHOULD HAVE RECEIVED A COPY OF THE GNU GENERAL PUBLIC LICENSE
# ALONG WITH THIS PROGRAM; IF NOT, WRITE TO EDF R&D CODE_ASTER,
#    1 AVENUE DU GENERAL DE GAULLE, 92141 CLAMART CEDEX, FRANCE.
# ======================================================================
#


DEBUT(CODE=_F(NIV_PUB_WEB='INTERNET'), DEBUG=_F(SDVERI='OUI'))

MAIL=LIRE_MAILLAGE(FORMAT='MED',);

MAIL=MODI_MAILLAGE(reuse=MAIL,MAILLAGE=MAIL,
ORIE_SHB=_F(GROUP_MA='GEOTOT'),)

MAIL=DEFI_GROUP(reuse =MAIL,
                MAILLAGE=MAIL,
                CREA_GROUP_NO=(_F(GROUP_MA='SU0',),
                               _F(GROUP_MA='SU90',),
                               _F(GROUP_MA='SUINF',),
                               _F(GROUP_MA='SUSUP',),),);



MODMECA=AFFE_MODELE(MAILLAGE=MAIL,
                    AFFE=_F(TOUT='OUI',
                            PHENOMENE='MECANIQUE',
                            MODELISATION='SHB',),);


MAIL=MODI_MAILLAGE(MAILLAGE=MAIL,reuse=MAIL,
                   ORIE_PEAU_3D=_F(GROUP_MA='SUEXTEXT',),
                   );

MAT=DEFI_MATERIAU(ELAS=_F(E=2.0000000000E11,
                          NU=0.3,),);

CHM=AFFE_MATERIAU(MAILLAGE=MAIL,
                  AFFE=_F(TOUT='OUI',
                          MATER=MAT,),);


CHARGT=AFFE_CHAR_MECA(MODELE=MODMECA,
                      DDL_IMPO=(_F(GROUP_MA=('SU0'),
                                   DY=0.0,),
                                _F(GROUP_MA='SU90',
                                   DX=0.0,),
                                _F(GROUP_MA='SUINF',
                                   DZ=0.0,),),
                      PRES_REP=_F(GROUP_MA='SUEXTEXT',
                                   PRES=1.,),);

##########################################################

###### MATRICE DE RIGIDITE ELEMENTAIRE
#
MATR=CALC_MATR_ELEM(MODELE=MODMECA,
                    CHARGE=CHARGT,
                    CHAM_MATER=CHM,
                    OPTION='RIGI_MECA' )

###### MATRICE DE RIGIDITE ASSEMBLEE
#
NU=NUME_DDL(MATR_RIGI=MATR)
MATASS_1=ASSE_MATRICE(MATR_ELEM=MATR, NUME_DDL=NU)

###### DEPLACEMENT INITIAL
#

RESU=MECA_STATIQUE(MODELE=MODMECA,
                   CHAM_MATER=CHM,
                   EXCIT=_F(CHARGE=CHARGT,),
                  );


###### ETAT DE CONTRAINTES

SIGMA_1=CREA_CHAMP( OPERATION='EXTR', TYPE_CHAM='ELGA_SIEF_R',
                    RESULTAT=RESU, NUME_ORDRE=1,
                    NOM_CHAM='SIEF_ELGA' ),

###### MATRICE DE RIGIDITE GEOMETRIQUE ELEMENTAIRE
#
RIGELG_1=CALC_MATR_ELEM( MODELE=MODMECA,
                         OPTION='RIGI_GEOM',
                         SIEF_ELGA=SIGMA_1 )

###### MATRICE DE RIGIDITE GEOMETRIQUE ASSEMBLEE
#
RIGASG_1=ASSE_MATRICE(MATR_ELEM=RIGELG_1,NUME_DDL=NU)

##### RESOLUTION DU PROBLEME DE VALEURS PROPRES
#

MOD_1=CALC_MODES(MATR_RIGI_GEOM=RIGASG_1,
                 TYPE_RESU='MODE_FLAMB',
                 MATR_RIGI=MATASS_1,
                 CALC_CHAR_CRIT=_F(#CHAR_CRIT=(-1000000., 0.),
                                   NMAX_CHAR_CRIT=3,
                                   ),
                 )

TEST_RESU(RESU=(_F(PARA='CHAR_CRIT',
                   NUME_MODE=1,
                   REFERENCE='ANALYTIQUE',
                   RESULTAT=MOD_1,
                   VALE_CALC=-6.73594798E+05,
                   VALE_REFE=-659340,
                   PRECISION=0.03,),
                _F(PARA='CHAR_CRIT',
                   NUME_MODE=2,
                   REFERENCE='ANALYTIQUE',
                   RESULTAT=MOD_1,
                   VALE_CALC=-2.93480189E+05,
                   VALE_REFE=-293040,
                   PRECISION=1.E-2,),
                _F(PARA='CHAR_CRIT',
                   NUME_MODE=3,
                   REFERENCE='ANALYTIQUE',
                   RESULTAT=MOD_1,
                   VALE_CALC=-7.24921502E+04,
                   VALE_REFE=-73260,
                   PRECISION=0.02,),
                ),
          )

FIN()
