# MODIF  DATE 17/01/2012   AUTEUR SELLENET N.SELLENET 
# TITRE PLAQUE CIRCULAIRE POSEE     SOUS PRESSION DKT  170 N - 296 TRIA3
# ssls101b.para = tps_job 60 mem_job 128Mo ncpus 1 liste_test S
#            CONFIGURATION MANAGEMENT OF EDF VERSION
# ======================================================================
# COPYRIGHT (C) 1991 - 2012  EDF R&D                  WWW.CODE-ASTER.ORG
# THIS PROGRAM IS FREE SOFTWARE; YOU CAN REDISTRIBUTE IT AND/OR MODIFY
# IT UNDER THE TERMS OF THE GNU GENERAL PUBLIC LICENSE AS PUBLISHED BY
# THE FREE SOFTWARE FOUNDATION; EITHER VERSION 2 OF THE LICENSE, OR
# (AT YOUR OPTION) ANY LATER VERSION.
#
# THIS PROGRAM IS DISTRIBUTED IN THE HOPE THAT IT WILL BE USEFUL, BUT
# WITHOUT ANY WARRANTY; WITHOUT EVEN THE IMPLIED WARRANTY OF
# MERCHANTABILITY OR FITNESS FOR A PARTICULAR PURPOSE. SEE THE GNU
# GENERAL PUBLIC LICENSE FOR MORE DETAILS.
#
# YOU SHOULD HAVE RECEIVED A COPY OF THE GNU GENERAL PUBLIC LICENSE
# ALONG WITH THIS PROGRAM; IF NOT, WRITE TO EDF R&D CODE_ASTER,
#    1 AVENUE DU GENERAL DE GAULLE, 92141 CLAMART CEDEX, FRANCE.
# ======================================================================

DEBUT(CODE=_F(NOM='SSLS101B',NIV_PUB_WEB='INTERNET'),DEBUG=_F(SDVERI='OUI'))

#-----------------------------------------------------------------------
# POINTS:   O    MAILLES  M1    M2
#           A             M248  M255
#           B             M292  M293   M296
#           C             M74   M75
#           D             M76   M108   M109
#           E             M34   M40    M41
#           F             M122  M123   M124   M148   M152   M153
#-----------------------------------------------------------------------


MATER=DEFI_MATERIAU( ELAS=_F(  E = 1., NU = 0.3,  RHO = 1.) )

MAILL=LIRE_MAILLAGE(FORMAT='MED',   )

MAILL=DEFI_GROUP( reuse=MAILL,   MAILLAGE=MAILL,
  CREA_GROUP_MA=_F(  NOM = 'TOUT', TOUT = 'OUI'))

CHMAT=AFFE_MATERIAU(  MAILLAGE=MAILL,
                          AFFE=_F(  TOUT = 'OUI',   MATER = MATER) )

MODEL=AFFE_MODELE(  MAILLAGE=MAILL,    VERIF='MAILLE',
                        AFFE=_F( TOUT = 'OUI',   MODELISATION = 'DKT',
                              PHENOMENE = 'MECANIQUE') )

CINE=AFFE_CHAR_MECA(   MODELE=MODEL,DDL_IMPO=(
              _F( GROUP_NO = 'GRNO_ABC', DX = 0.,  DY = 0.,  DZ = 0.),
                       _F( GROUP_NO = 'GRNO_OA',  DY = 0.,  DRX = 0.,  DRZ = 0.),
                       _F( NOEUD = 'A',                 DRX = 0.,  DRZ = 0.),
                       _F( GROUP_NO = 'GRNO_OC',  DX = 0.,  DRY = 0.,  DRZ = 0.),
                       _F( NOEUD = 'C',                 DRY = 0.,  DRZ = 0.),
                       _F( NOEUD = 'O',        DX = 0.,  DY = 0.,
                                          DRX = 0.,  DRY = 0.,  DRZ = 0.))
                           )

PRES=AFFE_CHAR_MECA(   MODELE=MODEL,
                    FORCE_COQUE=_F(  TOUT = 'OUI', PRES = 1.)   )

CHF3=AFFE_CHAR_MECA(   MODELE=MODEL,
                    FORCE_COQUE=_F(  TOUT = 'OUI', F3 = -1.)   )

CHPE=AFFE_CHAR_MECA(   MODELE=MODEL,
                      PESANTEUR=_F(GRAVITE= 10.,
                                   DIRECTION=(0., 0., -1., ), ),)

CARELEM=AFFE_CARA_ELEM(   MODELE=MODEL,
                               COQUE=_F(
       GROUP_MA = 'TOUT',
  EPAIS = 0.1) )

DEPR=MECA_STATIQUE(MODELE=MODEL,
                   CHAM_MATER=CHMAT,
                   CARA_ELEM=CARELEM,
                   EXCIT=(_F(CHARGE=CINE,),
                          _F(CHARGE=PRES,),),);

DEF3=MECA_STATIQUE(MODELE=MODEL,
                   CHAM_MATER=CHMAT,
                   CARA_ELEM=CARELEM,
                   EXCIT=(_F(CHARGE=CINE,),
                          _F(CHARGE=CHF3,),),);

DEPE=MECA_STATIQUE(MODELE=MODEL,
                   CHAM_MATER=CHMAT,
                   CARA_ELEM=CARELEM,
                   EXCIT=(_F(CHARGE=CINE,),
                          _F(CHARGE=CHPE,),),);

DEP=MACRO_ELAS_MULT(MODELE=MODEL,
                    CHAM_MATER=CHMAT,
                    CARA_ELEM=CARELEM,
                    CHAR_MECA_GLOBAL=CINE,
                    CAS_CHARGE=(_F(NOM_CAS='PRES',
                                   CHAR_MECA=PRES,),
                                _F(NOM_CAS='CHF3',
                                   CHAR_MECA=CHF3,),
                                _F(NOM_CAS='CHPE',
                                   CHAR_MECA=CHPE,),
                      ),);


#--------------------------------------------------------------------

TEST_RESU(RESU=(
     # DEPLACEMENTS PRESSION

          _F(  RESULTAT = DEPR, NUME_ORDRE=1, NOM_CHAM='DEPL',
            CRITERE = 'RELATIF',  PRECISION = 0.2E-2,  # O
            NOEUD = 'O', REFERENCE = 'ANALYTIQUE', NOM_CMP = 'DZ', VALE = -695.6256),
          _F(  RESULTAT = DEPR, NUME_ORDRE=1, NOM_CHAM='DEPL',
            CRITERE = 'ABSOLU',   PRECISION = 1.0E-10, # A
            NOEUD = 'A', REFERENCE = 'ANALYTIQUE', NOM_CMP = 'DZ', VALE = 0.),
          _F(  RESULTAT = DEPR, NUME_ORDRE=1, NOM_CHAM='DEPL',
            CRITERE = 'ABSOLU',   PRECISION = 1.0E-10, # B
            NOEUD = 'B',  REFERENCE = 'ANALYTIQUE', NOM_CMP = 'DZ', VALE = 0.),
          _F(  RESULTAT = DEPR, NUME_ORDRE=1, NOM_CHAM='DEPL',
            CRITERE = 'ABSOLU',   PRECISION = 1.0E-10, # C
            NOEUD = 'C', REFERENCE = 'ANALYTIQUE', NOM_CMP = 'DZ', VALE = 0.),
          _F(  RESULTAT = DEPR, NUME_ORDRE=1, NOM_CHAM='DEPL',
            CRITERE = 'RELATIF',  PRECISION = 0.2E-2,  # D
            NOEUD = 'D', REFERENCE = 'ANALYTIQUE', NOM_CMP = 'DZ', VALE = -489.727),
          _F(  RESULTAT = DEPR, NUME_ORDRE=1, NOM_CHAM='DEPL',
            CRITERE = 'RELATIF',  PRECISION = 0.2E-2,  # E
            NOEUD = 'E', REFERENCE = 'ANALYTIQUE', NOM_CMP = 'DZ', VALE = -489.727),
          _F(  RESULTAT = DEPR, NUME_ORDRE=1, NOM_CHAM='DEPL',
            CRITERE = 'RELATIF',  PRECISION = 0.2E-2,  # F
            NOEUD = 'F', REFERENCE = 'ANALYTIQUE', NOM_CMP = 'DZ', VALE = -435.8974),
     # DEPLACEMENTS F3

          _F(  RESULTAT = DEF3, NUME_ORDRE=1, NOM_CHAM='DEPL',
            CRITERE = 'RELATIF',  PRECISION = 0.2E-2,  # O
            NOEUD = 'O', REFERENCE = 'ANALYTIQUE', NOM_CMP = 'DZ', VALE = -695.6256),
          _F(  RESULTAT = DEF3, NUME_ORDRE=1, NOM_CHAM='DEPL',
            CRITERE = 'ABSOLU',   PRECISION = 1.0E-10, # A
            NOEUD = 'A', REFERENCE = 'ANALYTIQUE', NOM_CMP = 'DZ', VALE = 0.),
          _F(  RESULTAT = DEF3, NUME_ORDRE=1, NOM_CHAM='DEPL',
            CRITERE = 'ABSOLU',   PRECISION = 1.0E-10, # B
            NOEUD = 'B', REFERENCE = 'ANALYTIQUE', NOM_CMP = 'DZ', VALE = 0.),
          _F(  RESULTAT = DEF3, NUME_ORDRE=1, NOM_CHAM='DEPL',
            CRITERE = 'ABSOLU',   PRECISION = 1.0E-10, # C
            NOEUD = 'C', REFERENCE = 'ANALYTIQUE', NOM_CMP = 'DZ', VALE = 0.),
          _F(  RESULTAT = DEF3, NUME_ORDRE=1, NOM_CHAM='DEPL',
            CRITERE = 'RELATIF',  PRECISION = 0.2E-2,  # D
            NOEUD = 'D', REFERENCE = 'ANALYTIQUE', NOM_CMP = 'DZ', VALE = -489.727),
          _F(  RESULTAT = DEF3, NUME_ORDRE=1, NOM_CHAM='DEPL',
            CRITERE = 'RELATIF',  PRECISION = 0.2E-2,  # E
            NOEUD = 'E', REFERENCE = 'ANALYTIQUE', NOM_CMP = 'DZ', VALE = -489.727),
          _F(  RESULTAT = DEF3, NUME_ORDRE=1, NOM_CHAM='DEPL',
            CRITERE = 'RELATIF',  PRECISION = 0.2E-2,  # F
            NOEUD = 'F', REFERENCE = 'ANALYTIQUE', NOM_CMP = 'DZ', VALE = -435.8974),
     # DEPLACEMENTS PESANTEUR

          _F(  RESULTAT = DEPE, NUME_ORDRE=1, NOM_CHAM='DEPL',
            CRITERE = 'RELATIF',  PRECISION = 0.2E-2,  # O
            NOEUD = 'O', REFERENCE = 'ANALYTIQUE', NOM_CMP = 'DZ',     VALE = -695.6256),
          _F(  RESULTAT = DEPE, NUME_ORDRE=1, NOM_CHAM='DEPL',
            CRITERE = 'ABSOLU',   PRECISION = 1.0E-10, # A
            NOEUD = 'A', REFERENCE = 'ANALYTIQUE', NOM_CMP = 'DZ',     VALE = 0.),
          _F(  RESULTAT = DEPE, NUME_ORDRE=1, NOM_CHAM='DEPL',
            CRITERE = 'ABSOLU',   PRECISION = 1.0E-10, # B
            NOEUD = 'B', REFERENCE = 'ANALYTIQUE', NOM_CMP = 'DZ',     VALE = 0.),
          _F(  RESULTAT = DEPE, NUME_ORDRE=1, NOM_CHAM='DEPL',
            CRITERE = 'ABSOLU',   PRECISION = 1.0E-10, # C
            NOEUD = 'C', REFERENCE = 'ANALYTIQUE', NOM_CMP = 'DZ',     VALE = 0.),
          _F(  RESULTAT = DEPE, NUME_ORDRE=1, NOM_CHAM='DEPL',
            CRITERE = 'RELATIF',  PRECISION = 0.2E-2,  # D
            NOEUD = 'D', REFERENCE = 'ANALYTIQUE', NOM_CMP = 'DZ',     VALE = -489.727),
          _F(  RESULTAT = DEPE, NUME_ORDRE=1, NOM_CHAM='DEPL',
            CRITERE = 'RELATIF',  PRECISION = 0.2E-2,  # E
            NOEUD = 'E', REFERENCE = 'ANALYTIQUE', NOM_CMP = 'DZ',     VALE = -489.727),
          _F(  RESULTAT = DEPE, NUME_ORDRE=1, NOM_CHAM='DEPL',
            CRITERE = 'RELATIF',  PRECISION = 0.2E-2,  # F
            NOEUD = 'F', REFERENCE = 'ANALYTIQUE', NOM_CMP = 'DZ',     VALE = -435.8974))
          )

#--------------------------------------------------------------------

EPOT_PR=POST_ELEM(  RESULTAT=DEPR, NUME_ORDRE=1 ,
                       ENER_POT=_F(  TOUT = 'OUI')     )

EPOT_F3=POST_ELEM(  RESULTAT=DEF3, NUME_ORDRE=1 ,
                       ENER_POT=_F(  TOUT = 'OUI')     )

EPOT_PE=POST_ELEM(  RESULTAT=DEPE, NUME_ORDRE=1 ,
                       ENER_POT=_F(  TOUT = 'OUI')     )

EPOT_PP=POST_ELEM(  RESULTAT=DEP, NUME_ORDRE=1 , MODELE=MODEL,
                        CHAM_MATER=CHMAT,     CARA_ELEM=CARELEM,
                       ENER_POT=_F(  TOUT = 'OUI')     )

# LES VALEURS DE REFERENCE SONT CELLES D'ASTER VERSION 3.02.21
# DEPLACEMENTS PRESSION

TEST_TABLE(      TABLE=EPOT_PR,
                   FILTRE=_F(  NOM_PARA = 'LIEU',
                            VALE_K = 'MAILL'),
                 NOM_PARA='TOTALE', REFERENCE = 'NON_REGRESSION',
                 PRECISION=1.5E-3,
                     VALE=1.24997E+02          )

# DEPLACEMENTS F3

TEST_TABLE(      TABLE=EPOT_F3,
                   FILTRE=_F(  NOM_PARA = 'LIEU',
                            VALE_K = 'MAILL'),
                 NOM_PARA='TOTALE', REFERENCE = 'NON_REGRESSION',
                 PRECISION=1.5E-3,
                     VALE=1.24997E+02          )

# DEPLACEMENTS PESANTEUR

TEST_TABLE(      TABLE=EPOT_PE,
                   FILTRE=_F(  NOM_PARA = 'LIEU',
                            VALE_K = 'MAILL'),
                 NOM_PARA='TOTALE', REFERENCE = 'NON_REGRESSION',
                 PRECISION=1.5E-3,
                     VALE=1.24997E+02          )

# TEST PRESSION SUR RESULTAT VENANT DE MACRO_ELAS_MULT

TEST_TABLE(      TABLE=EPOT_PP,
                   FILTRE=_F(  NOM_PARA = 'LIEU',
                            VALE_K = 'MAILL'),
                 NOM_PARA='TOTALE', REFERENCE = 'NON_REGRESSION',
                 PRECISION=1.5E-3,
                     VALE=1.24997E+02          )



#--------------------------------------------------------------------

DEPR=CALC_ELEM( reuse= DEPR ,RESULTAT= DEPR ,

                         OPTION=('EFGE_ELNO',),
                )

#--------------------------------------------------------------------
RELEVE_1=POST_RELEVE_T(
                   ACTION=_F(  NOEUD = ( 'O',  'A',  'B',  'C',  'D',  'E',  'F', ),
                            INTITULE = 'EFGE',
                            RESULTAT = DEPR,
                            NUME_ORDRE=1,
                            NOM_CHAM='EFGE_ELNO',
                            NOM_CMP = ( 'MXX', 'MYY', ),
                            OPERATION = 'EXTRACTION')
                          )

#

TEST_TABLE(       TABLE=RELEVE_1,
                    FILTRE=_F(  NOM_PARA = 'NOEUD',
                             VALE_K = 'O'),
                  NOM_PARA='MXX', REFERENCE = 'ANALYTIQUE',
                 PRECISION=0.1E-2,
                      VALE=-0.20625       )

TEST_TABLE(       TABLE=RELEVE_1,
                    FILTRE=_F(  NOM_PARA = 'NOEUD',
                             VALE_K = 'O'),
                  NOM_PARA='MYY', REFERENCE = 'ANALYTIQUE',
                 PRECISION=0.2E-2,
                      VALE=-0.20625       )

TEST_TABLE(       TABLE=RELEVE_1,
                    FILTRE=_F(  NOM_PARA = 'NOEUD',
                             VALE_K = 'A'),
                  NOM_PARA='MXX', REFERENCE = 'ANALYTIQUE',
                   CRITERE='ABSOLU',
                 PRECISION=0.25E-2,
                      VALE=0.            )

TEST_TABLE(       TABLE=RELEVE_1,
                    FILTRE=_F(  NOM_PARA = 'NOEUD',
                             VALE_K = 'A'),
                  NOM_PARA='MYY', REFERENCE = 'ANALYTIQUE',
                 PRECISION=3.5E-2,
                      VALE=-0.0875       )

TEST_TABLE(       TABLE=RELEVE_1,
                    FILTRE=_F(  NOM_PARA = 'NOEUD',
                             VALE_K = 'B'),
                  NOM_PARA='MXX', REFERENCE = 'ANALYTIQUE',
                 PRECISION=6.E-2,
                      VALE=-0.04375       )

TEST_TABLE(       TABLE=RELEVE_1,
                    FILTRE=_F(  NOM_PARA = 'NOEUD',
                             VALE_K = 'B'),
                  NOM_PARA='MYY', REFERENCE = 'ANALYTIQUE',
                 PRECISION=6.E-2,
                      VALE=-0.04375       )

TEST_TABLE(       TABLE=RELEVE_1,
                    FILTRE=_F(  NOM_PARA = 'NOEUD',
                             VALE_K = 'C'),
                  NOM_PARA='MXX', REFERENCE = 'ANALYTIQUE',
                 PRECISION=3.5E-2,
                      VALE=-0.0875       )

TEST_TABLE(       TABLE=RELEVE_1,
                    FILTRE=_F(  NOM_PARA = 'NOEUD',
                             VALE_K = 'C'),
                  NOM_PARA='MYY', REFERENCE = 'ANALYTIQUE',
                   CRITERE='ABSOLU',
                 PRECISION=0.25E-2,
                      VALE=0.            )

TEST_TABLE(       TABLE=RELEVE_1,
                    FILTRE=_F(  NOM_PARA = 'NOEUD',
                             VALE_K = 'D'),
                  NOM_PARA='MXX', REFERENCE = 'ANALYTIQUE',
                 PRECISION=0.5E-2,
                      VALE=-0.15469       )

TEST_TABLE(       TABLE=RELEVE_1,
                    FILTRE=_F(  NOM_PARA = 'NOEUD',
                             VALE_K = 'D'),
                  NOM_PARA='MYY', REFERENCE = 'ANALYTIQUE',
                 PRECISION=0.5E-2,
                      VALE=-0.17656       )

TEST_TABLE(       TABLE=RELEVE_1,
                    FILTRE=_F(  NOM_PARA = 'NOEUD',
                             VALE_K = 'E'),
                  NOM_PARA='MXX', REFERENCE = 'ANALYTIQUE',
                 PRECISION=0.5E-2,
                      VALE=-0.17656       )

TEST_TABLE(       TABLE=RELEVE_1,
                    FILTRE=_F(  NOM_PARA = 'NOEUD',
                             VALE_K = 'E'),
                  NOM_PARA='MYY', REFERENCE = 'ANALYTIQUE',
                 PRECISION=0.5E-2,
                      VALE=-0.15469       )

TEST_TABLE(       TABLE=RELEVE_1,
                    FILTRE=_F(  NOM_PARA = 'NOEUD',
                             VALE_K = 'F'),
                  NOM_PARA='MXX', REFERENCE = 'ANALYTIQUE',
                 PRECISION=0.3E-2,
                      VALE=-0.15425       )

TEST_TABLE(       TABLE=RELEVE_1,
                    FILTRE=_F(  NOM_PARA = 'NOEUD',
                             VALE_K = 'F'),
                  NOM_PARA='MYY', REFERENCE = 'ANALYTIQUE',
                 PRECISION=0.3E-2,
                      VALE=-0.15425       )

#--------------------------------------------------------------------

FIN()
#
