# MODIF  DATE 02/02/2010   AUTEUR PELLET J.PELLET 
# TITRE COQUE CYLINDRIQUE PINCEE A BORDS LIBRES
#            CONFIGURATION MANAGEMENT OF EDF VERSION
# ======================================================================
# COPYRIGHT (C) 1991 - 2001  EDF R&D                  WWW.CODE-ASTER.ORG
# THIS PROGRAM IS FREE SOFTWARE; YOU CAN REDISTRIBUTE IT AND/OR MODIFY
# IT UNDER THE TERMS OF THE GNU GENERAL PUBLIC LICENSE AS PUBLISHED BY
# THE FREE SOFTWARE FOUNDATION; EITHER VERSION 2 OF THE LICENSE, OR
# (AT YOUR OPTION) ANY LATER VERSION.
#
# THIS PROGRAM IS DISTRIBUTED IN THE HOPE THAT IT WILL BE USEFUL, BUT
# WITHOUT ANY WARRANTY; WITHOUT EVEN THE IMPLIED WARRANTY OF
# MERCHANTABILITY OR FITNESS FOR A PARTICULAR PURPOSE. SEE THE GNU
# GENERAL PUBLIC LICENSE FOR MORE DETAILS.
#
# YOU SHOULD HAVE RECEIVED A COPY OF THE GNU GENERAL PUBLIC LICENSE
# ALONG WITH THIS PROGRAM; IF NOT, WRITE TO EDF R&D CODE_ASTER,
#    1 AVENUE DU GENERAL DE GAULLE, 92141 CLAMART CEDEX, FRANCE.
# ======================================================================
#CAS_TEST__: SSLS20A
# SSLS20/A                 COMMANDES                             7/03/91
# COQUE CYLINDRIQUE PINCEE A BORDS LIBRES
# MAILLAGE 1/8 DE CYLINDRE
#                                                 REF:SFM.VPCS SSLS20
# MODELISATION DKT: 176 NOEUDS -- 300 MAILLES TRIA3
# POINTS  A=NO176  B=NO11  C=NO1  D=NO166
#=======================================================================
#

DEBUT(CODE=_F(  NOM = 'SSLS20A',NIV_PUB_WEB='INTERNET'),DEBUG=_F(SDVERI='OUI'))

MATERI_1=DEFI_MATERIAU( ELAS=_F(  E = 10.5E+6,      NU = 0.3125) )

MAILLA_1=LIRE_MAILLAGE(   )

MAILLA_1=DEFI_GROUP( reuse=MAILLA_1,   MAILLAGE=MAILLA_1,
  CREA_GROUP_MA=_F(  NOM = 'TOUT', TOUT = 'OUI'))

CH_MAT_1=AFFE_MATERIAU(  MAILLAGE=MAILLA_1,
                            AFFE=_F(  TOUT = 'OUI',   MATER = MATERI_1) )

MODELE_1=AFFE_MODELE(  MAILLAGE=MAILLA_1, VERIF='MAILLE',
                          AFFE=_F( TOUT = 'OUI', MODELISATION = 'DKT',
                                PHENOMENE = 'MECANIQUE') )

CHARGE_1=AFFE_CHAR_MECA(MODELE=MODELE_1,DDL_IMPO=(
                  _F( GROUP_NO = 'AB',       DZ = 0.,
                                              DRX = 0., DRY = 0.),
                           _F( GROUP_NO = 'ADSANSA',  DX = 0.,
                                              DRY = 0., DRZ = 0.),
                           _F( GROUP_NO = 'BCSANSB',  DY = 0.,
                                              DRX = 0., DRZ = 0.),
                           _F( GROUP_NO = 'A',        DX = 0.,
                                              DRZ = 0.),
                           _F( GROUP_NO = 'B',        DY = 0.,
                                              DRZ = 0.)),
                  FORCE_NODALE=_F(  GROUP_NO = 'A',  FY = -25.) )

CARAC__1=AFFE_CARA_ELEM(   MODELE=MODELE_1,
                               COQUE=_F(
       GROUP_MA = 'TOUT',
  EPAIS = 0.094) )

MATELE_1=CALC_MATR_ELEM(   MODELE=MODELE_1,     CHARGE=CHARGE_1,
                               CARA_ELEM=CARAC__1,
                               CHAM_MATER=CH_MAT_1,
                               OPTION='RIGI_MECA' )

VEL=CALC_VECT_ELEM(   CHARGE=CHARGE_1,  OPTION='CHAR_MECA' )

NU=NUME_DDL(   MATR_RIGI=MATELE_1 )

MATASS=ASSE_MATRICE(   MATR_ELEM=MATELE_1,   NUME_DDL=NU )

VECASS=ASSE_VECTEUR(   VECT_ELEM=VEL,        NUME_DDL=NU )

MATASS=FACTORISER( reuse=MATASS,  MATR_ASSE=MATASS )

VECASS=RESOUDRE(reuse=VECASS, MATR=MATASS,     CHAM_NO=VECASS)

#---------------------------------------------------------------------


TEST_RESU(
            CHAM_NO=_F(  CHAM_GD = VECASS,   CRITERE = 'RELATIF',   PRECISION = 1.E-2,
        NOEUD = 'NO176',    NOM_CMP = 'DY', REFERENCE = 'SOURCE_EXTERNE', VALE = -0.1139) )



#---------------------------------------------------------------------
# Validation de PROJ_CHAMP / METHODE=NUAG_DEG_1/0 :
#----------------------------------------------------------------------

CH_INIT=CREA_CHAMP( OPERATION='AFFE', TYPE_CHAM='NOEU_DEPL_R', MAILLAGE=MAILLA_1,
                         AFFE=_F(   TOUT = 'OUI',
            NOM_CMP = (    'DX',        'DY',        'DZ',
                          'DRX',       'DRY',       'DRZ',      ),
            VALE = (  0.00000E+00,  0.00000E+00,  0.00000E+00,
                        0.00000E+00,  0.00000E+00,  0.00000E+00, ))
                    )

CH_PRO0=PROJ_CHAMP( METHODE='NUAGE_DEG_0',  CHAM_NO=VECASS, CHAM_NO_REFE=CH_INIT,MAILLAGE_1=MAILLA_1, MAILLAGE_2=MAILLA_1,   )

TEST_RESU( CHAM_NO=_F(  CHAM_GD = CH_PRO0,  CRITERE = 'RELATIF',   PRECISION = 3.E-2,
        NOEUD = 'NO176',    NOM_CMP = 'DY', REFERENCE = 'SOURCE_EXTERNE', VALE = -0.1139) )

CH_PRO1=PROJ_CHAMP( METHODE='NUAGE_DEG_1',  CHAM_NO=VECASS, CHAM_NO_REFE=CH_INIT,MAILLAGE_1=MAILLA_1, MAILLAGE_2=MAILLA_1,
                    TITRE='CH_PRO1',)

TEST_RESU( CHAM_NO=_F(  CHAM_GD = CH_PRO1,  CRITERE = 'RELATIF',   PRECISION = 1.E-2,
        NOEUD = 'NO176',    NOM_CMP = 'DY', REFERENCE = 'SOURCE_EXTERNE', VALE = -0.1139) )


#-----------------------------------------------------------------------------
# Validation de PROJ_CHAMP / METHODE=NUAG_DEG_1/0 + VIS_A_VIS (non regression)
#------------------------------------------------------------------------------
CH_PRO2=PROJ_CHAMP( METHODE='NUAGE_DEG_0',  CHAM_NO=VECASS, CHAM_NO_REFE=CH_INIT,MAILLAGE_1=MAILLA_1, MAILLAGE_2=MAILLA_1,
                    VIS_A_VIS=(
                        _F(TOUT_1     ='OUI',  TOUT_2='OUI',),
                        _F(GROUP_MA_1 ='GMA1', MAILLE_2='MA19',),
                        _F(GROUP_MA_1 ='GMA1', NOEUD_2='NO164',),
                  ))
TEST_RESU( CHAM_NO=_F(  CHAM_GD = CH_PRO2,  CRITERE = 'RELATIF',   PRECISION = 1.E-6,
        NOEUD = 'NO164',    NOM_CMP = 'DY', REFERENCE = 'NON_REGRESSION', VALE =-2.0640918954607E-03) )

CH_PRO3=PROJ_CHAMP( METHODE='NUAGE_DEG_1',  CHAM_NO=VECASS, CHAM_NO_REFE=CH_INIT,MAILLAGE_1=MAILLA_1, MAILLAGE_2=MAILLA_1,
                    VIS_A_VIS=(
                        _F(TOUT_1     ='OUI',  TOUT_2='OUI',),
                        _F(GROUP_MA_1 ='GMA1', MAILLE_2='MA19',),
                        _F(GROUP_MA_1 ='GMA1', NOEUD_2='NO164',),
                  ))
TEST_RESU( CHAM_NO=_F(  CHAM_GD = CH_PRO3,  CRITERE = 'RELATIF',   PRECISION = 1.E-6,
        NOEUD = 'NO164',    NOM_CMP = 'DY', REFERENCE = 'NON_REGRESSION', VALE = 2.3645308688519E-05) )


FIN()
#
