# MODIF  DATE 22/05/2012   AUTEUR SFAYOLLE S.FAYOLLE 
# AUTEUR : F. LEBOUVIER (DeltaCAD)
#  TITRE  : FLEXION D'UNE DALLE EN BETON ARME (MODELE GLRC) APPUYEE SUR 2 COTES:
# ssls126c.para = tps_job 60 mem_job 128Mo ncpus 1 liste_test R
#            CONFIGURATION MANAGEMENT OF EDF VERSION
# ======================================================================
# COPYRIGHT (C) 1991 - 2012  EDF R&D                  WWW.CODE-ASTER.ORG
# THIS PROGRAM IS FREE SOFTWARE; YOU CAN REDISTRIBUTE IT AND/OR MODIFY  
# IT UNDER THE TERMS OF THE GNU GENERAL PUBLIC LICENSE AS PUBLISHED BY  
# THE FREE SOFTWARE FOUNDATION; EITHER VERSION 2 OF THE LICENSE, OR     
# (AT YOUR OPTION) ANY LATER VERSION.                                                    
#                                                                       
# THIS PROGRAM IS DISTRIBUTED IN THE HOPE THAT IT WILL BE USEFUL, BUT   
# WITHOUT ANY WARRANTY; WITHOUT EVEN THE IMPLIED WARRANTY OF            
# MERCHANTABILITY OR FITNESS FOR A PARTICULAR PURPOSE. SEE THE GNU      
# GENERAL PUBLIC LICENSE FOR MORE DETAILS.                              
#                                                                       
# YOU SHOULD HAVE RECEIVED A COPY OF THE GNU GENERAL PUBLIC LICENSE     
# ALONG WITH THIS PROGRAM; IF NOT, WRITE TO EDF R&D CODE_ASTER,         
#    1 AVENUE DU GENERAL DE GAULLE, 92141 CLAMART CEDEX, FRANCE.        
# ======================================================================
#           REGIME DE POUTRE ELASTIQUE
#
#  DETAILS : MODELISATION Q4GG
#            Mailles TRIA3

DEBUT(CODE=_F(NOM='SSLS126C',NIV_PUB_WEB='INTERNET'),DEBUG=_F(SDVERI='OUI'))

# Carateristiques de la dalle

EP = 0.12;         # Epaisseur
AX = 7.854E-4;     # Taux de ferraillage
AY = 7.854E-4;     # Taux de ferraillage
EZ = 0.038;        # Distance grille/surface moyenne de la dalle
EZ = 0.5*EP - EZ   # Enrobage
R0 = EZ/(0.5*EP)   # Distance normalisee du ferraillage par rapport
                   # au feuillet moyen

# Caracteristiques du beton

EB  = 35700.E6;    # Module d'Young
NUB = 0.22;

# Caracteristiques de l'acier (armatures)

E  = 210000.E6;    # Module d'Young
NU = 0.3;          # Coefficient de poisson


MAIL=LIRE_MAILLAGE(FORMAT='MED',);

MAIL=DEFI_GROUP(reuse =MAIL,
                MAILLAGE=MAIL,
                CREA_GROUP_NO=(_F(GROUP_MA='LCONTY',),
                               _F(GROUP_MA='LCONTX',),
                               _F(GROUP_MA='LSYMX' ,),
                               _F(GROUP_MA='LSYMY' ,),
                             ),);

MOD=AFFE_MODELE(MAILLAGE=MAIL,
                AFFE=_F(TOUT='OUI',
                        PHENOMENE='MECANIQUE',
                        MODELISATION='Q4GG',),);

MAIL=MODI_MAILLAGE(reuse=MAIL,
                   MAILLAGE=MAIL,
                   ORIE_NORM_COQUE=_F(GROUP_MA='DALLE',
                                      VECT_NORM=(0.,0.,1.),
                                      GROUP_NO='A1',),
                   );

CPRAG  = 0.
GAM    = 0.0

CPRG  = CPRAG
MF     = 1.0E16
QP     = 0.15E0

MAT_B=DEFI_MATERIAU(
                           ELAS = _F(
                                      E    =  EB,
                                      NU   =  NUB,
                                      RHO    = 2500.0,
                                     ),
                           BETON_ECRO_LINE = _F(
                                      D_SIGM_EPSI = 0.0,
                                      SYT   =  4.4E6,
                                      SYC    = -52.5E6,
                                     ),
                          );

MAT_A=DEFI_MATERIAU(
                           ELAS = _F(
                                      E    =  E,
                                      NU   =  NU,
                                     ),
                           ECRO_LINE = _F(
                                      D_SIGM_EPSI = 0.0,
                                      SY   =  5.E8,
                                     ),
                          );
MAT = DEFI_GLRC(RELATION='GLRC_DAMAGE',
                        BETON = _F(
                          MATER = MAT_B,
                          EPAIS = EP,
                          GAMMA = GAM,
                          QP1 = QP,
                          QP2 = QP,

                          C1N1 = CPRG,C1N2 = CPRG,C1N3 = CPRG,
                          C2N1 = CPRG,C2N2 = CPRG,C2N3 = CPRG,
                          C1M1 = CPRG,C1M2 = CPRG,C1M3 = CPRG,
                          C2M1 = CPRG,C2M2 = CPRG,C2M3 = CPRG,
                         ),
                        NAPPE = (_F(
                          MATER = MAT_A,
                          OMX = AX,
                          OMY = AY,
                          RX = R0,
                          RY = R0,
                         ),_F(
                          MATER = MAT_A,
                          OMX = AX,
                          OMY = AY,
                          RX = -R0,
                          RY = -R0,
                         )),
                         INFO=2,
                                             );

CHMAT=AFFE_MATERIAU(MAILLAGE=MAIL,
                    AFFE=_F(TOUT='OUI',
                            MATER=MAT,),);

CARA_ELE=AFFE_CARA_ELEM(MODELE=MOD,
                        COQUE=_F(GROUP_MA='MESH',
                                 EPAIS=EP,
                                 ANGL_REP=(0.0,0.0,),),);

COND_LIM=AFFE_CHAR_MECA(MODELE=MOD,
                        DDL_IMPO=(_F(GROUP_NO='LCONTY',
                                     DZ=0.0,),
                                  _F(GROUP_NO='LSYMX',
                                     DY=0,
                                     DRX=0,),
                                  _F(GROUP_NO='LSYMY',
                                     DX=0,
                                     DRY=0.0,),),);

PRES=AFFE_CHAR_MECA(MODELE=MOD,
                    FORCE_COQUE=_F(GROUP_MA='DALLE',
                                   PRES=-10000.0,),);
CH_FO=DEFI_FONCTION(NOM_PARA='INST',
                     VALE=(0.0, 0.0,1.0, 1.0),
                     PROL_DROITE='LINEAIRE',
                     PROL_GAUCHE='LINEAIRE',
                   );

INST=DEFI_LIST_REEL(DEBUT=0.0,INTERVALLE=(
                          _F(JUSQU_A = 1.,NOMBRE = 1),
                      ),);

RESU=STAT_NON_LINE( MODELE=MOD,
                      CHAM_MATER= CHMAT,
                      CARA_ELEM = CARA_ELE,
                      COMP_INCR=_F(
                                    RELATION = 'ELAS',
                                    ),
                      CONVERGENCE=_F(ITER_GLOB_MAXI=10),
                      INCREMENT=_F( LIST_INST = INST,
                                    PRECISION =1.E-1),
                      EXCIT=(   _F( CHARGE = COND_LIM,),
                                _F( CHARGE = PRES,
                                    FONC_MULT = CH_FO,),
                     ),);

RESU=CALC_ELEM(reuse=RESU,
            OPTION=(
                    'EFGE_ELNO',
                    'DEGE_ELNO',
                    'VARI_ELNO'
                    ),
                     RESULTAT=RESU,
              );

TEST_RESU(RESU=(
           _F( RESULTAT = RESU,
               NUME_ORDRE = 1,
               NOM_CHAM = 'DEPL',
               CRITERE = 'RELATIF',
               PRECISION = 0.02,
               GROUP_NO = 'A1',
               NOM_CMP = 'DZ',
               VALE = 2.433E-4,
               REFERENCE = 'ANALYTIQUE'),
             ),
          );
TEST_RESU(RESU=(
           _F( RESULTAT = RESU,
               NUME_ORDRE = 1,
               NOM_CHAM = 'EFGE_ELNO',
               CRITERE = 'RELATIF',
               PRECISION = 0.025,
               GROUP_NO = 'A1',
               MAILLE='M266',
               NOM_CMP = 'MXX',
               VALE = 4050.,
               REFERENCE = 'ANALYTIQUE'),
             ),
           );
TEST_RESU(RESU=(
           _F( RESULTAT = RESU,
               NUME_ORDRE = 1,
               NOM_CHAM = 'DEGE_ELNO',
               CRITERE = 'RELATIF',
               PRECISION = 0.030,
               GROUP_NO = 'A1',
               MAILLE='M266',
               NOM_CMP = 'KXX',
               VALE = 7.21E-4,
               REFERENCE = 'ANALYTIQUE'),
             ),
        );

FIN();
