# MODIF  DATE 16/05/2002   AUTEUR DURAND C.DURAND 
# TITRE  PLAQUE CARREE COMPOSITE SOUS PRESSION UNIFORME
#            CONFIGURATION MANAGEMENT OF EDF VERSION
# ======================================================================
# COPYRIGHT (C) 1991 - 2001  EDF R&D                  WWW.CODE-ASTER.ORG
# THIS PROGRAM IS FREE SOFTWARE; YOU CAN REDISTRIBUTE IT AND/OR MODIFY
# IT UNDER THE TERMS OF THE GNU GENERAL PUBLIC LICENSE AS PUBLISHED BY
# THE FREE SOFTWARE FOUNDATION; EITHER VERSION 2 OF THE LICENSE, OR   
# (AT YOUR OPTION) ANY LATER VERSION.                                 
#
# THIS PROGRAM IS DISTRIBUTED IN THE HOPE THAT IT WILL BE USEFUL, BUT 
# WITHOUT ANY WARRANTY; WITHOUT EVEN THE IMPLIED WARRANTY OF          
# MERCHANTABILITY OR FITNESS FOR A PARTICULAR PURPOSE. SEE THE GNU    
# GENERAL PUBLIC LICENSE FOR MORE DETAILS.                            
#
# YOU SHOULD HAVE RECEIVED A COPY OF THE GNU GENERAL PUBLIC LICENSE   
# ALONG WITH THIS PROGRAM; IF NOT, WRITE TO EDF R&D CODE_ASTER,       
#    1 AVENUE DU GENERAL DE GAULLE, 92141 CLAMART CEDEX, FRANCE.      
# ======================================================================
#---------------------------------------------------------------------
#         - MODELISATION AVEC DES ELEMENTS 'DST'(TRIA3)
#---------------------------------------------------------------------
#
DEBUT(CODE=_F(NOM='SSLS115C',NIV_PUB_WEB='INTERNET'),);
PRE_GIBI();
MA=LIRE_MAILLAGE(VERI_MAIL=_F(VERIF='NON'),);
MA=DEFI_GROUP(reuse =MA,
              MAILLAGE=MA,
              CREA_GROUP_NO=(_F(GROUP_MA='AB',),
                             _F(GROUP_MA='BC',),
                             _F(GROUP_MA='CD',),
                             _F(GROUP_MA='DA',),),);
MO=AFFE_MODELE(AFFE=_F(GROUP_MA='MAIL',
                       PHENOMENE='MECANIQUE',
                       MODELISATION='DST',),
               MAILLAGE=MA,);
MA=MODI_MAILLAGE(reuse =MA,
                 ORIE_NORM_COQUE=_F(VECT_NORM=(0.0,0.0,1.0),
                                    GROUP_MA='MAIL1',
                                    GROUP_NO='C',),
                 MAILLAGE=MA,
                 INFO=2,
                 MODELE=MO,);
CAR_ELE=AFFE_CARA_ELEM(MODELE=MO,
                       COQUE=_F(ANGL_REP=(20.0,-30.0),
                                GROUP_MA='MAIL',
                                EPAIS=0.1,),);
MAT1=DEFI_MATERIAU(ELAS_ORTH=_F(E_L=3.4156,
                                G_LN=0.608,
                                G_TN=1.015,
                                G_LT=1.0,
                                NU_LT=0.44,
                                E_T=1.793,),);
MAT2=DEFI_MATERIAU(ELAS_ORTH=_F(E_L=0.34156,
                                G_LN=0.0608,
                                G_TN=0.1015,
                                G_LT=0.1,
                                NU_LT=0.44,
                                E_T=0.1793,),);


MULTI=DEFI_COQU_MULT(COUCHE=(_F(MATER=MAT1,
                                ORIENTATION=0.0,
                                EPAIS=1.E-2,),
                             _F(MATER=MAT2,
                                ORIENTATION=0.0,
                                EPAIS=0.08,),
                             _F(MATER=MAT1,
                                ORIENTATION=0.0,
                                EPAIS=1.E-2,),),);


CHAM_MAT=AFFE_MATERIAU(AFFE=_F(MATER=MULTI,
                               TOUT='OUI',),
                       MAILLAGE=MA,);

CHA=AFFE_CHAR_MECA(MODELE=MO,
                   FORCE_COQUE=_F(PRES=-1.0,
                                  TOUT='OUI',),
                   LIAISON_OBLIQUE=(_F(ANGL_NAUT=(20.0,30.0,0.0),
                                       GROUP_NO='AB',
                                       DZ=0.0,),
                                    _F(ANGL_NAUT=(20.0,30.0,0.0),
                                       GROUP_NO='AB',
                                       DRY=0.0,),
                                    _F(ANGL_NAUT=(20.0,30.0,0.0),
                                       GROUP_NO='BC',
                                       DX=0.0,),
                                    _F(ANGL_NAUT=(20.0,30.0,0.0),
                                       GROUP_NO='BC',
                                       DRY=0.0,),
                                    _F(ANGL_NAUT=(20.0,30.0,0.0),
                                       GROUP_NO='CD',
                                       DY=0.0,),
                                    _F(ANGL_NAUT=(20.0,30.0,0.0),
                                       GROUP_NO='CD',
                                       DRX=0.0,),
                                    _F(ANGL_NAUT=(20.0,30.0,0.0),
                                       GROUP_NO='DA',
                                       DZ=0.0,),
                                    _F(ANGL_NAUT=(20.0,30.0,0.0),
                                       GROUP_NO='DA',
                                       DRX=0.0,),),);
RESU=MECA_STATIQUE(CHAM_MATER=CHAM_MAT,
                   MODELE=MO,
                   CARA_ELEM=CAR_ELE,
                   EXCIT=_F(CHARGE=CHA,),);
DEPL=CREA_CHAMP(NOM_CHAM='DEPL',
                TYPE_CHAM='NOEU_DEPL_R',
                OPERATION='EXTR',
                NUME_ORDRE=1,
                RESULTAT=RESU,);
SIG_C1_S=CALC_CHAM_ELEM(DEPL=DEPL,
                        NIVE_COUCHE='SUP',
                        MODELE=MO,
                        NUME_COUCHE=1,
                        CHAM_MATER=CHAM_MAT,
                        CARA_ELEM=CAR_ELE,
                        OPTION='SIGM_ELNO_DEPL',);
SIG_C1_I=CALC_CHAM_ELEM(DEPL=DEPL,
                        NIVE_COUCHE='INF',
                        MODELE=MO,
                        NUME_COUCHE=1,
                        CHAM_MATER=CHAM_MAT,
                        CARA_ELEM=CAR_ELE,
                        OPTION='SIGM_ELNO_DEPL',);
SIG_C2_S=CALC_CHAM_ELEM(DEPL=DEPL,
                        NIVE_COUCHE='SUP',
                        MODELE=MO,
                        NUME_COUCHE=2,
                        CHAM_MATER=CHAM_MAT,
                        CARA_ELEM=CAR_ELE,
                        OPTION='SIGM_ELNO_DEPL',);
SIG_C2_M=CALC_CHAM_ELEM(DEPL=DEPL,
                        NIVE_COUCHE='MOY',
                        MODELE=MO,
                        NUME_COUCHE=2,
                        CHAM_MATER=CHAM_MAT,
                        CARA_ELEM=CAR_ELE,
                        OPTION='SIGM_ELNO_DEPL',);
SIG_C2_I=CALC_CHAM_ELEM(DEPL=DEPL,
                        NIVE_COUCHE='INF',
                        MODELE=MO,
                        NUME_COUCHE=2,
                        CHAM_MATER=CHAM_MAT,
                        CARA_ELEM=CAR_ELE,
                        OPTION='SIGM_ELNO_DEPL',);
SIG_C3_S=CALC_CHAM_ELEM(DEPL=DEPL,
                        NIVE_COUCHE='SUP',
                        MODELE=MO,
                        NUME_COUCHE=3,
                        CHAM_MATER=CHAM_MAT,
                        CARA_ELEM=CAR_ELE,
                        OPTION='SIGM_ELNO_DEPL',);
SIG_C3_I=CALC_CHAM_ELEM(DEPL=DEPL,
                        NIVE_COUCHE='INF',
                        MODELE=MO,
                        NUME_COUCHE=3,
                        CHAM_MATER=CHAM_MAT,
                        CARA_ELEM=CAR_ELE,
                        OPTION='SIGM_ELNO_DEPL',);

TEST_RESU(RESU=(_F(NOM_CHAM='DEPL',
                   RESULTAT=RESU,
                   PRECISION=3.E-3,
                   VALE=36.304,
                   GROUP_NO='C',
                   NOM_CMP='DZ',
                   NUME_ORDRE=1,),
                _F(NOM_CHAM='DEPL',
                   RESULTAT=RESU,
                   PRECISION=3.E-3,
                   VALE=7.1687,
                   GROUP_NO='C',
                   NOM_CMP='DY',
                   NUME_ORDRE=1,),
                _F(NOM_CHAM='DEPL',
                   RESULTAT=RESU,
                   PRECISION=3.E-3,
                   VALE=19.696,
                   GROUP_NO='C',
                   NOM_CMP='DX',
                   NUME_ORDRE=1,),),
          CHAM_ELEM=(_F(CHAM_GD=SIG_C3_I,
                        MAILLE='M72',
                        VALE=47.1,
                        PRECISION=0.02,
                        GROUP_NO='C',
                        NOM_CMP='SIXX',),
                     _F(CHAM_GD=SIG_C3_S,
                        MAILLE='M72',
                        VALE=58.8,
                        PRECISION=0.02,
                        GROUP_NO='C',
                        NOM_CMP='SIXX',),
                     _F(CHAM_GD=SIG_C2_I,
                        MAILLE='M72',
                        VALE=-4.71,
                        PRECISION=0.02,
                        GROUP_NO='C',
                        NOM_CMP='SIXX',),
                     _F(CHAM_GD=SIG_C2_S,
                        MAILLE='M72',
                        VALE=4.71,
                        PRECISION=0.02,
                        GROUP_NO='C',
                        NOM_CMP='SIXX',),
                     _F(CHAM_GD=SIG_C1_I,
                        MAILLE='M72',
                        VALE=-58.8,
                        PRECISION=0.02,
                        GROUP_NO='C',
                        NOM_CMP='SIXX',),
                     _F(CHAM_GD=SIG_C1_S,
                        MAILLE='M72',
                        VALE=-47.1,
                        PRECISION=0.02,
                        GROUP_NO='C',
                        NOM_CMP='SIXX',),),);
FIN();
