
# MODIF  DATE 16/05/2002   AUTEUR DURAND C.DURAND 
# RESPONSABLE JMBHH01 J.M.PROIX
# TITRE PLAQUE STRATIFIEE EN FLEXION - DSQ - B/A = 1
#            CONFIGURATION MANAGEMENT OF EDF VERSION
# ======================================================================
# COPYRIGHT (C) 1991 - 2001  EDF R&D                  WWW.CODE-ASTER.ORG
# THIS PROGRAM IS FREE SOFTWARE; YOU CAN REDISTRIBUTE IT AND/OR MODIFY
# IT UNDER THE TERMS OF THE GNU GENERAL PUBLIC LICENSE AS PUBLISHED BY
# THE FREE SOFTWARE FOUNDATION; EITHER VERSION 2 OF THE LICENSE, OR   
# (AT YOUR OPTION) ANY LATER VERSION.                                 
#
# THIS PROGRAM IS DISTRIBUTED IN THE HOPE THAT IT WILL BE USEFUL, BUT 
# WITHOUT ANY WARRANTY; WITHOUT EVEN THE IMPLIED WARRANTY OF          
# MERCHANTABILITY OR FITNESS FOR A PARTICULAR PURPOSE. SEE THE GNU    
# GENERAL PUBLIC LICENSE FOR MORE DETAILS.                            
#
# YOU SHOULD HAVE RECEIVED A COPY OF THE GNU GENERAL PUBLIC LICENSE   
# ALONG WITH THIS PROGRAM; IF NOT, WRITE TO EDF R&D CODE_ASTER,       
#    1 AVENUE DU GENERAL DE GAULLE, 92141 CLAMART CEDEX, FRANCE.      
# ======================================================================
# SSLS111B             
# PLAQUE DE STRATIFIE RECTANGULAIRE EXCENTREE 
# CALCUL 1 : 1 BICOUCHE , CE CALCUL SERT DE REFERENCE 
# CALCUL 2 : 2 MONOCOUCHES EXCENTRES 
# LE BICOUCHE PRESENTE UNE SYMETRIE MATERIELLE PAR RAPPORT AU
# PLAN MOYEN
# MODELISATION DSQ
#             67 NOEUDS  50 MAILLES QUAD4
#----------------------------------------------------------------------
#POINTS:  A4                          A3
#           -------------------------
#           -                       -
#           -                       -
#           -                       -
#           -                       -
#           -------------------------
#         A1                          A2
#
# ______________________________________________________________________
#
#
#


DEBUT(CODE=_F(NOM='SSLS111B',NIV_PUB_WEB='INTERNET'),);
#
#
#


PRE_GIBI();

MA1=LIRE_MAILLAGE(VERI_MAIL=_F(VERIF='NON'),);

MA1=DEFI_GROUP(reuse =MA1,
               MAILLAGE=MA1,
               CREA_GROUP_MA=_F(NOM='TOUT',
                                TOUT='OUI',),);

MA=CREA_MAILLAGE(MAILLAGE=MA1,
                 CREA_GROUP_MA=_F(NOM='PLAQ2',
                                  GROUP_MA='PLAQ1',
                                  PREF_MAILLE='MAIL',),);

MA=DEFI_GROUP(reuse =MA,
              MAILLAGE=MA,
              CREA_GROUP_NO=(_F(GROUP_MA='PLAQ1',
                                NOM='PLAQ1',),
                             _F(GROUP_MA='PLAQ2',
                                NOM='PLAQ2',),),);
# 2 PLAQUES EXCENTREES
#
#
#
#
#


MO=AFFE_MODELE(MAILLAGE=MA,
               AFFE=_F(TOUT='OUI',
                       PHENOMENE='MECANIQUE',
                       MODELISATION='DST',),);
# UNE PLAQUE BICOUCHE
#
#
#
#
#


MO1=AFFE_MODELE(MAILLAGE=MA,
                AFFE=_F(GROUP_MA='PLAQ1',
                        PHENOMENE='MECANIQUE',
                        MODELISATION='DST',),);

EP=AFFE_CARA_ELEM(MODELE=MO,
                  COQUE=(_F(GROUP_MA='TOUT',
                            EPAIS=0.20000000000000001,
                            INER_ROTA='OUI',),
                         _F(GROUP_MA='PLAQ1',
                            EPAIS=0.20000000000000001,
                            ANGL_REP=(0.0,0.0),
                            EXCENTREMENT=0.10000000000000001,
                            INER_ROTA='OUI',),
                         _F(GROUP_MA='PLAQ2',
                            EPAIS=0.20000000000000001,
                            ANGL_REP=(0.0,0.0),
                            EXCENTREMENT=-0.10000000000000001,
                            INER_ROTA='OUI',),),);

EP1=AFFE_CARA_ELEM(MODELE=MO1,
                   COQUE=_F(GROUP_MA='TOUT',
                            EPAIS=0.40000000000000002,
                            ANGL_REP=(0.0,0.0),
                            INER_ROTA='OUI',),);

MATA=DEFI_MATERIAU(ELAS_ORTH=_F(E_L=2.E10,
                                E_T=2.E10,
                                NU_LT=0.29999999999999999,
                                G_LT=2.E9,
                                RHO=1000.0,),);

MATB=DEFI_MATERIAU(ELAS_ORTH=_F(E_L=1.5000000000E10,
                                E_T=1.5000000000E10,
                                NU_LT=0.29999999999999999,
                                G_LT=1.500000000E9,
                                RHO=1000.0,),);

MU1=DEFI_COQU_MULT(COUCHE=(_F(EPAIS=0.20000000000000001,
                              MATER=MATB,
                              ORIENTATION=0.0,),
                           _F(EPAIS=0.20000000000000001,
                              MATER=MATA,
                              ORIENTATION=0.0,),),);

MUA=DEFI_COQU_MULT(COUCHE=_F(EPAIS=0.20000000000000001,
                             MATER=MATA,
                             ORIENTATION=0.0,),);

MUB=DEFI_COQU_MULT(COUCHE=_F(EPAIS=0.20000000000000001,
                             MATER=MATB,
                             ORIENTATION=0.0,),);

CHMAT=AFFE_MATERIAU(MAILLAGE=MA,
                    AFFE=(_F(GROUP_MA='PLAQ1',
                             MATER=MUA,),
                          _F(GROUP_MA='PLAQ2',
                             MATER=MUB,),),);

CHMUL1=AFFE_MATERIAU(MAILLAGE=MA,
                     AFFE=_F(TOUT='OUI',
                             MATER=MU1,),);

CHME=AFFE_CHAR_MECA(MODELE=MO,
                    DDL_IMPO=(_F(GROUP_NO='A1',
                                 DX=0.0,
                                 DY=0.0,
                                 DZ=0.0,
                                 DRX=0.0,
                                 DRY=0.0,
                                 DRZ=0.0,),
                              _F(GROUP_NO='A2',
                                 DX=0.0,
                                 DY=0.0,),),
                    FORCE_NODALE=_F(GROUP_NO='A3',
                                    FZ=-1000.0,),
                    FORCE_COQUE=_F(MAILLE=('M1','M2','M3'),
                                   FX=200.0,
                                   FY=-500.0,
                                   FZ=-500.0,
                                   PLAN='SUP',),);

CHME1=AFFE_CHAR_MECA(MODELE=MO1,
                     DDL_IMPO=(_F(GROUP_NO='A1',
                                  DX=0.0,
                                  DY=0.0,
                                  DZ=0.0,
                                  DRX=0.0,
                                  DRY=0.0,
                                  DRZ=0.0,),
                               _F(GROUP_NO='A2',
                                  DX=0.0,
                                  DY=0.0,),),
                     FORCE_NODALE=_F(GROUP_NO='A3',
                                     FZ=-1000.0,),
                     FORCE_COQUE=_F(MAILLE=('M1','M2','M3'),
                                    FX=200.0,
                                    FY=-500.0,
                                    FZ=-500.0,
                                    MX=100.0,
                                    MY=40.0,
                                    PLAN='MAIL',),);
# ______________________________________________________________________
#
#                         2 PLAQUES EXCENTREES
# ______________________________________________________________________
#
#


MEL=CALC_MATR_ELEM(OPTION='RIGI_MECA',
                   MODELE=MO,
                   CHAM_MATER=CHMAT,
                   CARA_ELEM=EP,
                   CHARGE=CHME,);

MASEL=CALC_MATR_ELEM(OPTION='MASS_MECA',
                     MODELE=MO,
                     CHAM_MATER=CHMAT,
                     CARA_ELEM=EP,
                     CHARGE=CHME,);

VEL=CALC_VECT_ELEM(OPTION='CHAR_MECA',
                   CHARGE=CHME,
                   CHAM_MATER=CHMAT,
                   CARA_ELEM=EP,);

NU=NUME_DDL(MATR_RIGI=MEL,);

MATASS=ASSE_MATRICE(MATR_ELEM=MEL,
                    NUME_DDL=NU,);

MATASM=ASSE_MATRICE(MATR_ELEM=MASEL,
                    NUME_DDL=NU,);

VECASS=ASSE_VECTEUR(VECT_ELEM=VEL,
                    NUME_DDL=NU,);

MODES=MODE_ITER_SIMULT(MATR_A=MATASS,
                       MATR_B=MATASM,
                       CALC_FREQ=_F(OPTION='PLUS_PETITE',
                                    NMAX_FREQ=4,),);

MESTAT=MECA_STATIQUE(MODELE=MO,
                     CHAM_MATER=CHMAT,
                     CARA_ELEM=EP,
                     EXCIT=_F(CHARGE=CHME,),);

EFSUP=CALC_ELEM(MODELE=MO,
                CHAM_MATER=CHMAT,
                CARA_ELEM=EP,
                GROUP_MA='PLAQ1',
                OPTION='EFGE_ELNO_DEPL',
                RESULTAT=MESTAT,
                PLAN='MAIL',);

EFINF=CALC_ELEM(MODELE=MO,
                CHAM_MATER=CHMAT,
                CARA_ELEM=EP,
                GROUP_MA='PLAQ2',
                OPTION='EFGE_ELNO_DEPL',
                RESULTAT=MESTAT,
                PLAN='MAIL',);

EFSUP=CALC_NO(reuse =EFSUP,
              RESULTAT=EFSUP,
              OPTION='EFGE_NOEU_DEPL',
              CHAM_MATER=CHMAT,
              CARA_ELEM=EP,
              GROUP_MA='PLAQ1',);

EFINF=CALC_NO(reuse =EFINF,
              RESULTAT=EFINF,
              OPTION='EFGE_NOEU_DEPL',
              CHAM_MATER=CHMAT,
              CARA_ELEM=EP,
              GROUP_MA='PLAQ2',);

DEP=CREA_CHAMP(TYPE_CHAM='NOEU_DEPL_R',
               OPERATION='EXTR',
               RESULTAT=MESTAT,
               NOM_CHAM='DEPL',);

EFNSUP=CREA_CHAMP(TYPE_CHAM='NOEU_SIEF_R',
                  OPERATION='EXTR',
                  RESULTAT=EFSUP,
                  NOM_CHAM='EFGE_NOEU_DEPL',);

EFNINF=CREA_CHAMP(TYPE_CHAM='NOEU_SIEF_R',
                  OPERATION='EXTR',
                  RESULTAT=EFINF,
                  NOM_CHAM='EFGE_NOEU_DEPL',);

EFF=CREA_CHAMP(TYPE_CHAM='NOEU_SIEF_R',
               OPERATION='ASSE',
               MAILLAGE=MA,
               ASSE=(_F(TOUT='OUI',
                        CHAM_GD=EFNINF,
                        CUMUL='OUI',
                        COEF_R=1.0,),
                     _F(TOUT='OUI',
                        CHAM_GD=EFNSUP,
                        CUMUL='OUI',
                        COEF_R=1.0,),),);
#  PLAQUE BICOUCHE
#
#
#
#
#


MEL1=CALC_MATR_ELEM(OPTION='RIGI_MECA',
                    MODELE=MO1,
                    CHAM_MATER=CHMUL1,
                    CARA_ELEM=EP1,
                    CHARGE=CHME1,);

MASEL1=CALC_MATR_ELEM(OPTION='MASS_MECA',
                      MODELE=MO1,
                      CHAM_MATER=CHMUL1,
                      CARA_ELEM=EP1,
                      CHARGE=CHME1,);

VEL1=CALC_VECT_ELEM(OPTION='CHAR_MECA',
                    CHARGE=CHME1,
                    CHAM_MATER=CHMUL1,
                    CARA_ELEM=EP1,);

NU1=NUME_DDL(MATR_RIGI=MEL1,);

MATASS1=ASSE_MATRICE(MATR_ELEM=MEL1,
                     NUME_DDL=NU1,);

MATASM1=ASSE_MATRICE(MATR_ELEM=MASEL1,
                     NUME_DDL=NU1,);

VECASS1=ASSE_VECTEUR(VECT_ELEM=VEL1,
                     NUME_DDL=NU1,);

MODE1=MODE_ITER_SIMULT(MATR_A=MATASS1,
                       MATR_B=MATASM1,
                       CALC_FREQ=_F(OPTION='PLUS_PETITE',
                                    NMAX_FREQ=4,),);

MESTAT1=MECA_STATIQUE(MODELE=MO1,
                      CHAM_MATER=CHMUL1,
                      CARA_ELEM=EP1,
                      EXCIT=_F(CHARGE=CHME1,),
                      OPTION='EFGE_ELNO_DEPL',);

MESTAT1=CALC_NO(reuse =MESTAT1,
                RESULTAT=MESTAT1,
                OPTION='EFGE_NOEU_DEPL',
                CHAM_MATER=CHMUL1,
                CARA_ELEM=EP1,);

DEP1=CREA_CHAMP(TYPE_CHAM='NOEU_DEPL_R',
                OPERATION='EXTR',
                RESULTAT=MESTAT1,
                NOM_CHAM='DEPL',);

EFF1=CREA_CHAMP(TYPE_CHAM='NOEU_SIEF_R',
                OPERATION='EXTR',
                RESULTAT=MESTAT1,
                NOM_CHAM='EFGE_NOEU_DEPL',);

TEST_RESU(CHAM_NO=(_F(CHAM_GD=DEP1,
                      GROUP_NO='A3',
                      NOM_CMP='DX',
                      VALE=-7.9894061235644005E-06,
                      REFERENCE='NON_REGRESSION',
                      VERSION='6.2.13',),
                   _F(CHAM_GD=DEP1,
                      GROUP_NO='A3',
                      NOM_CMP='DY',
                      VALE=-1.1738849607775999E-06,
                      REFERENCE='NON_REGRESSION',
                      VERSION='6.2.13',),
                   _F(CHAM_GD=DEP1,
                      GROUP_NO='A3',
                      NOM_CMP='DZ',
                      VALE=-6.3557308056385996E-3,
                      REFERENCE='NON_REGRESSION',
                      VERSION='6.2.13',),
                   _F(CHAM_GD=DEP1,
                      GROUP_NO='A3',
                      NOM_CMP='DRX',
                      VALE=-4.4262159944774999E-4,
                      REFERENCE='NON_REGRESSION',
                      VERSION='6.2.13',),
                   _F(CHAM_GD=DEP1,
                      GROUP_NO='A3',
                      NOM_CMP='DRY',
                      VALE=5.7270255582418E-4,
                      REFERENCE='NON_REGRESSION',
                      VERSION='6.2.13',),
                   _F(CHAM_GD=DEP1,
                      NOEUD='N10',
                      NOM_CMP='DX',
                      VALE=-4.6281334523221999E-06,
                      REFERENCE='NON_REGRESSION',
                      VERSION='6.2.13',),
                   _F(CHAM_GD=DEP1,
                      NOEUD='N10',
                      NOM_CMP='DY',
                      VALE=-1.8894536074436001E-06,
                      REFERENCE='NON_REGRESSION',
                      VERSION='6.2.13',),
                   _F(CHAM_GD=DEP1,
                      NOEUD='N10',
                      NOM_CMP='DZ',
                      VALE=-4.5210708573043996E-3,
                      REFERENCE='NON_REGRESSION',
                      VERSION='6.2.13',),
                   _F(CHAM_GD=DEP1,
                      NOEUD='N10',
                      NOM_CMP='DRX',
                      VALE=-4.1787415624771002E-4,
                      REFERENCE='NON_REGRESSION',
                      VERSION='6.2.13',),
                   _F(CHAM_GD=DEP1,
                      NOEUD='N10',
                      NOM_CMP='DRY',
                      VALE=5.1952742888098995E-4,
                      REFERENCE='NON_REGRESSION',
                      VERSION='6.2.13',),
                   _F(CHAM_GD=DEP,
                      GROUP_NO='A3',
                      NOM_CMP='DX',
                      VALE=-7.9894061235644005E-06,
                      PRECISION=4.0000000000000001E-3,
                      REFERENCE='AUTRE_ASTER',),
                   _F(CHAM_GD=DEP,
                      GROUP_NO='A3',
                      NOM_CMP='DY',
                      VALE=-1.1738849607775999E-06,
                      PRECISION=0.016,
                      REFERENCE='AUTRE_ASTER',),
                   _F(CHAM_GD=DEP,
                      GROUP_NO='A3',
                      NOM_CMP='DZ',
                      VALE=-6.3557308056385996E-3,
                      PRECISION=4.0000000000000001E-3,
                      REFERENCE='AUTRE_ASTER',),
                   _F(CHAM_GD=DEP,
                      GROUP_NO='A3',
                      NOM_CMP='DRX',
                      VALE=-4.4262159944774999E-4,
                      PRECISION=7.0000000000000001E-3,
                      REFERENCE='AUTRE_ASTER',),
                   _F(CHAM_GD=DEP,
                      GROUP_NO='A3',
                      NOM_CMP='DRY',
                      VALE=5.7270255582418E-4,
                      PRECISION=6.0000000000000001E-3,
                      REFERENCE='AUTRE_ASTER',),
                   _F(CHAM_GD=DEP,
                      NOEUD='N10',
                      NOM_CMP='DX',
                      VALE=-4.6281334523221999E-06,
                      PRECISION=5.0000000000000001E-3,
                      REFERENCE='AUTRE_ASTER',),
                   _F(CHAM_GD=DEP,
                      NOEUD='N10',
                      NOM_CMP='DY',
                      VALE=-1.8894536074436001E-06,
                      PRECISION=8.0000000000000002E-3,
                      REFERENCE='AUTRE_ASTER',),
                   _F(CHAM_GD=DEP,
                      NOEUD='N10',
                      NOM_CMP='DZ',
                      VALE=-4.5210708573043996E-3,
                      PRECISION=6.0000000000000001E-3,
                      REFERENCE='AUTRE_ASTER',),
                   _F(CHAM_GD=DEP,
                      NOEUD='N10',
                      NOM_CMP='DRX',
                      VALE=-4.1787415624771002E-4,
                      PRECISION=8.0000000000000002E-3,
                      REFERENCE='AUTRE_ASTER',),
                   _F(CHAM_GD=DEP,
                      NOEUD='N10',
                      NOM_CMP='DRY',
                      VALE=5.1952742888098995E-4,
                      PRECISION=7.0000000000000001E-3,
                      REFERENCE='AUTRE_ASTER',),
                   _F(CHAM_GD=EFF1,
                      GROUP_NO='A1',
                      NOM_CMP='NXX',
                      VALE=1.6295302554665001E4,
                      REFERENCE='NON_REGRESSION',
                      VERSION='6.2.13',),
                   _F(CHAM_GD=EFF1,
                      GROUP_NO='A1',
                      NOM_CMP='NYY',
                      VALE=-4500.3564594923,
                      REFERENCE='NON_REGRESSION',
                      VERSION='6.2.13',),
                   _F(CHAM_GD=EFF1,
                      GROUP_NO='A1',
                      NOM_CMP='NXY',
                      VALE=991.49585147872006,
                      REFERENCE='NON_REGRESSION',
                      VERSION='6.2.13',),
                   _F(CHAM_GD=EFF1,
                      GROUP_NO='A1',
                      NOM_CMP='MXX',
                      VALE=3.6364539889993997E4,
                      REFERENCE='NON_REGRESSION',
                      VERSION='6.2.13',),
                   _F(CHAM_GD=EFF1,
                      GROUP_NO='A1',
                      NOM_CMP='MYY',
                      VALE=1.5959977356873E4,
                      REFERENCE='NON_REGRESSION',
                      VERSION='6.2.13',),
                   _F(CHAM_GD=EFF1,
                      GROUP_NO='A1',
                      NOM_CMP='MXY',
                      VALE=6317.1646551920003,
                      REFERENCE='NON_REGRESSION',
                      VERSION='6.2.13',),
                   _F(CHAM_GD=EFF1,
                      GROUP_NO='A1',
                      NOM_CMP='QX',
                      VALE=-2.0735211746853001E4,
                      REFERENCE='NON_REGRESSION',
                      VERSION='6.2.13',),
                   _F(CHAM_GD=EFF1,
                      GROUP_NO='A1',
                      NOM_CMP='QY',
                      VALE=-1.0474333313642001E4,
                      REFERENCE='NON_REGRESSION',
                      VERSION='6.2.13',),
                   _F(CHAM_GD=EFF,
                      GROUP_NO='A1',
                      NOM_CMP='NXX',
                      VALE=1.6295302554665001E4,
                      PRECISION=0.059999999999999998,
                      REFERENCE='AUTRE_ASTER',),
                   _F(CHAM_GD=EFF,
                      GROUP_NO='A1',
                      NOM_CMP='NYY',
                      VALE=-4500.3564594923,
                      PRECISION=0.14000000000000001,
                      REFERENCE='AUTRE_ASTER',),
                   _F(CHAM_GD=EFF,
                      GROUP_NO='A1',
                      NOM_CMP='NXY',
                      VALE=991.49585147872006,
                      PRECISION=0.070000000000000007,
                      REFERENCE='AUTRE_ASTER',),
                   _F(CHAM_GD=EFF,
                      GROUP_NO='A1',
                      NOM_CMP='MXX',
                      VALE=3.6364539889993997E4,
                      PRECISION=0.029999999999999999,
                      REFERENCE='AUTRE_ASTER',),
                   _F(CHAM_GD=EFF,
                      GROUP_NO='A1',
                      NOM_CMP='MYY',
                      VALE=1.5959977356873E4,
                      PRECISION=0.029999999999999999,
                      REFERENCE='AUTRE_ASTER',),
                   _F(CHAM_GD=EFF,
                      GROUP_NO='A1',
                      NOM_CMP='MXY',
                      VALE=6317.1646551920003,
                      PRECISION=2.E-3,
                      REFERENCE='AUTRE_ASTER',),
                   _F(CHAM_GD=EFF,
                      GROUP_NO='A1',
                      NOM_CMP='QX',
                      VALE=-2.0735211746853001E4,
                      PRECISION=0.089999999999999997,
                      REFERENCE='AUTRE_ASTER',),
                   _F(CHAM_GD=EFF,
                      GROUP_NO='A1',
                      NOM_CMP='QY',
                      VALE=-1.0474333313642001E4,
                      PRECISION=0.040000000000000001,
                      REFERENCE='AUTRE_ASTER',),),
          RESU=(_F(RESULTAT=MODE1,
                   NUME_ORDRE=1,
                   PARA='FREQ',
                   VALE=0.95021457309245005,
                   CRITERE='RELATIF',
                   REFERENCE='NON_REGRESSION',
                   VERSION='6.2.13',),
                _F(RESULTAT=MODE1,
                   NUME_ORDRE=2,
                   PARA='FREQ',
                   VALE=3.6180510862250999,
                   CRITERE='RELATIF',
                   REFERENCE='NON_REGRESSION',
                   VERSION='6.2.13',),
                _F(RESULTAT=MODE1,
                   NUME_ORDRE=3,
                   PARA='FREQ',
                   VALE=8.1622815417723995,
                   CRITERE='RELATIF',
                   REFERENCE='NON_REGRESSION',
                   VERSION='6.2.13',),
                _F(RESULTAT=MODE1,
                   NUME_ORDRE=4,
                   PARA='FREQ',
                   VALE=16.544009451076999,
                   CRITERE='RELATIF',
                   REFERENCE='NON_REGRESSION',
                   VERSION='6.2.13',),
                _F(RESULTAT=MODES,
                   NUME_ORDRE=1,
                   PARA='FREQ',
                   VALE=0.95021457309245005,
                   CRITERE='RELATIF',
                   PRECISION=3.0000000000000001E-3,
                   REFERENCE='AUTRE_ASTER',),
                _F(RESULTAT=MODES,
                   NUME_ORDRE=2,
                   PARA='FREQ',
                   VALE=3.6180510862250999,
                   CRITERE='RELATIF',
                   PRECISION=1.E-2,
                   REFERENCE='AUTRE_ASTER',),
                _F(RESULTAT=MODES,
                   NUME_ORDRE=3,
                   PARA='FREQ',
                   VALE=8.1622815417723995,
                   CRITERE='RELATIF',
                   PRECISION=4.0000000000000001E-3,
                   REFERENCE='AUTRE_ASTER',),
                _F(RESULTAT=MODES,
                   NUME_ORDRE=4,
                   PARA='FREQ',
                   VALE=16.544009451076999,
                   CRITERE='RELATIF',
                   PRECISION=7.0000000000000001E-3,
                   REFERENCE='AUTRE_ASTER',),),);
#
#
#


FIN();
#
#
#
