# TITRE  :  MODELISATION D UNE COQUE DOUBLEMENT SINUSOIDALE
# ======================================================================
# COPYRIGHT (C) 1991 - 2012  EDF R&D                  WWW.CODE-ASTER.ORG
# THIS PROGRAM IS FREE SOFTWARE; YOU CAN REDISTRIBUTE IT AND/OR MODIFY
# IT UNDER THE TERMS OF THE GNU GENERAL PUBLIC LICENSE AS PUBLISHED BY
# THE FREE SOFTWARE FOUNDATION; EITHER VERSION 2 OF THE LICENSE, OR
# (AT YOUR OPTION) ANY LATER VERSION.
#
# THIS PROGRAM IS DISTRIBUTED IN THE HOPE THAT IT WILL BE USEFUL, BUT
# WITHOUT ANY WARRANTY; WITHOUT EVEN THE IMPLIED WARRANTY OF
# MERCHANTABILITY OR FITNESS FOR A PARTICULAR PURPOSE. SEE THE GNU
# GENERAL PUBLIC LICENSE FOR MORE DETAILS.
#
# YOU SHOULD HAVE RECEIVED A COPY OF THE GNU GENERAL PUBLIC LICENSE
# ALONG WITH THIS PROGRAM; IF NOT, WRITE TO EDF R&D CODE_ASTER,
#    1 AVENUE DU GENERAL DE GAULLE, 92141 CLAMART CEDEX, FRANCE.
# ======================================================================
# CALCUL QUASI-STATIQUE D'UNE COQUE SOUMIS A DIFFERENTS TYPES DE CHARGES
# FORCE LINEIQUE SELON X
# FORCE LINEIQUE SELON Y
# FORCE LINEIQUE SELON Z
# MODELISATION 3D

DEBUT(CODE=_F(NOM='SSLS129A',NIV_PUB_WEB='INTERNET'),DEBUG=_F(SDVERI='OUI'))

MAIL=LIRE_MAILLAGE(FORMAT='MED',);


MAIL=DEFI_GROUP(reuse =MAIL,
                MAILLAGE=MAIL,
                CREA_GROUP_NO=(_F(GROUP_MA='DROITE',),
                               _F(GROUP_MA='GAUCHE',),),);

MODELE=AFFE_MODELE(MAILLAGE=MAIL,
                   AFFE=_F(GROUP_MA=('VOL','GAUCHE','DROITE',),
                           PHENOMENE='MECANIQUE',
                           MODELISATION='3D',),);
# DEFINITION DU MATERIAU

ACIER=DEFI_MATERIAU(ELAS=_F(E=204000.0,
                            NU=0.3,),);

CHMAT=AFFE_MATERIAU(MAILLAGE=MAIL,
                    AFFE=_F(GROUP_MA='VOL',
                            MATER=ACIER,),);
#
# DEFINITION CONDITION LIMITE

CC=AFFE_CHAR_MECA(MODELE=MODELE,
                  DDL_IMPO=_F(GROUP_MA='GAUCHE',
                              DX=0.0,
                              DY=0.0,
                              DZ=0.0,
                              ),
                );

# DEFINITION DES CHARGES

# FORCE SURFACIQUE EN X SUR LE COTE "DROIT"

FORCEX=AFFE_CHAR_MECA(MODELE=MODELE,
                      FORCE_FACE=_F(GROUP_MA='DROITE',
                                      FX=0.5,),);
# FORCE SURFACIQUE EN Y SUR LE COTE "DROIT"

FORCEY=AFFE_CHAR_MECA(MODELE=MODELE,
                      FORCE_FACE=_F(GROUP_MA='DROITE',
                                      FY=0.5,),);

# FORCE SURFACIQUE EN Z SUR LE COTE "DROIT"

FORCEZ=AFFE_CHAR_MECA(MODELE=MODELE,
                      FORCE_FACE=_F(GROUP_MA='DROITE',
                                      FZ=-0.5,),);

# RESOLUTION PAR STAT_NON_LINE

LIST=DEFI_LIST_REEL(DEBUT=0.0,
                    INTERVALLE=_F(JUSQU_A=1.0,
                                  NOMBRE=1,),);

SNL1=STAT_NON_LINE(MODELE=MODELE,
                   CHAM_MATER=CHMAT,
                   EXCIT=(_F(CHARGE=CC,),
                          _F(CHARGE=FORCEX,),),
                   COMP_INCR=_F(RELATION='ELAS',),
                   INCREMENT=_F(LIST_INST=LIST,),
                   CONVERGENCE=_F(RESI_GLOB_RELA=1e-08,),);

SNL1=CALC_CHAMP(reuse =SNL1,
             RESULTAT=SNL1,
              CONTRAINTE=('SIGM_ELNO'),
             );

SNL1=CALC_CHAMP(reuse =SNL1,
             RESULTAT=SNL1,
             FORCE='FORC_NODA',CONTRAINTE='SIGM_NOEU',
             );
SNL2=STAT_NON_LINE(MODELE=MODELE,
                   CHAM_MATER=CHMAT,
                   EXCIT=(_F(CHARGE=CC,),
                          _F(CHARGE=FORCEY,),),
                   COMP_INCR=_F(RELATION='ELAS',),
                   INCREMENT=_F(LIST_INST=LIST,),
                   CONVERGENCE=_F(RESI_GLOB_RELA=1e-08,),);

SNL2=CALC_CHAMP(reuse =SNL2,
             RESULTAT=SNL2,
              CONTRAINTE=('SIGM_ELNO'),
             );

SNL2=CALC_CHAMP(reuse =SNL2,
             RESULTAT=SNL2,
             FORCE='FORC_NODA',CONTRAINTE='SIGM_NOEU',
             );


SNL3=STAT_NON_LINE(MODELE=MODELE,
                   CHAM_MATER=CHMAT,
                   EXCIT=(_F(CHARGE=CC,),
                          _F(CHARGE=FORCEZ,),),
                   COMP_INCR=_F(RELATION='ELAS',),
                   INCREMENT=_F(LIST_INST=LIST,),
                   CONVERGENCE=_F(RESI_GLOB_RELA=1e-08,),);

SNL3=CALC_CHAMP(reuse =SNL3,
             RESULTAT=SNL3,
              CONTRAINTE=('SIGM_ELNO'),
             );

SNL3=CALC_CHAMP(reuse =SNL3,
             RESULTAT=SNL3,
             FORCE='FORC_NODA',CONTRAINTE='SIGM_NOEU',
             );

PSNL1=POST_RELEVE_T(ACTION=(_F(INTITULE='PSNL1_GAUCHE',
                              GROUP_NO='GAUCHE',
                              RESULTAT=SNL1,
                              NOM_CHAM='FORC_NODA',
                              RESULTANTE=('DX','DY','DZ',),
                              MOMENT=('DRX','DRY','DRZ',),
                              POINT=(0.0,0.0,0.0,),
                              OPERATION='EXTRACTION',),
                           _F(INTITULE='PSNL1_DROITE',
                              GROUP_NO='DROITE',
                              RESULTAT=SNL1,
                              NOM_CHAM='FORC_NODA',
                              RESULTANTE=('DX','DY','DZ',),
                              MOMENT=('DRX','DRY','DRZ',),
                              POINT=(0.0,0.0,0.0,),
                              OPERATION='EXTRACTION',),
                              ),);

PSNL2=POST_RELEVE_T(ACTION=(_F(INTITULE='PSNL2_GAUCHE',
                              GROUP_NO='GAUCHE',
                              RESULTAT=SNL2,
                              NOM_CHAM='FORC_NODA',
                              RESULTANTE=('DX','DY','DZ',),
                              MOMENT=('DRX','DRY','DRZ',),
                              POINT=(0.0,0.0,0.0,),
                              OPERATION='EXTRACTION',),
                           _F(INTITULE='PSNL2_DROITE',
                              GROUP_NO='DROITE',
                              RESULTAT=SNL2,
                              NOM_CHAM='FORC_NODA',
                              RESULTANTE=('DX','DY','DZ',),
                              MOMENT=('DRX','DRY','DRZ',),
                              POINT=(0.0,0.0,0.0,),
                              OPERATION='EXTRACTION',),
                              ),);

PSNL3=POST_RELEVE_T(ACTION=(_F(INTITULE='PSNL3_GAUCHE',
                              GROUP_NO='GAUCHE',
                              RESULTAT=SNL3,
                              NOM_CHAM='FORC_NODA',
                              RESULTANTE=('DX','DY','DZ',),
                              MOMENT=('DRX','DRY','DRZ',),
                              POINT=(0.0,0.0,0.0,),
                              OPERATION='EXTRACTION',),
                           _F(INTITULE='PSNL3_DROITE',
                              GROUP_NO='DROITE',
                              RESULTAT=SNL3,
                              NOM_CHAM='FORC_NODA',
                              RESULTANTE=('DX','DY','DZ',),
                              MOMENT=('DRX','DRY','DRZ',),
                              POINT=(0.0,0.0,0.0,),
                              OPERATION='EXTRACTION',),
                              ),);
# Filtrage etat inital

PSNL1=CALC_TABLE(reuse =PSNL1,
               TABLE=PSNL1,
               ACTION=(_F(
                          OPERATION = 'FILTRE',
                          NOM_PARA  = 'NUME_ORDRE',
                          CRIT_COMP = 'GT',
                          VALE    = 0,
                         ),),);
PSNL2=CALC_TABLE(reuse =PSNL2,
               TABLE=PSNL2,
               ACTION=(_F(
                          OPERATION = 'FILTRE',
                          NOM_PARA  = 'NUME_ORDRE',
                          CRIT_COMP = 'GT',
                          VALE    = 0,
                         ),),);
PSNL3=CALC_TABLE(reuse =PSNL3,
               TABLE=PSNL3,
               ACTION=(_F(
                          OPERATION = 'FILTRE',
                          NOM_PARA  = 'NUME_ORDRE',
                          CRIT_COMP = 'GT',
                          VALE    = 0,
                         ),),);

# TEST SUR LE RESULTAT STAT_NON_LINE 1

# DEPLACEMENT

TEST_RESU(RESU=_F(NUME_ORDRE=1,
                  GROUP_NO='B',
                  RESULTAT=SNL1,
                  NOM_CHAM='DEPL',
                  NOM_CMP='DX',
                  VALE_CALC=5.6766753846415E-3,
                  CRITERE='RELATIF',
                  ),
          )

TEST_RESU(RESU=_F(NUME_ORDRE=1,
                  GROUP_NO='C',
                  RESULTAT=SNL1,
                  NOM_CHAM='DEPL',
                  NOM_CMP='DX',
                  VALE_CALC=5.837493523202E-3,
                  CRITERE='RELATIF',
                  ),
          )

# FORCES NODALES

TEST_TABLE(REFERENCE='ANALYTIQUE',
           PRECISION=1.E-08,
           VALE_CALC=-2.00000000E+03,
           VALE_REFE=-2000.0,
           NOM_PARA='RESULT_X',
           TABLE=PSNL1,
           FILTRE=_F(NOM_PARA='INTITULE',
                     VALE_K='PSNL1_GAUCHE',),
           )

TEST_TABLE(REFERENCE='ANALYTIQUE',
           PRECISION=1.E-08,
           VALE_CALC= 2.00000000E+03,
           VALE_REFE=2000.0,
           NOM_PARA='RESULT_X',
           TABLE=PSNL1,
           FILTRE=_F(NOM_PARA='INTITULE',
                     VALE_K='PSNL1_DROITE',),
           )

TEST_TABLE(REFERENCE='ANALYTIQUE',
           PRECISION=1.E-08,
           VALE_CALC=-2.00000000E+04,
           VALE_REFE=-2.E4,
           NOM_PARA='MOMENT_Y',
           TABLE=PSNL1,
           FILTRE=_F(NOM_PARA='INTITULE',
                     VALE_K='PSNL1_GAUCHE',),
           )

TEST_TABLE(REFERENCE='ANALYTIQUE',
           PRECISION=1.E-08,
           VALE_CALC= 2.00000000E+05,
           VALE_REFE=2.E5,
           NOM_PARA='MOMENT_Z',
           TABLE=PSNL1,
           FILTRE=_F(NOM_PARA='INTITULE',
                     VALE_K='PSNL1_GAUCHE',),
           )

# CONTRAINTES

TEST_RESU(RESU=(_F(NUME_ORDRE=1,
                   GROUP_NO='A',
                   RESULTAT=SNL1,
                   NOM_CHAM='SIGM_NOEU',
                   NOM_CMP='SIXX',
                   VALE_CALC=1.0675386510217999,
                   CRITERE='RELATIF',
                   ),
                _F(NUME_ORDRE=1,
                   GROUP_NO='D',
                   RESULTAT=SNL1,
                   NOM_CHAM='SIGM_NOEU',
                   NOM_CMP='SIXX',
                   VALE_CALC=1.0302367579975,
                   CRITERE='RELATIF',
                   ),
                ),
          )

TEST_RESU(RESU=(_F(NUME_ORDRE=1,
                   GROUP_NO='F',
                   RESULTAT=SNL1,
                   NOM_CHAM='SIGM_NOEU',
                   NOM_CMP='SIXX',
                   VALE_CALC=1.4357777444958,
                   CRITERE='RELATIF',
                   ),
                _F(NUME_ORDRE=1,
                   GROUP_NO='I',
                   RESULTAT=SNL1,
                   NOM_CHAM='SIGM_NOEU',
                   NOM_CMP='SIXX',
                   VALE_CALC=1.4720487912836999,
                   CRITERE='RELATIF',
                   ),
                ),
          )

# TEST SUR LE RESULTAT STAT_NON_LINE 2

# DEPLACEMENT

TEST_RESU(RESU=_F(NUME_ORDRE=1,
                  GROUP_NO='B',
                  RESULTAT=SNL2,
                  NOM_CHAM='DEPL',
                  NOM_CMP='DY',
                  VALE_CALC=0.15476384606676,
                  CRITERE='RELATIF',
                  ),
          )

TEST_RESU(RESU=_F(NUME_ORDRE=1,
                  GROUP_NO='C',
                  RESULTAT=SNL2,
                  NOM_CHAM='DEPL',
                  NOM_CMP='DY',
                  VALE_CALC=0.15475095620497001,
                  CRITERE='RELATIF',
                  ),
          )

# FORCES NODALES

TEST_TABLE(REFERENCE='ANALYTIQUE',
           PRECISION=1.E-08,
           VALE_CALC=-2.00000000E+03,
           VALE_REFE=-2000.0,
           NOM_PARA='RESULT_Y',
           TABLE=PSNL2,
           FILTRE=_F(NOM_PARA='INTITULE',
                     VALE_K='PSNL2_GAUCHE',),
           )

TEST_TABLE(REFERENCE='ANALYTIQUE',
           PRECISION=1.E-08,
           VALE_CALC= 2.00000000E+03,
           VALE_REFE=2000.0,
           NOM_PARA='RESULT_Y',
           TABLE=PSNL2,
           FILTRE=_F(NOM_PARA='INTITULE',
                     VALE_K='PSNL2_DROITE',),
           )

TEST_TABLE(REFERENCE='ANALYTIQUE',
           PRECISION=1.E-08,
           VALE_CALC= 2.00000000E+04,
           VALE_REFE=2.E4,
           NOM_PARA='MOMENT_X',
           TABLE=PSNL2,
           FILTRE=_F(NOM_PARA='INTITULE',
                     VALE_K='PSNL2_GAUCHE',),
           )

TEST_TABLE(REFERENCE='ANALYTIQUE',
           PRECISION=1.E-08,
           VALE_CALC=-1.50000000E+06,
           VALE_REFE=-1.500000E6,
           NOM_PARA='MOMENT_Z',
           TABLE=PSNL2,
           FILTRE=_F(NOM_PARA='INTITULE',
                     VALE_K='PSNL2_GAUCHE',),
           )

# CONTRAINTES

TEST_RESU(RESU=(_F(NUME_ORDRE=1,
                   GROUP_NO='A',
                   RESULTAT=SNL2,
                   NOM_CHAM='SIGM_NOEU',
                   NOM_CMP='SIXX',
                   VALE_CALC=4.5554267598348996,
                   CRITERE='RELATIF',
                   ),
                _F(NUME_ORDRE=1,
                   GROUP_NO='D',
                   RESULTAT=SNL2,
                   NOM_CHAM='SIGM_NOEU',
                   NOM_CMP='SIXX',
                   VALE_CALC=-4.4390526676705004,
                   CRITERE='RELATIF',
                   ),
                ),
          )

TEST_RESU(RESU=(_F(NUME_ORDRE=1,
                   GROUP_NO='F',
                   RESULTAT=SNL2,
                   NOM_CHAM='SIGM_NOEU',
                   NOM_CMP='SIXX',
                   VALE_CALC=26.816239311543001,
                   CRITERE='RELATIF',
                   ),
                _F(NUME_ORDRE=1,
                   GROUP_NO='I',
                   RESULTAT=SNL2,
                   NOM_CHAM='SIGM_NOEU',
                   NOM_CMP='SIXX',
                   VALE_CALC=-26.948339465395001,
                   CRITERE='RELATIF',
                   ),
                ),
          )

# TEST SUR LE RESULTAT STAT_NON_LINE 3

# DEPLACEMENT

TEST_RESU(RESU=_F(NUME_ORDRE=1,
                  GROUP_NO='B',
                  RESULTAT=SNL3,
                  NOM_CHAM='DEPL',
                  NOM_CMP='DZ',
                  VALE_CALC=-6.2097302104193997,
                  CRITERE='RELATIF',
                  ),
          )

TEST_RESU(RESU=_F(NUME_ORDRE=1,
                  GROUP_NO='C',
                  RESULTAT=SNL3,
                  NOM_CHAM='DEPL',
                  NOM_CMP='DZ',
                  VALE_CALC=-6.2082328310698003,
                  CRITERE='RELATIF',
                  ),
          )

# FORCES NODALES

TEST_TABLE(REFERENCE='ANALYTIQUE',
           PRECISION=1.E-08,
           VALE_CALC= 2.00000000E+03,
           VALE_REFE=2000.0,
           NOM_PARA='RESULT_Z',
           TABLE=PSNL3,
           FILTRE=_F(NOM_PARA='INTITULE',
                     VALE_K='PSNL3_GAUCHE',),
           )

TEST_TABLE(REFERENCE='ANALYTIQUE',
           PRECISION=1.E-08,
           VALE_CALC=-2.00000000E+03,
           VALE_REFE=-2000.0,
           NOM_PARA='RESULT_Z',
           TABLE=PSNL3,
           FILTRE=_F(NOM_PARA='INTITULE',
                     VALE_K='PSNL3_DROITE',),
           )

TEST_TABLE(REFERENCE='ANALYTIQUE',
           PRECISION=1.E-08,
           VALE_CALC= 2.00000000E+05,
           VALE_REFE=2.E5,
           NOM_PARA='MOMENT_X',
           TABLE=PSNL3,
           FILTRE=_F(NOM_PARA='INTITULE',
                     VALE_K='PSNL3_GAUCHE',),
           )

TEST_TABLE(REFERENCE='ANALYTIQUE',
           PRECISION=1.E-08,
           VALE_CALC=-1.50000000E+06,
           VALE_REFE=-1.500000E6,
           NOM_PARA='MOMENT_Y',
           TABLE=PSNL3,
           FILTRE=_F(NOM_PARA='INTITULE',
                     VALE_K='PSNL3_GAUCHE',),
           )

# CONTRAINTES

TEST_RESU(RESU=(_F(NUME_ORDRE=1,
                   GROUP_NO='A',
                   RESULTAT=SNL3,
                   NOM_CHAM='SIGM_NOEU',
                   NOM_CMP='SIXX',
                   VALE_CALC=-132.29783467822,
                   CRITERE='RELATIF',
                   ),
                _F(NUME_ORDRE=1,
                   GROUP_NO='D',
                   REFERENCE='NON_DEFINI',
                   RESULTAT=SNL3,
                   NOM_CHAM='SIGM_NOEU',
                   NOM_CMP='SIXX',
                   VALE_CALC=-131.564854541,
                   VALE_REFE=-131.56485455673999,
                   CRITERE='RELATIF',
                   PRECISION=0.14000000000000001,
                   ),
                ),
          )

TEST_RESU(RESU=(_F(NUME_ORDRE=1,
                   GROUP_NO='F',
                   RESULTAT=SNL3,
                   NOM_CHAM='SIGM_NOEU',
                   NOM_CMP='SIXX',
                   VALE_CALC=37.040117732694,
                   CRITERE='RELATIF',
                   ),
                _F(NUME_ORDRE=1,
                   GROUP_NO='I',
                   REFERENCE='NON_DEFINI',
                   RESULTAT=SNL3,
                   NOM_CHAM='SIGM_NOEU',
                   NOM_CMP='SIXX',
                   VALE_CALC=36.192108359,
                   VALE_REFE=36.192108367464002,
                   CRITERE='RELATIF',
                   PRECISION=0.14000000000000001,
                   ),
                ),
          )

# RESOLUTION PAR MECA_STATIQUE

RESU1=MECA_STATIQUE(MODELE=MODELE,
                    CHAM_MATER=CHMAT,
                    EXCIT=(_F(CHARGE=CC,),
                           _F(CHARGE=FORCEX,),),);


RESU1=CALC_CHAMP(reuse =RESU1,
              RESULTAT=RESU1,
               CONTRAINTE=('SIGM_ELNO'),);


RESU1=CALC_CHAMP(reuse =RESU1,
              RESULTAT=RESU1,
              FORCE='FORC_NODA',CONTRAINTE='SIGM_NOEU',
              );

RESU2=MECA_STATIQUE(MODELE=MODELE,
                    CHAM_MATER=CHMAT,
                    EXCIT=(_F(CHARGE=CC,),
                           _F(CHARGE=FORCEY,),),);


RESU2=CALC_CHAMP(reuse =RESU2,
              RESULTAT=RESU2,
               CONTRAINTE=('SIGM_ELNO'),);

RESU2=CALC_CHAMP(reuse =RESU2,
              RESULTAT=RESU2,
              FORCE='FORC_NODA',CONTRAINTE='SIGM_NOEU'
              );


RESU3=MECA_STATIQUE(MODELE=MODELE,
                    CHAM_MATER=CHMAT,
                    EXCIT=(_F(CHARGE=CC,),
                           _F(CHARGE=FORCEZ,),),);


RESU3=CALC_CHAMP(reuse =RESU3,
              RESULTAT=RESU3,
               CONTRAINTE=('SIGM_ELNO'),);

RESU3=CALC_CHAMP(reuse =RESU3,
              RESULTAT=RESU3,
              FORCE='FORC_NODA',CONTRAINTE='SIGM_NOEU',
              );

PSL1=POST_RELEVE_T(ACTION=(_F(INTITULE='PSL1_GAUCHE',
                              GROUP_NO='GAUCHE',
                              RESULTAT=RESU1,
                              NOM_CHAM='FORC_NODA',
                              RESULTANTE=('DX','DY','DZ',),
                              MOMENT=('DRX','DRY','DRZ',),
                              POINT=(0.0,0.0,0.0,),
                              OPERATION='EXTRACTION',),
                           _F(INTITULE='PSL1_DROITE',
                              GROUP_NO='DROITE',
                              RESULTAT=RESU1,
                              NOM_CHAM='FORC_NODA',
                              RESULTANTE=('DX','DY','DZ',),
                              MOMENT=('DRX','DRY','DRZ',),
                              POINT=(0.0,0.0,0.0,),
                              OPERATION='EXTRACTION',),
                              ),);

PSL2=POST_RELEVE_T(ACTION=(_F(INTITULE='PSL2_GAUCHE',
                              GROUP_NO='GAUCHE',
                              RESULTAT=RESU2,
                              NOM_CHAM='FORC_NODA',
                              RESULTANTE=('DX','DY','DZ',),
                              MOMENT=('DRX','DRY','DRZ',),
                              POINT=(0.0,0.0,0.0,),
                              OPERATION='EXTRACTION',),
                           _F(INTITULE='PSL2_DROITE',
                              GROUP_NO='DROITE',
                              RESULTAT=RESU2,
                              NOM_CHAM='FORC_NODA',
                              RESULTANTE=('DX','DY','DZ',),
                              MOMENT=('DRX','DRY','DRZ',),
                              POINT=(0.0,0.0,0.0,),
                              OPERATION='EXTRACTION',),
                              ),);

PSL3=POST_RELEVE_T(ACTION=(_F(INTITULE='PSL3_GAUCHE',
                              GROUP_NO='GAUCHE',
                              RESULTAT=RESU3,
                              NOM_CHAM='FORC_NODA',
                              RESULTANTE=('DX','DY','DZ',),
                              MOMENT=('DRX','DRY','DRZ',),
                              POINT=(0.0,0.0,0.0,),
                              OPERATION='EXTRACTION',),
                           _F(INTITULE='PSL3_DROITE',
                              GROUP_NO='DROITE',
                              RESULTAT=RESU3,
                              NOM_CHAM='FORC_NODA',
                              RESULTANTE=('DX','DY','DZ',),
                              MOMENT=('DRX','DRY','DRZ',),
                              POINT=(0.0,0.0,0.0,),
                              OPERATION='EXTRACTION',),
                              ),);

# TEST SUR LE RESULTAT MECA_STATIQUE 1

# DEPLACEMENT

TEST_RESU(RESU=_F(NUME_ORDRE=1,
                  GROUP_NO='B',
                  REFERENCE='AUTRE_ASTER',
                  RESULTAT=RESU1,
                  NOM_CHAM='DEPL',
                  NOM_CMP='DX',
                  VALE_CALC= 5.67667539E-03,
                  VALE_REFE=5.6766753846415E-3,
                  CRITERE='RELATIF',
                  PRECISION=1.E-08,),
          )

TEST_RESU(RESU=_F(NUME_ORDRE=1,
                  GROUP_NO='C',
                  REFERENCE='AUTRE_ASTER',
                  RESULTAT=RESU1,
                  NOM_CHAM='DEPL',
                  NOM_CMP='DX',
                  VALE_CALC= 5.83749352E-03,
                  VALE_REFE=5.837493523202E-3,
                  CRITERE='RELATIF',
                  PRECISION=1.E-08,),
          )

# FORCES NODALES

TEST_TABLE(REFERENCE='ANALYTIQUE',
           PRECISION=1.E-08,
           VALE_CALC=-2.00000000E+03,
           VALE_REFE=-2000.0,
           NOM_PARA='RESULT_X',
           TABLE=PSL1,
           FILTRE=_F(NOM_PARA='INTITULE',
                     VALE_K='PSL1_GAUCHE',),
           )

TEST_TABLE(REFERENCE='ANALYTIQUE',
           PRECISION=1.E-08,
           VALE_CALC= 2.00000000E+03,
           VALE_REFE=2000.0,
           NOM_PARA='RESULT_X',
           TABLE=PSL1,
           FILTRE=_F(NOM_PARA='INTITULE',
                     VALE_K='PSL1_DROITE',),
           )

TEST_TABLE(REFERENCE='ANALYTIQUE',
           PRECISION=1.E-08,
           VALE_CALC=-2.00000000E+04,
           VALE_REFE=-2.E4,
           NOM_PARA='MOMENT_Y',
           TABLE=PSL1,
           FILTRE=_F(NOM_PARA='INTITULE',
                     VALE_K='PSL1_GAUCHE',),
           )

TEST_TABLE(REFERENCE='ANALYTIQUE',
           PRECISION=1.E-08,
           VALE_CALC= 2.00000000E+05,
           VALE_REFE=2.E5,
           NOM_PARA='MOMENT_Z',
           TABLE=PSL1,
           FILTRE=_F(NOM_PARA='INTITULE',
                     VALE_K='PSL1_GAUCHE',),
           )

# CONTRAINTES

TEST_RESU(RESU=(_F(NUME_ORDRE=1,
                   GROUP_NO='A',
                   REFERENCE='AUTRE_ASTER',
                   RESULTAT=RESU1,
                   NOM_CHAM='SIGM_NOEU',
                   NOM_CMP='SIXX',
                   VALE_CALC=1.067538652,
                   VALE_REFE=1.0675386510217999,
                   CRITERE='RELATIF',
                   PRECISION=1.E-08,),
                _F(NUME_ORDRE=1,
                   GROUP_NO='D',
                   REFERENCE='AUTRE_ASTER',
                   RESULTAT=RESU1,
                   NOM_CHAM='SIGM_NOEU',
                   NOM_CMP='SIXX',
                   VALE_CALC=1.030236759,
                   VALE_REFE=1.0302367579975,
                   CRITERE='RELATIF',
                   PRECISION=1.E-08,),
                ),
          )

# TEST SUR LE RESULTAT MECA_STATIQUE 2

# DEPLACEMENT

TEST_RESU(RESU=_F(NUME_ORDRE=1,
                  GROUP_NO='B',
                  REFERENCE='AUTRE_ASTER',
                  RESULTAT=RESU2,
                  NOM_CHAM='DEPL',
                  NOM_CMP='DY',
                  VALE_CALC=0.154763846,
                  VALE_REFE=0.15476384606676,
                  CRITERE='RELATIF',
                  PRECISION=1.E-08,),
          )

TEST_RESU(RESU=_F(NUME_ORDRE=1,
                  GROUP_NO='C',
                  REFERENCE='AUTRE_ASTER',
                  RESULTAT=RESU2,
                  NOM_CHAM='DEPL',
                  NOM_CMP='DY',
                  VALE_CALC=0.154750956,
                  VALE_REFE=0.15475095620497001,
                  CRITERE='RELATIF',
                  PRECISION=1.E-08,),
          )

# FORCES NODALES

TEST_TABLE(REFERENCE='ANALYTIQUE',
           PRECISION=1.E-08,
           VALE_CALC=-2.00000000E+03,
           VALE_REFE=-2000.0,
           NOM_PARA='RESULT_Y',
           TABLE=PSL2,
           FILTRE=_F(NOM_PARA='INTITULE',
                     VALE_K='PSL2_GAUCHE',),
           )

TEST_TABLE(REFERENCE='ANALYTIQUE',
           PRECISION=1.E-08,
           VALE_CALC= 2.00000000E+03,
           VALE_REFE=2000.0,
           NOM_PARA='RESULT_Y',
           TABLE=PSL2,
           FILTRE=_F(NOM_PARA='INTITULE',
                     VALE_K='PSL2_DROITE',),
           )

TEST_TABLE(REFERENCE='ANALYTIQUE',
           PRECISION=1.E-08,
           VALE_CALC= 2.00000000E+04,
           VALE_REFE=2.E4,
           NOM_PARA='MOMENT_X',
           TABLE=PSL2,
           FILTRE=_F(NOM_PARA='INTITULE',
                     VALE_K='PSL2_GAUCHE',),
           )

TEST_TABLE(REFERENCE='ANALYTIQUE',
           PRECISION=1.E-08,
           VALE_CALC=-1.50000000E+06,
           VALE_REFE=-1.500000E6,
           NOM_PARA='MOMENT_Z',
           TABLE=PSL2,
           FILTRE=_F(NOM_PARA='INTITULE',
                     VALE_K='PSL2_GAUCHE',),
           )

# CONTRAINTES

TEST_RESU(RESU=(_F(NUME_ORDRE=1,
                   GROUP_NO='A',
                   REFERENCE='AUTRE_ASTER',
                   RESULTAT=RESU2,
                   NOM_CHAM='SIGM_NOEU',
                   NOM_CMP='SIXX',
                   VALE_CALC=4.555426760,
                   VALE_REFE=4.5554267598348996,
                   CRITERE='RELATIF',
                   PRECISION=1.E-08,),
                _F(NUME_ORDRE=1,
                   GROUP_NO='D',
                   REFERENCE='AUTRE_ASTER',
                   RESULTAT=RESU2,
                   NOM_CHAM='SIGM_NOEU',
                   NOM_CMP='SIXX',
                   VALE_CALC=-4.439052668,
                   VALE_REFE=-4.4390526676705004,
                   CRITERE='RELATIF',
                   PRECISION=1.E-08,),
                ),
          )

# TEST SUR LE RESULTAT MECA_STATIQUE 3

# DEPLACEMENT

TEST_RESU(RESU=_F(NUME_ORDRE=1,
                  GROUP_NO='B',
                  REFERENCE='AUTRE_ASTER',
                  RESULTAT=RESU3,
                  NOM_CHAM='DEPL',
                  NOM_CMP='DZ',
                  VALE_CALC=-6.209730215,
                  VALE_REFE=-6.2097302104193997,
                  CRITERE='RELATIF',
                  PRECISION=1.E-08,),
          )

TEST_RESU(RESU=_F(NUME_ORDRE=1,
                  GROUP_NO='C',
                  REFERENCE='AUTRE_ASTER',
                  RESULTAT=RESU3,
                  NOM_CHAM='DEPL',
                  NOM_CMP='DZ',
                  VALE_CALC=-6.208232836,
                  VALE_REFE=-6.2082328310698003,
                  CRITERE='RELATIF',
                  PRECISION=1.E-08,),
          )

# FORCES NODALES

TEST_TABLE(REFERENCE='ANALYTIQUE',
           PRECISION=1.E-08,
           VALE_CALC= 2.00000000E+03,
           VALE_REFE=2000.0,
           NOM_PARA='RESULT_Z',
           TABLE=PSL3,
           FILTRE=(_F(NOM_PARA='INTITULE',
                      VALE_K='PSL3_GAUCHE',),
                   _F(NOM_PARA='NUME_ORDRE',
                      VALE_I=1,),
                   ),
           )

TEST_TABLE(REFERENCE='ANALYTIQUE',
           PRECISION=1.E-08,
           VALE_CALC=-2.00000000E+03,
           VALE_REFE=-2000.0,
           NOM_PARA='RESULT_Z',
           TABLE=PSL3,
           FILTRE=(_F(NOM_PARA='INTITULE',
                      VALE_K='PSL3_DROITE',),
                   _F(NOM_PARA='NUME_ORDRE',
                      VALE_I=1,),
                   ),
           )

TEST_TABLE(REFERENCE='ANALYTIQUE',
           PRECISION=1.E-08,
           VALE_CALC= 2.00000000E+05,
           VALE_REFE=2.E5,
           NOM_PARA='MOMENT_X',
           TABLE=PSL3,
           FILTRE=(_F(NOM_PARA='INTITULE',
                      VALE_K='PSL3_GAUCHE',),
                   _F(NOM_PARA='NUME_ORDRE',
                      VALE_I=1,),
                   ),
           )

TEST_TABLE(REFERENCE='ANALYTIQUE',
           VALE_CALC=-1.50000000E+06,
           VALE_REFE=-1.500000E6,
           NOM_PARA='MOMENT_Y',
           TABLE=PSL3,
           FILTRE=(_F(NOM_PARA='INTITULE',
                      VALE_K='PSL3_GAUCHE',),
                   _F(NOM_PARA='NUME_ORDRE',
                      VALE_I=1,),
                   ),
           )

# CONTRAINTES

TEST_RESU(RESU=(_F(NUME_ORDRE=1,
                   GROUP_NO='A',
                   REFERENCE='AUTRE_ASTER',
                   RESULTAT=RESU3,
                   NOM_CHAM='SIGM_NOEU',
                   NOM_CMP='SIXX',
                   VALE_CALC=-132.297834772,
                   VALE_REFE=-132.29783467822,
                   CRITERE='RELATIF',
                   PRECISION=1.E-08,),
                _F(NUME_ORDRE=1,
                   GROUP_NO='D',
                   REFERENCE='AUTRE_ASTER',
                   RESULTAT=RESU3,
                   NOM_CHAM='SIGM_NOEU',
                   NOM_CMP='SIXX',
                   VALE_CALC=-131.564854662,
                   VALE_REFE=-131.56485455673999,
                   CRITERE='RELATIF',
                   PRECISION=0.14000000000000001,),
                ),
          )

FIN();
