# MODIF  DATE 30/07/2012   AUTEUR LEFEBVRE J-P.LEFEBVRE 
# TITRE NON REGRESSION SUR QUART DE VIROLE CYLINDRIQUE
# ssls114k.para = tps_job 60 mem_job 512Mo ncpus 1 liste_test R
#            CONFIGURATION MANAGEMENT OF EDF VERSION
# ======================================================================
# COPYRIGHT (C) 1991 - 2012  EDF R&D                  WWW.CODE-ASTER.ORG
# THIS PROGRAM IS FREE SOFTWARE; YOU CAN REDISTRIBUTE IT AND/OR MODIFY
# IT UNDER THE TERMS OF THE GNU GENERAL PUBLIC LICENSE AS PUBLISHED BY
# THE FREE SOFTWARE FOUNDATION; EITHER VERSION 2 OF THE LICENSE, OR
# (AT YOUR OPTION) ANY LATER VERSION.
#
# THIS PROGRAM IS DISTRIBUTED IN THE HOPE THAT IT WILL BE USEFUL, BUT
# WITHOUT ANY WARRANTY; WITHOUT EVEN THE IMPLIED WARRANTY OF
# MERCHANTABILITY OR FITNESS FOR A PARTICULAR PURPOSE. SEE THE GNU
# GENERAL PUBLIC LICENSE FOR MORE DETAILS.
#
# YOU SHOULD HAVE RECEIVED A COPY OF THE GNU GENERAL PUBLIC LICENSE
# ALONG WITH THIS PROGRAM; IF NOT, WRITE TO EDF R&D CODE_ASTER,
#    1 AVENUE DU GENERAL DE GAULLE, 92141 CLAMART CEDEX, FRANCE.
# ======================================================================
# COQUE_D_PLAN

DEBUT(CODE=_F(NOM='SSLS114K',
              NIV_PUB_WEB='INTERNET',),
      DEBUG=_F(SDVERI='OUI',),);

MAIL=LIRE_MAILLAGE(INFO=2,);

MO=AFFE_MODELE(MAILLAGE=MAIL,
               AFFE=_F(GROUP_MA='CYLINDRE',
                       PHENOMENE='MECANIQUE',
                       MODELISATION='COQUE_D_PLAN',),);

MAIL=MODI_MAILLAGE(reuse =MAIL,
                   MAILLAGE=MAIL,
                   ORIE_NORM_COQUE=_F(GROUP_MA='CYLINDRE',
                                      VECT_NORM=(-1.0,0.0,),
                                      GROUP_NO='PA',),
                   INFO=2,);

MATE=DEFI_MATERIAU(ELAS=_F(E=2.E11,
                           NU=0.3,
                           RHO=1234.0,
                           ALPHA=0.,),);

CM=AFFE_MATERIAU(MAILLAGE=MAIL,
                 AFFE=_F(GROUP_MA='CYLINDRE',
                         MATER=MATE,),);

CA=AFFE_CARA_ELEM(MODELE=MO,
                  COQUE=_F(GROUP_MA='CYLINDRE',
                           EPAIS=0.05,
                           MODI_METRIQUE='NON',),);

CA_M=AFFE_CARA_ELEM(MODELE=MO,
                    COQUE=_F(GROUP_MA='CYLINDRE',
                             EPAIS=0.05,
                             MODI_METRIQUE='OUI',),);

FM10=DEFI_FONCTION(NOM_PARA='Y',NOM_RESU='PRES',VALE=(0.,10.,
                         0.5,10.,
                         ),INTERPOL='LIN',PROL_DROITE='CONSTANT',PROL_GAUCHE='CONSTANT',);

CH=AFFE_CHAR_MECA(MODELE=MO,
                  DDL_IMPO=(_F(GROUP_NO='PA',
                               DY=0.,
                               DRZ=0.,),
                            _F(GROUP_NO='PC',
                               DX=0.,
                               DRZ=0.,),),);

MASS_INE=POST_ELEM(MASS_INER=_F(TOUT='OUI',),
                   MODELE=MO,
                   CHAM_MATER=CM,
                   CARA_ELEM=CA_M,);

IMPR_TABLE(TABLE=MASS_INE,
           NOM_PARA=('LIEU','ENTITE','MASSE','CDG_X','CDG_Y','CDG_Z',),);

IMPR_TABLE(TABLE=MASS_INE,
           NOM_PARA=('LIEU','ENTITE','IX_G','IY_G','IZ_G','IXY_G','IXZ_G','IYZ_G',),);

IMPR_TABLE(TABLE=MASS_INE,
           NOM_PARA=('LIEU','ENTITE','IX_PRIN_G','IY_PRIN_G','IZ_PRIN_G','ALPHA','BETA','GAMMA',),);

TEST_TABLE(TABLE=MASS_INE,
           FILTRE=_F(NOM_PARA='LIEU',
                     VALE_K='MAIL',),
           NOM_PARA='MASSE',
           VALE=96.9181333635,
           REFERENCE='ANALYTIQUE',);

TEST_TABLE(TABLE=MASS_INE,
           FILTRE=_F(NOM_PARA='LIEU',
                     VALE_K='MAIL',),
           NOM_PARA='CDG_X',
           VALE=0.636619772,
           REFERENCE='ANALYTIQUE',);

TEST_TABLE(TABLE=MASS_INE,
           FILTRE=_F(NOM_PARA='LIEU',
                     VALE_K='MAIL',),
           NOM_PARA='CDG_Y',
           VALE=0.636619772,
           REFERENCE='ANALYTIQUE',);

TEST_TABLE(TABLE=MASS_INE,
           FILTRE=_F(NOM_PARA='LIEU',
                     VALE_K='MAIL',),
           NOM_PARA='CDG_Z',
           VALE=0.0,
           CRITERE='ABSOLU',
           REFERENCE='ANALYTIQUE',);

TEST_TABLE(TABLE=MASS_INE,
           FILTRE=_F(NOM_PARA='LIEU',
                     VALE_K='MAIL',),
           NOM_PARA='IX_G',
           VALE=9.17961,
           REFERENCE='NON_REGRESSION',);

TEST_TABLE(TABLE=MASS_INE,
           FILTRE=_F(NOM_PARA='LIEU',
                     VALE_K='MAIL',),
           NOM_PARA='IY_G',
           VALE=9.17961,
           REFERENCE='NON_REGRESSION',);

TEST_TABLE(TABLE=MASS_INE,
           FILTRE=_F(NOM_PARA='LIEU',
                     VALE_K='MAIL',),
           NOM_PARA='IZ_G',
           VALE=18.3592,
           REFERENCE='NON_REGRESSION',);

#____________________ MODELISATION PRES_REP REEL _______________

F_PRES=DEFI_CONSTANTE(NOM_RESU='PRES',
                      VALE=0.,);

CHP_F=AFFE_CHAR_MECA_F(MODELE=MO,
                       PRES_REP=_F(GROUP_MA='CYLINDRE',
                                   PRES=F_PRES,),);

CHP=AFFE_CHAR_MECA(MODELE=MO,
                   PRES_REP=_F(GROUP_MA='CYLINDRE',
                               PRES=10.,),);

RESP=MECA_STATIQUE(MODELE=MO,
                   CHAM_MATER=CM,
                   CARA_ELEM=CA_M,
                   EXCIT=(_F(CHARGE=CH,),
                          _F(CHARGE=CHP,),
                          _F(CHARGE=CHP_F,),),);

RESP=CALC_CHAMP(reuse=RESP,RESULTAT=RESP,CONTRAINTE=('SIGM_ELNO'))


RESPMOY=POST_CHAMP(RESULTAT=RESP,
                   EXTR_COQUE=_F(NOM_CHAM='SIGM_ELNO',
                                 NUME_COUCHE=1,
                                 NIVE_COUCHE='MOY',),);
RESPMOY=CALC_CHAMP(reuse =RESPMOY,
                RESULTAT=RESPMOY,
                CONTRAINTE='SIGM_NOEU',);

TEST_RESU(RESU=(_F(RESULTAT=RESP,
                   NUME_ORDRE=1,
                   NOM_CHAM='DEPL',
                   NOM_CMP='DX',
                   GROUP_NO='PA',
                   VALE=9.81907e-10,
                   CRITERE='RELATIF',
                   PRECISION=0.08,
                   REFERENCE='ANALYTIQUE',),
                _F(RESULTAT=RESP,
                   NUME_ORDRE=1,
                   NOM_CHAM='DEPL',
                   NOM_CMP='DY',
                   GROUP_NO='PC',
                   VALE=9.81907e-10,
                   CRITERE='RELATIF',
                   PRECISION=0.08,
                   REFERENCE='ANALYTIQUE',),
                _F(RESULTAT=RESPMOY,
                   NUME_ORDRE=1,
                   NOM_CHAM='SIGM_NOEU',
                   NOM_CMP='SIXX',
                   GROUP_NO='PA',
                   VALE=194.93754,
                   CRITERE='RELATIF',
                   PRECISION=0.03,),
                _F(RESULTAT=RESPMOY,
                   NUME_ORDRE=1,
                   NOM_CHAM='SIGM_NOEU',
                   NOM_CMP='SIXX',
                   GROUP_NO='PC',
                   VALE=194.93754,
                   CRITERE='RELATIF',
                   PRECISION=0.03,),),);

#____________________ MODELISATION FORCE_COQUE REEL ________________

CHF=AFFE_CHAR_MECA(MODELE=MO,
                   FORCE_COQUE=_F(GROUP_MA='CYLINDRE',
                                  PRES=10.,),);

RESF=MECA_STATIQUE(MODELE=MO,
                   CHAM_MATER=CM,
                   CARA_ELEM=CA_M,
                   EXCIT=(_F(CHARGE=CH,),
                          _F(CHARGE=CHF,),),);

RESF=CALC_CHAMP(reuse=RESF,RESULTAT=RESF,CONTRAINTE=('SIGM_ELNO'))


RESFMOY=POST_CHAMP(RESULTAT=RESF,
                   EXTR_COQUE=_F(NOM_CHAM='SIGM_ELNO',
                                 NUME_COUCHE=1,
                                 NIVE_COUCHE='MOY',),);
RESFMOY=CALC_CHAMP(reuse =RESFMOY,
                RESULTAT=RESFMOY,
                CONTRAINTE='SIGM_NOEU',);

RESFINF=POST_CHAMP(RESULTAT=RESF,
                   EXTR_COQUE=_F(NOM_CHAM='SIGM_ELNO',
                                 NUME_COUCHE=1,
                                 NIVE_COUCHE='INF',),);
RESFINF=CALC_CHAMP(reuse =RESFINF,
                RESULTAT=RESFINF,
                CONTRAINTE='SIGM_NOEU',);

RESFSUP=POST_CHAMP(RESULTAT=RESF,
                   EXTR_COQUE=_F(NOM_CHAM='SIGM_ELNO',
                                 NUME_COUCHE=1,
                                 NIVE_COUCHE='SUP',),);
RESFSUP=CALC_CHAMP(reuse =RESFSUP,
                RESULTAT=RESFSUP,
                CONTRAINTE='SIGM_NOEU',);

TEST_RESU(RESU=(_F(RESULTAT=RESF,
                   NUME_ORDRE=1,
                   NOM_CHAM='DEPL',
                   NOM_CMP='DX',
                   GROUP_NO='PA',
                   VALE=9.81907e-10,
                   CRITERE='RELATIF',
                   PRECISION=0.08,
                   REFERENCE='ANALYTIQUE',),
                _F(RESULTAT=RESF,
                   NUME_ORDRE=1,
                   NOM_CHAM='DEPL',
                   NOM_CMP='DY',
                   GROUP_NO='PC',
                   VALE=9.81907e-10,
                   CRITERE='RELATIF',
                   PRECISION=0.08,
                   REFERENCE='ANALYTIQUE',),
                _F(RESULTAT=RESFMOY,
                   NUME_ORDRE=1,
                   NOM_CHAM='SIGM_NOEU',
                   NOM_CMP='SIXX',
                   GROUP_NO='PA',
                   VALE=194.93754,
                   CRITERE='RELATIF',
                   PRECISION=0.028,
                   REFERENCE='ANALYTIQUE',),
                _F(RESULTAT=RESFMOY,
                   NUME_ORDRE=1,
                   NOM_CHAM='SIGM_NOEU',
                   NOM_CMP='SIXX',
                   GROUP_NO='PC',
                   VALE=194.93754,
                   CRITERE='RELATIF',
                   PRECISION=0.028,
                   REFERENCE='ANALYTIQUE',),
                _F(RESULTAT=RESFINF,
                   NUME_ORDRE=1,
                   NOM_CHAM='SIGM_NOEU',
                   NOM_CMP='SIXX',
                   GROUP_NO='PA',
                   VALE=190.125,
                   CRITERE='RELATIF',
                   PRECISION=0.028,
                   REFERENCE='ANALYTIQUE',),
                _F(RESULTAT=RESFINF,
                   NUME_ORDRE=1,
                   NOM_CHAM='SIGM_NOEU',
                   NOM_CMP='SIXX',
                   GROUP_NO='PC',
                   VALE=190.125,
                   CRITERE='RELATIF',
                   PRECISION=0.028,
                   REFERENCE='ANALYTIQUE',),
                _F(RESULTAT=RESFSUP,
                   NUME_ORDRE=1,
                   NOM_CHAM='SIGM_NOEU',
                   NOM_CMP='SIXX',
                   GROUP_NO='PA',
                   VALE=200.125,
                   CRITERE='RELATIF',
                   PRECISION=0.028,
                   REFERENCE='ANALYTIQUE',),
                _F(RESULTAT=RESFSUP,
                   NUME_ORDRE=1,
                   NOM_CHAM='SIGM_NOEU',
                   NOM_CMP='SIXX',
                   GROUP_NO='PC',
                   VALE=200.125,
                   CRITERE='RELATIF',
                   PRECISION=0.028,
                   REFERENCE='ANALYTIQUE',),),);

#____________________ MODELISATION FORCE_COQUE FONCTION ___________

CHG=AFFE_CHAR_MECA_F(MODELE=MO,
                     FORCE_COQUE=_F(GROUP_MA='CYLINDRE',
                                    PRES=FM10,),);

RESG=MECA_STATIQUE(MODELE=MO,
                   CHAM_MATER=CM,
                   CARA_ELEM=CA_M,
                   EXCIT=(_F(CHARGE=CH,),
                          _F(CHARGE=CHG,),),);

RESG=CALC_CHAMP(reuse=RESG,RESULTAT=RESG,CONTRAINTE=('SIGM_ELNO'))


RESGMOY=POST_CHAMP(RESULTAT=RESG,
                   EXTR_COQUE=_F(NOM_CHAM='SIGM_ELNO',
                                 NUME_COUCHE=1,
                                 NIVE_COUCHE='MOY',),);
RESGMOY=CALC_CHAMP(reuse =RESGMOY,
                RESULTAT=RESGMOY,
                CONTRAINTE='SIGM_NOEU',);

RESGINF=POST_CHAMP(RESULTAT=RESG,
                   EXTR_COQUE=_F(NOM_CHAM='SIGM_ELNO',
                                 NUME_COUCHE=1,
                                 NIVE_COUCHE='INF',),);
RESGINF=CALC_CHAMP(reuse =RESGINF,
                RESULTAT=RESGINF,
                CONTRAINTE='SIGM_NOEU',);

RESGSUP=POST_CHAMP(RESULTAT=RESG,
                   EXTR_COQUE=_F(NOM_CHAM='SIGM_ELNO',
                                 NUME_COUCHE=1,
                                 NIVE_COUCHE='SUP',),);
RESGSUP=CALC_CHAMP(reuse =RESGSUP,
                RESULTAT=RESGSUP,
                CONTRAINTE='SIGM_NOEU',);

TEST_RESU(RESU=(_F(RESULTAT=RESG,
                   NUME_ORDRE=1,
                   NOM_CHAM='DEPL',
                   NOM_CMP='DX',
                   GROUP_NO='PA',
                   VALE=9.81907e-10,
                   CRITERE='RELATIF',
                   PRECISION=0.08,
                   REFERENCE='ANALYTIQUE',),
                _F(RESULTAT=RESG,
                   NUME_ORDRE=1,
                   NOM_CHAM='DEPL',
                   NOM_CMP='DY',
                   GROUP_NO='PC',
                   VALE=9.81907e-10,
                   CRITERE='RELATIF',
                   PRECISION=0.08,
                   REFERENCE='ANALYTIQUE',),
                _F(RESULTAT=RESGMOY,
                   NUME_ORDRE=1,
                   NOM_CHAM='SIGM_NOEU',
                   NOM_CMP='SIXX',
                   GROUP_NO='PA',
                   VALE=194.93754,
                   CRITERE='RELATIF',
                   PRECISION=0.028,
                   REFERENCE='ANALYTIQUE',),
                _F(RESULTAT=RESGMOY,
                   NUME_ORDRE=1,
                   NOM_CHAM='SIGM_NOEU',
                   NOM_CMP='SIXX',
                   GROUP_NO='PC',
                   VALE=194.93754,
                   CRITERE='RELATIF',
                   PRECISION=0.028,
                   REFERENCE='ANALYTIQUE',),
                _F(RESULTAT=RESGINF,
                   NUME_ORDRE=1,
                   NOM_CHAM='SIGM_NOEU',
                   NOM_CMP='SIXX',
                   GROUP_NO='PA',
                   VALE=190.125,
                   CRITERE='RELATIF',
                   PRECISION=0.028,
                   REFERENCE='ANALYTIQUE',),
                _F(RESULTAT=RESGINF,
                   NUME_ORDRE=1,
                   NOM_CHAM='SIGM_NOEU',
                   NOM_CMP='SIXX',
                   GROUP_NO='PC',
                   VALE=190.125,
                   CRITERE='RELATIF',
                   PRECISION=0.028,
                   REFERENCE='ANALYTIQUE',),
                _F(RESULTAT=RESGSUP,
                   NUME_ORDRE=1,
                   NOM_CHAM='SIGM_NOEU',
                   NOM_CMP='SIXX',
                   GROUP_NO='PA',
                   VALE=200.125,
                   CRITERE='RELATIF',
                   PRECISION=0.028,
                   REFERENCE='ANALYTIQUE',),
                _F(RESULTAT=RESGSUP,
                   NUME_ORDRE=1,
                   NOM_CHAM='SIGM_NOEU',
                   NOM_CMP='SIXX',
                   GROUP_NO='PC',
                   VALE=200.125,
                   CRITERE='RELATIF',
                   PRECISION=0.028,
                   REFERENCE='ANALYTIQUE',),),);

#____ MODELISATION FORCE_COQUE FONCTION SANS MODI_METRIQUE___________

CHM=AFFE_CHAR_MECA_F(MODELE=MO,
                     FORCE_COQUE=_F(GROUP_MA='CYLINDRE',
                                    PRES=FM10,),);

RESM=MECA_STATIQUE(MODELE=MO,
                   CHAM_MATER=CM,
                   CARA_ELEM=CA,
                   EXCIT=(_F(CHARGE=CH,),
                          _F(CHARGE=CHM,),),);

RESM=CALC_CHAMP(reuse=RESM,RESULTAT=RESM,CONTRAINTE=('SIGM_ELNO'))


RESMMOY=POST_CHAMP(RESULTAT=RESM,
                   EXTR_COQUE=_F(NOM_CHAM='SIGM_ELNO',
                                 NUME_COUCHE=1,
                                 NIVE_COUCHE='MOY',),);
RESMMOY=CALC_CHAMP(reuse =RESMMOY,
                RESULTAT=RESMMOY,
                CONTRAINTE='SIGM_NOEU',);

RESMINF=POST_CHAMP(RESULTAT=RESM,
                   EXTR_COQUE=_F(NOM_CHAM='SIGM_ELNO',
                                 NUME_COUCHE=1,
                                 NIVE_COUCHE='INF',),);
RESMINF=CALC_CHAMP(reuse =RESMINF,
                RESULTAT=RESMINF,
                CONTRAINTE='SIGM_NOEU',);

RESMSUP=POST_CHAMP(RESULTAT=RESM,
                   EXTR_COQUE=_F(NOM_CHAM='SIGM_ELNO',
                                 NUME_COUCHE=1,
                                 NIVE_COUCHE='SUP',),);
RESMSUP=CALC_CHAMP(reuse =RESMSUP,
                RESULTAT=RESMSUP,
                CONTRAINTE='SIGM_NOEU',);

TEST_RESU(RESU=(_F(RESULTAT=RESM,
                   NUME_ORDRE=1,
                   NOM_CHAM='DEPL',
                   NOM_CMP='DX',
                   GROUP_NO='PA',
                   VALE=9.81907e-10,
                   CRITERE='RELATIF',
                   PRECISION=0.08,
                   REFERENCE='ANALYTIQUE',),
                _F(RESULTAT=RESM,
                   NUME_ORDRE=1,
                   NOM_CHAM='DEPL',
                   NOM_CMP='DY',
                   GROUP_NO='PC',
                   VALE=9.81907e-10,
                   CRITERE='RELATIF',
                   PRECISION=0.08,
                   REFERENCE='ANALYTIQUE',),
                _F(RESULTAT=RESMMOY,
                   NUME_ORDRE=1,
                   NOM_CHAM='SIGM_NOEU',
                   NOM_CMP='SIXX',
                   GROUP_NO='PA',
                   VALE=194.93754,
                   CRITERE='RELATIF',
                   PRECISION=0.028,
                   REFERENCE='ANALYTIQUE',),
                _F(RESULTAT=RESMMOY,
                   NUME_ORDRE=1,
                   NOM_CHAM='SIGM_NOEU',
                   NOM_CMP='SIXX',
                   GROUP_NO='PC',
                   VALE=194.93754,
                   CRITERE='RELATIF',
                   PRECISION=0.028,
                   REFERENCE='ANALYTIQUE',),
                _F(RESULTAT=RESMINF,
                   NUME_ORDRE=1,
                   NOM_CHAM='SIGM_NOEU',
                   NOM_CMP='SIXX',
                   GROUP_NO='PA',
                   VALE=190.125,
                   CRITERE='RELATIF',
                   PRECISION=0.052,
                   REFERENCE='ANALYTIQUE',),
                _F(RESULTAT=RESMINF,
                   NUME_ORDRE=1,
                   NOM_CHAM='SIGM_NOEU',
                   NOM_CMP='SIXX',
                   GROUP_NO='PC',
                   VALE=190.125,
                   CRITERE='RELATIF',
                   PRECISION=0.052,
                   REFERENCE='ANALYTIQUE',),
                _F(RESULTAT=RESMSUP,
                   NUME_ORDRE=1,
                   NOM_CHAM='SIGM_NOEU',
                   NOM_CMP='SIXX',
                   GROUP_NO='PA',
                   VALE=200.125,
                   CRITERE='RELATIF',
                   PRECISION=0.001,
                   REFERENCE='ANALYTIQUE',),
                _F(RESULTAT=RESMSUP,
                   NUME_ORDRE=1,
                   NOM_CHAM='SIGM_NOEU',
                   NOM_CMP='SIXX',
                   GROUP_NO='PC',
                   VALE=200.125,
                   CRITERE='RELATIF',
                   PRECISION=0.001,
                   REFERENCE='ANALYTIQUE',),),);

FIN();

#

