# MODIF  DATE 30/07/2012   AUTEUR LEFEBVRE J-P.LEFEBVRE 
# TITRE FERRAILLAGE D'UNE CUVE CARREE SELON LA METHODE DE CAPRA ET MAURY
# ssls135a.para = tps_job 30 mem_job 512Mo ncpus 1 liste_test R
#            CONFIGURATION MANAGEMENT OF EDF VERSION
# ======================================================================
# COPYRIGHT (C) 1991 - 2012  EDF R&D                  WWW.CODE-ASTER.ORG
# THIS PROGRAM IS FREE SOFTWARE; YOU CAN REDISTRIBUTE IT AND/OR MODIFY
# IT UNDER THE TERMS OF THE GNU GENERAL PUBLIC LICENSE AS PUBLISHED BY
# THE FREE SOFTWARE FOUNDATION; EITHER VERSION 2 OF THE LICENSE, OR
# (AT YOUR OPTION) ANY LATER VERSION.
#
# THIS PROGRAM IS DISTRIBUTED IN THE HOPE THAT IT WILL BE USEFUL, BUT
# WITHOUT ANY WARRANTY; WITHOUT EVEN THE IMPLIED WARRANTY OF
# MERCHANTABILITY OR FITNESS FOR A PARTICULAR PURPOSE. SEE THE GNU
# GENERAL PUBLIC LICENSE FOR MORE DETAILS.
#
# YOU SHOULD HAVE RECEIVED A COPY OF THE GNU GENERAL PUBLIC LICENSE
# ALONG WITH THIS PROGRAM; IF NOT, WRITE TO EDF R&D CODE_ASTER,
#    1 AVENUE DU GENERAL DE GAULLE, 92141 CLAMART CEDEX, FRANCE.
# ======================================================================
# MODELISATION B : DKT

DEBUT(CODE=_F(NOM='SSLS135A', NIV_PUB_WEB='INTERNET'), DEBUG=_F(SDVERI='OUI'))

MeshLin=LIRE_MAILLAGE(FORMAT='MED',UNITE=20,)

# definition d'un group_ma sur lequel on fera le calcul de ferraillage :
MeshLin=DEFI_GROUP( reuse=MeshLin, MAILLAGE=MeshLin,
     CREA_GROUP_MA=_F(  NOM = 'CALCFER',
                   MAILLE = ( 'M1113', 'M1115', 'M1173', 'M1373', 'M1391',
                              'M462', 'M516', 'M562',),
                 ))
# Type de calcul
FEMLin=AFFE_MODELE(MAILLAGE=MeshLin,
                   AFFE=(_F(GROUP_MA=('COTEX','COTEX1','COTEY1','COTEY','BASE',),
                            PHENOMENE='MECANIQUE',
                            MODELISATION='DKT',),
                         _F(GROUP_NO='BASEN',
                            PHENOMENE='MECANIQUE',
                            MODELISATION='DIS_T',),),);

# Caracteristiques de Materiaux
beton=DEFI_MATERIAU(ELAS=_F(E=3.0E10,
                            NU=0.15,
                            RHO=2500.0,),);

# Association des materiaux au modele
Mat=AFFE_MATERIAU(MAILLAGE=MeshLin,
                  MODELE=FEMLin,
                  AFFE=_F(TOUT='OUI',
                          MATER=beton,),);

# Proprietes autres (notamment raideur de sol)
AFFECARA=AFFE_CARA_ELEM(MODELE=FEMLin,
                        COQUE=(_F(GROUP_MA='BASE',
                                  EPAIS=0.4,
                                  ANGL_REP=(0.0,0.0,),),
                               _F(GROUP_MA='COTEX',
                                  EPAIS=0.4,
                                  ANGL_REP=(90.0,0.0,),),
                               _F(GROUP_MA='COTEY',
                                  EPAIS=0.4,
                                  ANGL_REP=(0.0,0.0,),),
                               _F(GROUP_MA='COTEY1',
                                  EPAIS=0.4,
                                  ANGL_REP=(0.0,0.0,),),
                               _F(GROUP_MA='COTEX1',
                                  EPAIS=0.4,
                                  ANGL_REP=(90.0,0.0,),),),
                        DISCRET=_F(CARA='M_T_D_N',
                                   GROUP_NO='BASEN',
                                   VALE=0.0,),
                        RIGI_PARASOL=_F(GROUP_MA='BASE',
                                        COEF_GROUP=1.0,
                                        CARA='K_T_D_N',
                                        VALE=(5000E6,5000E6,5000E6,),
                                        COOR_CENTRE=(5.0,5.0,0.0,),),);
# Calcul de la raideur
#   raideur unitaire = 50E6 N/m3
#   surface = 10*10
#   raideur globale KZ = 50E6 * (10*10)
#   KX = KY = KZ

# gradient de Pression
eauPlus=DEFI_FONCTION(NOM_PARA='Z',VALE=(0.0,49050.0,
                            5.0,0.0,
                            ),);

# gradient de Pression
eauMoins=DEFI_FONCTION(NOM_PARA='Z',VALE=(0.0,-49050.0,
                             5.0,0.0,
                             ),);

# definition de la gravite
Grav=AFFE_CHAR_MECA(MODELE=FEMLin,
                    PESANTEUR=_F(GRAVITE=9.81, DIRECTION=(0., 0., -1.,)))

# definition de pression laterale
pressX1=AFFE_CHAR_MECA_F(MODELE=FEMLin,
                         FORCE_COQUE=_F(GROUP_MA='COTEX1',
                                        FZ=eauPlus,),);

# definition de pression laterale
pressX=AFFE_CHAR_MECA_F(MODELE=FEMLin,
                        FORCE_COQUE=_F(GROUP_MA='COTEX',
                                       FZ=eauMoins,),);

# definition de pression laterale
pressY1=AFFE_CHAR_MECA_F(MODELE=FEMLin,
                         FORCE_COQUE=_F(GROUP_MA='COTEY1',
                                        FZ=eauPlus,),);

# definition de pression laterale
pressY=AFFE_CHAR_MECA_F(MODELE=FEMLin,
                        FORCE_COQUE=_F(GROUP_MA='COTEY',
                                       FZ=eauMoins,),);

# definition de pression verticale
pressRep=AFFE_CHAR_MECA(MODELE=FEMLin,
                        PRES_REP=_F(GROUP_MA='BASE',
                                    PRES=49050.0,),);

# definition de forces nodales sur contour haut
surchrep=AFFE_CHAR_MECA(MODELE=FEMLin,
                        FORCE_NODALE=_F(GROUP_NO='DESSUSN',
                                        FZ=-9523.8,),);



# Calcul des efforts :

Solution=MECA_STATIQUE(MODELE=FEMLin,
                       CHAM_MATER=Mat,
                       CARA_ELEM=AFFECARA,
                       EXCIT=(_F(CHARGE=pressY,),
                              _F(CHARGE=pressY1,),
                              _F(CHARGE=pressX,),
                              _F(CHARGE=pressX1,),
                              _F(CHARGE=pressRep,),
                              _F(CHARGE=Grav,),
                              _F(CHARGE=surchrep,),),);

# calculs elementaires, en complement de resultats
Solution=CALC_CHAMP(reuse=Solution,RESULTAT=Solution,CONTRAINTE=('EFGE_ELNO','SIGM_ELNO'))


# calculs supplementaires pour le ferraillage
Solution=CALC_FERRAILLAGE(reuse =Solution,
                   RESULTAT=Solution,
                   TYPE_COMB='ELS',
                   INST=(0.),
                   AFFE  = (
                      _F( GROUP_MA='CALCFER',      ENROBG=0.04, CEQUI=15.E0, SIGM_ACIER=2.3E8, SIGM_BETON=3.5E7),
                      # l'affectation ci-dessous permet de verifier l'usage du mot cle AFFE/MAILLE
                      _F( MAILLE=('M596','M686'),  ENROBG=0.04, CEQUI=15.E0, SIGM_ACIER=2.3E8, SIGM_BETON=3.5E7),
                   ));

#IMPR_RESU(RESU=_F(RESULTAT=Solution, NOM_CHAM='FERRAILLAGE'));


#--------------------------------------------------------------------------------------------
# Tests de validation (source externe) :
#----------------------------------------

TEST_RESU(RESU=(

# nom du point de mesure, nom de la maille, coordonnees du centre de gravite :
#  BC : 'M1115'     7.75, 7.25, 0.0
#  BSO: 'M686'      5.25, 5.25, 0.0
#  BSE: 'M1391'     9.75, 5.25, 0.0
#  BNO: 'M462'      5.25, 9.75, 0.0
#  BNE: 'M596'      9.75, 9.75, 0.0
#
#  VC : 'M562'      10.0, 6.75, 2.25
#  VBN: 'M1113'     10.0, 9.75, 0.25
#  VBS: 'M1373'     10.0, 5.25, 0.25
#  VHN: 'M516'      10.0, 9.75, 4.75
#  VHS: 'M1173'     10.0, 5.25, 4.75



# BC -> M1115 :
   _F(RESULTAT=Solution, INST=0., NOM_CHAM='FERRAILLAGE', REFERENCE='SOURCE_EXTERNE',  POINT=1,
      MAILLE='M1115', NOM_CMP='DNSXI', VALE=0.     ,CRITERE='ABSOLU', PRECISION=6.E-4, ),
   _F(RESULTAT=Solution, INST=0., NOM_CHAM='FERRAILLAGE', REFERENCE='SOURCE_EXTERNE',  POINT=1,
      MAILLE='M1115', NOM_CMP='DNSXS', VALE=6.E-4  ,CRITERE='ABSOLU', PRECISION= 7.E-4 ),
   _F(RESULTAT=Solution, INST=0., NOM_CHAM='FERRAILLAGE', REFERENCE='SOURCE_EXTERNE',  POINT=1,
      MAILLE='M1115', NOM_CMP='DNSYI', VALE=0.     ,CRITERE='ABSOLU', PRECISION=5.E-4, ),
   _F(RESULTAT=Solution, INST=0., NOM_CHAM='FERRAILLAGE', REFERENCE='SOURCE_EXTERNE',  POINT=1,
      MAILLE='M1115', NOM_CMP='DNSYS', VALE=5.E-4  ,CRITERE='ABSOLU', PRECISION= 6.E-4 ),

# BSO -> M686 :
   _F(RESULTAT=Solution, INST=0., NOM_CHAM='FERRAILLAGE', REFERENCE='SOURCE_EXTERNE',  POINT=1,
      MAILLE='M686',  NOM_CMP='DNSXI', VALE=0.     ,CRITERE='ABSOLU', PRECISION=1.E-5, ),
   _F(RESULTAT=Solution, INST=0., NOM_CHAM='FERRAILLAGE', REFERENCE='SOURCE_EXTERNE',  POINT=1,
      MAILLE='M686',  NOM_CMP='DNSXS', VALE=3.E-4  ,CRITERE='ABSOLU', PRECISION= 2.5E-4 ),
   _F(RESULTAT=Solution, INST=0., NOM_CHAM='FERRAILLAGE', REFERENCE='SOURCE_EXTERNE',  POINT=1,
      MAILLE='M686',  NOM_CMP='DNSYI', VALE=0.     ,CRITERE='ABSOLU', PRECISION=1.E-5, ),
   _F(RESULTAT=Solution, INST=0., NOM_CHAM='FERRAILLAGE', REFERENCE='SOURCE_EXTERNE',  POINT=1,
      MAILLE='M686',  NOM_CMP='DNSYS', VALE=3.E-4  ,CRITERE='ABSOLU', PRECISION= 2.3E-4 ),

# BSE -> M1391 :
   _F(RESULTAT=Solution, INST=0., NOM_CHAM='FERRAILLAGE', REFERENCE='SOURCE_EXTERNE',  POINT=1,
      MAILLE='M1391', NOM_CMP='DNSXI', VALE=0.     ,CRITERE='ABSOLU', PRECISION=3.E-4, ),
   _F(RESULTAT=Solution, INST=0., NOM_CHAM='FERRAILLAGE', REFERENCE='SOURCE_EXTERNE',  POINT=1,
      MAILLE='M1391', NOM_CMP='DNSXS', VALE=6.E-4  ,CRITERE='ABSOLU', PRECISION= 5.E-4 ),
   _F(RESULTAT=Solution, INST=0., NOM_CHAM='FERRAILLAGE', REFERENCE='SOURCE_EXTERNE',  POINT=1,
      MAILLE='M1391', NOM_CMP='DNSYI', VALE=1.E-4  ,CRITERE='ABSOLU', PRECISION= 0.6E-4 ),
   _F(RESULTAT=Solution, INST=0., NOM_CHAM='FERRAILLAGE', REFERENCE='SOURCE_EXTERNE',  POINT=1,
      MAILLE='M1391', NOM_CMP='DNSYS', VALE=2.E-4  ,CRITERE='ABSOLU', PRECISION= 0.3E-4 ),

# BNO -> M462 :
   _F(RESULTAT=Solution, INST=0., NOM_CHAM='FERRAILLAGE', REFERENCE='SOURCE_EXTERNE',  POINT=1,
      MAILLE='M462',  NOM_CMP='DNSXI', VALE=1.E-4  ,CRITERE='ABSOLU', PRECISION= 0.6E-4 ),
   _F(RESULTAT=Solution, INST=0., NOM_CHAM='FERRAILLAGE', REFERENCE='SOURCE_EXTERNE',  POINT=1,
      MAILLE='M462',  NOM_CMP='DNSXS', VALE=2.E-4  ,CRITERE='ABSOLU', PRECISION= 0.35E-4 ),
   _F(RESULTAT=Solution, INST=0., NOM_CHAM='FERRAILLAGE', REFERENCE='SOURCE_EXTERNE',  POINT=1,
      MAILLE='M462',  NOM_CMP='DNSYI', VALE=0.     ,CRITERE='ABSOLU', PRECISION=3.E-4, ),
   _F(RESULTAT=Solution, INST=0., NOM_CHAM='FERRAILLAGE', REFERENCE='SOURCE_EXTERNE',  POINT=1,
      MAILLE='M462',  NOM_CMP='DNSYS', VALE=4.E-4  ,CRITERE='ABSOLU', PRECISION= 3E-4 ),

# BNE -> M596 :
   _F(RESULTAT=Solution, INST=0., NOM_CHAM='FERRAILLAGE', REFERENCE='SOURCE_EXTERNE',  POINT=1,
      MAILLE='M596',  NOM_CMP='DNSXI', VALE=3.E-4  ,CRITERE='ABSOLU', PRECISION= 0.71E-4 ),
   _F(RESULTAT=Solution, INST=0., NOM_CHAM='FERRAILLAGE', REFERENCE='SOURCE_EXTERNE',  POINT=1,
      MAILLE='M596',  NOM_CMP='DNSXS', VALE=1.E-4  ,CRITERE='ABSOLU', PRECISION= 2.E-4 ),
   _F(RESULTAT=Solution, INST=0., NOM_CHAM='FERRAILLAGE', REFERENCE='SOURCE_EXTERNE',  POINT=1,
      MAILLE='M596',  NOM_CMP='DNSYI', VALE=2.E-4  ,CRITERE='ABSOLU', PRECISION= 7.E-5 ),
   _F(RESULTAT=Solution, INST=0., NOM_CHAM='FERRAILLAGE', REFERENCE='SOURCE_EXTERNE',  POINT=1,
      MAILLE='M596',  NOM_CMP='DNSYS', VALE=2.E-4  ,CRITERE='ABSOLU', PRECISION= 0.7E-4 ),

# VC -> M562 :
   _F(RESULTAT=Solution, INST=0., NOM_CHAM='FERRAILLAGE', REFERENCE='SOURCE_EXTERNE',  POINT=1,
      MAILLE='M562',  NOM_CMP='DNSXI', VALE=1.E-4  ,CRITERE='ABSOLU', PRECISION= 2.E-5 ),
   _F(RESULTAT=Solution, INST=0., NOM_CHAM='FERRAILLAGE', REFERENCE='SOURCE_EXTERNE',  POINT=1,
      MAILLE='M562',  NOM_CMP='DNSXS', VALE=6.E-4  ,CRITERE='ABSOLU', PRECISION= 6.E-4 ),
   _F(RESULTAT=Solution, INST=0., NOM_CHAM='FERRAILLAGE', REFERENCE='SOURCE_EXTERNE',  POINT=1,
      MAILLE='M562',  NOM_CMP='DNSYI', VALE=0.     ,CRITERE='ABSOLU', PRECISION=1.5E-4, ),
   _F(RESULTAT=Solution, INST=0., NOM_CHAM='FERRAILLAGE', REFERENCE='SOURCE_EXTERNE',  POINT=1,
      MAILLE='M562',  NOM_CMP='DNSYS', VALE=4.E-4  ,CRITERE='ABSOLU', PRECISION= 3.E-4 ),


# VBN -> M1113 :
   _F(RESULTAT=Solution, INST=0., NOM_CHAM='FERRAILLAGE', REFERENCE='SOURCE_EXTERNE',  POINT=1,
      MAILLE='M1113', NOM_CMP='DNSXI', VALE=2.E-4  ,CRITERE='ABSOLU', PRECISION= 1.9E-4 ),
   _F(RESULTAT=Solution, INST=0., NOM_CHAM='FERRAILLAGE', REFERENCE='SOURCE_EXTERNE',  POINT=1,
      MAILLE='M1113', NOM_CMP='DNSXS', VALE=1.E-4  ,CRITERE='ABSOLU', PRECISION= 0.4E-4 ),
   _F(RESULTAT=Solution, INST=0., NOM_CHAM='FERRAILLAGE', REFERENCE='SOURCE_EXTERNE',  POINT=1,
      MAILLE='M1113', NOM_CMP='DNSYI', VALE=2.E-4  ,CRITERE='ABSOLU', PRECISION= 0.8E-4 ),
   _F(RESULTAT=Solution, INST=0., NOM_CHAM='FERRAILLAGE', REFERENCE='SOURCE_EXTERNE',  POINT=1,
      MAILLE='M1113', NOM_CMP='DNSYS', VALE=3.E-4  ,CRITERE='ABSOLU', PRECISION= 4.E-4 ),


# VBS -> M1373 :
   _F(RESULTAT=Solution, INST=0., NOM_CHAM='FERRAILLAGE', REFERENCE='SOURCE_EXTERNE',  POINT=1,
      MAILLE='M1373', NOM_CMP='DNSXI', VALE=1.E-4  ,CRITERE='ABSOLU', PRECISION= 0.6E-4 ),
   _F(RESULTAT=Solution, INST=0., NOM_CHAM='FERRAILLAGE', REFERENCE='SOURCE_EXTERNE',  POINT=1,
      MAILLE='M1373', NOM_CMP='DNSXS', VALE=1.E-4  ,CRITERE='ABSOLU', PRECISION= 1.E-4 ),

   _F(RESULTAT=Solution, INST=0., NOM_CHAM='FERRAILLAGE', REFERENCE='SOURCE_EXTERNE',  POINT=1,
      MAILLE='M1373', NOM_CMP='DNSYI', VALE=0.     ,CRITERE='ABSOLU', PRECISION=3.E-4, ),
   _F(RESULTAT=Solution, INST=0., NOM_CHAM='FERRAILLAGE', REFERENCE='SOURCE_EXTERNE',  POINT=1,
      MAILLE='M1373', NOM_CMP='DNSYS', VALE=0.     ,CRITERE='ABSOLU', PRECISION=2.E-4, ),

# VHN -> M516 :
   _F(RESULTAT=Solution, INST=0., NOM_CHAM='FERRAILLAGE', REFERENCE='SOURCE_EXTERNE',  POINT=1,
      MAILLE='M516',  NOM_CMP='DNSXI', VALE=15.E-4 ,CRITERE='ABSOLU', PRECISION= 2.E-3 ),
   _F(RESULTAT=Solution, INST=0., NOM_CHAM='FERRAILLAGE', REFERENCE='SOURCE_EXTERNE',  POINT=1,
      MAILLE='M516',  NOM_CMP='DNSXS', VALE=0.     ,CRITERE='ABSOLU', PRECISION=6.E-5, ),
   _F(RESULTAT=Solution, INST=0., NOM_CHAM='FERRAILLAGE', REFERENCE='SOURCE_EXTERNE',  POINT=1,
      MAILLE='M516',  NOM_CMP='DNSYI', VALE=1.E-4  ,CRITERE='ABSOLU', PRECISION= 1.5E-4 ),

   _F(RESULTAT=Solution, INST=0., NOM_CHAM='FERRAILLAGE', REFERENCE='SOURCE_EXTERNE',  POINT=1,
      MAILLE='M516',  NOM_CMP='DNSYS', VALE=0.     ,CRITERE='ABSOLU', PRECISION=1.E-5, ),

# VHS -> M1173 :
   _F(RESULTAT=Solution, INST=0., NOM_CHAM='FERRAILLAGE', REFERENCE='SOURCE_EXTERNE',  POINT=1,
      MAILLE='M1173', NOM_CMP='DNSXI', VALE=0.     ,CRITERE='ABSOLU', PRECISION=1.5E-4, ),
   _F(RESULTAT=Solution, INST=0., NOM_CHAM='FERRAILLAGE', REFERENCE='SOURCE_EXTERNE',  POINT=1,
      MAILLE='M1173', NOM_CMP='DNSXS', VALE=9.E-4  ,CRITERE='ABSOLU', PRECISION= 8.E-4 ),
   _F(RESULTAT=Solution, INST=0., NOM_CHAM='FERRAILLAGE', REFERENCE='SOURCE_EXTERNE',  POINT=1,
      MAILLE='M1173', NOM_CMP='DNSYI', VALE=0.     ,CRITERE='ABSOLU', PRECISION=1.E-5, ),
   _F(RESULTAT=Solution, INST=0., NOM_CHAM='FERRAILLAGE', REFERENCE='SOURCE_EXTERNE',  POINT=1,
      MAILLE='M1173', NOM_CMP='DNSYS', VALE=0.     ,CRITERE='ABSOLU', PRECISION=0.1E-4, ),

  ))


#----------------------------------------------------------------------------------------------------
# Tests de non-regression :
#--------------------------

TEST_RESU(RESU=(

# BC -> M1115 :
   _F(RESULTAT=Solution, INST=0., NOM_CHAM='FERRAILLAGE', REFERENCE='NON_REGRESSION',  POINT=1,
      MAILLE='M1115', NOM_CMP='DNSXI', VALE=       5.1502367387158E-04                     ,CRITERE='ABSOLU', PRECISION=1.E-5, ),
   _F(RESULTAT=Solution, INST=0., NOM_CHAM='FERRAILLAGE', REFERENCE='NON_REGRESSION',  POINT=1,
      MAILLE='M1115', NOM_CMP='DNSXS', VALE=       0.0E+00        ,CRITERE='ABSOLU', PRECISION=1.E-5, ),
   _F(RESULTAT=Solution, INST=0., NOM_CHAM='FERRAILLAGE', REFERENCE='NON_REGRESSION',  POINT=1,
      MAILLE='M1115', NOM_CMP='DNSYI', VALE=       4.6182628235905E-04                     ,CRITERE='ABSOLU', PRECISION=1.E-5, ),
   _F(RESULTAT=Solution, INST=0., NOM_CHAM='FERRAILLAGE', REFERENCE='NON_REGRESSION',  POINT=1,
      MAILLE='M1115', NOM_CMP='DNSYS', VALE=       0.0E+00            ,CRITERE='ABSOLU', PRECISION=1.E-5, ),

# BSO -> M686 :
   _F(RESULTAT=Solution, INST=0., NOM_CHAM='FERRAILLAGE', REFERENCE='NON_REGRESSION',  POINT=1,
      MAILLE='M686',  NOM_CMP='DNSXI', VALE=       0.0E+00                     ,CRITERE='ABSOLU', PRECISION=1.E-5, ),
   _F(RESULTAT=Solution, INST=0., NOM_CHAM='FERRAILLAGE', REFERENCE='NON_REGRESSION',  POINT=1,
      MAILLE='M686',  NOM_CMP='DNSXS', VALE=       1.0304140902115E-04                ,CRITERE='RELATIF', PRECISION=1.E-5, ),
   _F(RESULTAT=Solution, INST=0., NOM_CHAM='FERRAILLAGE', REFERENCE='NON_REGRESSION',  POINT=1,
      MAILLE='M686',  NOM_CMP='DNSYI', VALE=       0.0E+00                     ,CRITERE='ABSOLU', PRECISION=1.E-5, ),
   _F(RESULTAT=Solution, INST=0., NOM_CHAM='FERRAILLAGE', REFERENCE='NON_REGRESSION',  POINT=1,
      MAILLE='M686',  NOM_CMP='DNSYS', VALE=       1.0627553966579E-04              ,CRITERE='RELATIF', PRECISION=1.E-5, ),

# BSE -> M1391 :
   _F(RESULTAT=Solution, INST=0., NOM_CHAM='FERRAILLAGE', REFERENCE='NON_REGRESSION',  POINT=1,
      MAILLE='M1391', NOM_CMP='DNSXI', VALE=       2.1351914545079E-04                     ,CRITERE='ABSOLU', PRECISION=1.E-5, ),
   _F(RESULTAT=Solution, INST=0., NOM_CHAM='FERRAILLAGE', REFERENCE='NON_REGRESSION',  POINT=1,
      MAILLE='M1391', NOM_CMP='DNSXS', VALE=       1.1084907428098E-04               ,CRITERE='RELATIF', PRECISION=1.E-5, ),
   _F(RESULTAT=Solution, INST=0., NOM_CHAM='FERRAILLAGE', REFERENCE='NON_REGRESSION',  POINT=1,
      MAILLE='M1391', NOM_CMP='DNSYI', VALE=       1.2786907547974E-04          ,CRITERE='RELATIF', PRECISION=1.E-5, ),
   _F(RESULTAT=Solution, INST=0., NOM_CHAM='FERRAILLAGE', REFERENCE='NON_REGRESSION',  POINT=1,
      MAILLE='M1391', NOM_CMP='DNSYS', VALE=       2.0962160667287E-04               ,CRITERE='RELATIF', PRECISION=1.E-5, ),

# BNO -> M462 :
   _F(RESULTAT=Solution, INST=0., NOM_CHAM='FERRAILLAGE', REFERENCE='NON_REGRESSION',  POINT=1,
      MAILLE='M462',  NOM_CMP='DNSXI', VALE=       1.041568423435E-04          ,CRITERE='RELATIF', PRECISION=1.E-5, ),
   _F(RESULTAT=Solution, INST=0., NOM_CHAM='FERRAILLAGE', REFERENCE='NON_REGRESSION',  POINT=1,
      MAILLE='M462',  NOM_CMP='DNSXS', VALE=       1.6899729305566E-04               ,CRITERE='RELATIF', PRECISION=1.E-5, ),
   _F(RESULTAT=Solution, INST=0., NOM_CHAM='FERRAILLAGE', REFERENCE='NON_REGRESSION',  POINT=1,
      MAILLE='M462',  NOM_CMP='DNSYI', VALE=       2.3723137858715E-04                     ,CRITERE='ABSOLU', PRECISION=1.E-5, ),
   _F(RESULTAT=Solution, INST=0., NOM_CHAM='FERRAILLAGE', REFERENCE='NON_REGRESSION',  POINT=1,
      MAILLE='M462',  NOM_CMP='DNSYS', VALE=       1.5147338789838E-04               ,CRITERE='RELATIF', PRECISION=1.E-5, ),

# BNE -> M596 :
   _F(RESULTAT=Solution, INST=0., NOM_CHAM='FERRAILLAGE', REFERENCE='NON_REGRESSION',  POINT=1,
      MAILLE='M596',  NOM_CMP='DNSXI', VALE=       2.2948539465674E-04              ,CRITERE='RELATIF', PRECISION=1.E-5, ),
   _F(RESULTAT=Solution, INST=0., NOM_CHAM='FERRAILLAGE', REFERENCE='NON_REGRESSION',  POINT=1,
      MAILLE='M596',  NOM_CMP='DNSXS', VALE=       2.2343129568703E-04         ,CRITERE='RELATIF', PRECISION=1.E-5, ),
   _F(RESULTAT=Solution, INST=0., NOM_CHAM='FERRAILLAGE', REFERENCE='NON_REGRESSION',  POINT=1,
      MAILLE='M596',  NOM_CMP='DNSYI', VALE=       2.6548239146802E-04             ,CRITERE='RELATIF', PRECISION=1.E-5, ),
   _F(RESULTAT=Solution, INST=0., NOM_CHAM='FERRAILLAGE', REFERENCE='NON_REGRESSION',  POINT=1,
      MAILLE='M596',  NOM_CMP='DNSYS', VALE=       2.456187294793E-04               ,CRITERE='RELATIF', PRECISION=1.E-5, ),

# VC -> M562 :
   _F(RESULTAT=Solution, INST=0., NOM_CHAM='FERRAILLAGE', REFERENCE='NON_REGRESSION',  POINT=1,
      MAILLE='M562',  NOM_CMP='DNSXI', VALE=       8.4606256204147E-05                     ,CRITERE='RELATIF', PRECISION=1.E-5, ),
   _F(RESULTAT=Solution, INST=0., NOM_CHAM='FERRAILLAGE', REFERENCE='NON_REGRESSION',  POINT=1,
      MAILLE='M562',  NOM_CMP='DNSXS', VALE=       2.0391129852765E-05             ,CRITERE='RELATIF', PRECISION=1.E-5, ),
   _F(RESULTAT=Solution, INST=0., NOM_CHAM='FERRAILLAGE', REFERENCE='NON_REGRESSION',  POINT=1,
      MAILLE='M562',  NOM_CMP='DNSYI', VALE=       1.0670166558884E-04                    ,CRITERE='ABSOLU', PRECISION=1.E-5, ),
   _F(RESULTAT=Solution, INST=0., NOM_CHAM='FERRAILLAGE', REFERENCE='NON_REGRESSION',  POINT=1,
      MAILLE='M562',  NOM_CMP='DNSYS', VALE=       1.2378640037607E-04                  ,CRITERE='RELATIF', PRECISION=1.E-5, ),

# VBN -> M1113 :
   _F(RESULTAT=Solution, INST=0., NOM_CHAM='FERRAILLAGE', REFERENCE='NON_REGRESSION',  POINT=1,
      MAILLE='M1113', NOM_CMP='DNSXI', VALE=       1.2594197364391E-05           ,CRITERE='RELATIF', PRECISION=1.E-5, ),
   _F(RESULTAT=Solution, INST=0., NOM_CHAM='FERRAILLAGE', REFERENCE='NON_REGRESSION',  POINT=1,
      MAILLE='M1113', NOM_CMP='DNSXS', VALE=       7.145239328942E-05              ,CRITERE='RELATIF', PRECISION=1.E-5, ),
   _F(RESULTAT=Solution, INST=0., NOM_CHAM='FERRAILLAGE', REFERENCE='NON_REGRESSION',  POINT=1,
      MAILLE='M1113', NOM_CMP='DNSYI', VALE=       1.2901205462545E-04           ,CRITERE='RELATIF', PRECISION=1.E-5, ),
   _F(RESULTAT=Solution, INST=0., NOM_CHAM='FERRAILLAGE', REFERENCE='NON_REGRESSION',  POINT=1,
      MAILLE='M1113', NOM_CMP='DNSYS', VALE=       0.0E+00                 ,CRITERE='ABSOLU', PRECISION=1.E-5, ),

# VBS -> M1373 :
   _F(RESULTAT=Solution, INST=0., NOM_CHAM='FERRAILLAGE', REFERENCE='NON_REGRESSION',  POINT=1,
      MAILLE='M1373', NOM_CMP='DNSXI', VALE=       1.5342313901744E-04          ,CRITERE='RELATIF', PRECISION=1.E-5, ),
   _F(RESULTAT=Solution, INST=0., NOM_CHAM='FERRAILLAGE', REFERENCE='NON_REGRESSION',  POINT=1,
      MAILLE='M1373', NOM_CMP='DNSXS', VALE=       7.0070555174078E-06            ,CRITERE='RELATIF', PRECISION=1.E-5, ),
   _F(RESULTAT=Solution, INST=0., NOM_CHAM='FERRAILLAGE', REFERENCE='NON_REGRESSION',  POINT=1,
      MAILLE='M1373', NOM_CMP='DNSYI', VALE=       2.8867383588046E-04                     ,CRITERE='RELATIF', PRECISION=1.E-5, ),
   _F(RESULTAT=Solution, INST=0., NOM_CHAM='FERRAILLAGE', REFERENCE='NON_REGRESSION',  POINT=1,
      MAILLE='M1373', NOM_CMP='DNSYS', VALE=       1.0847871172476E-04                     ,CRITERE='RELATIF', PRECISION=1.E-5, ),

# VHN -> M516 :
   _F(RESULTAT=Solution, INST=0., NOM_CHAM='FERRAILLAGE', REFERENCE='NON_REGRESSION',  POINT=1,
      MAILLE='M516',  NOM_CMP='DNSXI', VALE=       0.0E+00             ,CRITERE='ABSOLU', PRECISION=1.E-5, ),
   _F(RESULTAT=Solution, INST=0., NOM_CHAM='FERRAILLAGE', REFERENCE='NON_REGRESSION',  POINT=1,
      MAILLE='M516',  NOM_CMP='DNSXS', VALE=       5.6784579475186E-05                     ,CRITERE='RELATIF', PRECISION=1.E-5, ),
   _F(RESULTAT=Solution, INST=0., NOM_CHAM='FERRAILLAGE', REFERENCE='NON_REGRESSION',  POINT=1,
      MAILLE='M516',  NOM_CMP='DNSYI', VALE=       0.0E+00              ,CRITERE='ABSOLU', PRECISION=1.E-5, ),
   _F(RESULTAT=Solution, INST=0., NOM_CHAM='FERRAILLAGE', REFERENCE='NON_REGRESSION',  POINT=1,
      MAILLE='M516',  NOM_CMP='DNSYS', VALE=       0.0E+00                     ,CRITERE='ABSOLU', PRECISION=1.E-5, ),

# VHS -> M1173 :
   _F(RESULTAT=Solution, INST=0., NOM_CHAM='FERRAILLAGE', REFERENCE='NON_REGRESSION',  POINT=1,
      MAILLE='M1173', NOM_CMP='DNSXI', VALE=       1.1506194984942E-04                     ,CRITERE='RELATIF', PRECISION=1.E-5, ),
   _F(RESULTAT=Solution, INST=0., NOM_CHAM='FERRAILLAGE', REFERENCE='NON_REGRESSION',  POINT=1,
      MAILLE='M1173', NOM_CMP='DNSXS', VALE=       1.2984553266341E-04         ,CRITERE='RELATIF', PRECISION=1.E-5, ),
   _F(RESULTAT=Solution, INST=0., NOM_CHAM='FERRAILLAGE', REFERENCE='NON_REGRESSION',  POINT=1,
      MAILLE='M1173', NOM_CMP='DNSYI', VALE=       0.0E+00                     ,CRITERE='ABSOLU', PRECISION=1.E-5, ),
   _F(RESULTAT=Solution, INST=0., NOM_CHAM='FERRAILLAGE', REFERENCE='NON_REGRESSION',  POINT=1,
      MAILLE='M1173', NOM_CMP='DNSYS', VALE=       6.92846336696773E-06        ,CRITERE='ABSOLU', PRECISION=1.E-5, ),
))


# Pour tester que l'on sait recuperer le champ des "max" temporels:
FERMAX=CREA_CHAMP(  OPERATION='EXTR', TYPE_CHAM='ELEM_FER2_R', INFO=1,
                     NOM_CHAM='FERRAILLAGE', RESULTAT=Solution,
                     TYPE_MAXI='MAXI_ABS', TYPE_RESU='VALE',
                        )
TEST_RESU(CHAM_ELEM=(

# BC -> M1115 :
   _F(CHAM_GD=FERMAX,  REFERENCE='NON_REGRESSION',  POINT=1,
      MAILLE='M1115', NOM_CMP='DNSXI', VALE=       5.1502367387158E-04                     ,CRITERE='RELATIF', PRECISION=1.E-5, ),
   _F(CHAM_GD=FERMAX,  REFERENCE='NON_REGRESSION',  POINT=1,
      MAILLE='M1115', NOM_CMP='DNSXS', VALE=       0.0E+00        ,CRITERE='ABSOLU', PRECISION=1.E-5, ),
   _F(CHAM_GD=FERMAX,  REFERENCE='NON_REGRESSION',  POINT=1,
      MAILLE='M1115', NOM_CMP='DNSYI', VALE=       4.6182628235905E-04                     ,CRITERE='RELATIF', PRECISION=1.E-5, ),
   _F(CHAM_GD=FERMAX,  REFERENCE='NON_REGRESSION',  POINT=1,
      MAILLE='M1115', NOM_CMP='DNSYS', VALE=       0.0E+00            ,CRITERE='ABSOLU', PRECISION=1.E-5, ),
))



FIN();

