# TITRE  PLAQUE CARREE EN APPUI SIMPLE SOUS PRESSION SINUSOIDALE
# ======================================================================
# COPYRIGHT (C) 1991 - 2012  EDF R&D                  WWW.CODE-ASTER.ORG
# THIS PROGRAM IS FREE SOFTWARE; YOU CAN REDISTRIBUTE IT AND/OR MODIFY
# IT UNDER THE TERMS OF THE GNU GENERAL PUBLIC LICENSE AS PUBLISHED BY
# THE FREE SOFTWARE FOUNDATION; EITHER VERSION 2 OF THE LICENSE, OR
# (AT YOUR OPTION) ANY LATER VERSION.
#
# THIS PROGRAM IS DISTRIBUTED IN THE HOPE THAT IT WILL BE USEFUL, BUT
# WITHOUT ANY WARRANTY; WITHOUT EVEN THE IMPLIED WARRANTY OF
# MERCHANTABILITY OR FITNESS FOR A PARTICULAR PURPOSE. SEE THE GNU
# GENERAL PUBLIC LICENSE FOR MORE DETAILS.
#
# YOU SHOULD HAVE RECEIVED A COPY OF THE GNU GENERAL PUBLIC LICENSE
# ALONG WITH THIS PROGRAM; IF NOT, WRITE TO EDF R&D CODE_ASTER,
#    1 AVENUE DU GENERAL DE GAULLE, 92141 CLAMART CEDEX, FRANCE.
# ======================================================================
#---------------------------------------------------------------------
#         - MODELISATION AVEC DES ELEMENTS 'Q4G'(QUA4)
#---------------------------------------------------------------------

DEBUT(CODE=_F(NIV_PUB_WEB='INTERNET'),DEBUG=_F(SDVERI='OUI'))

MA=LIRE_MAILLAGE(FORMAT='MED',);

MA=DEFI_GROUP(reuse =MA,
              MAILLAGE=MA,
              CREA_GROUP_MA=_F(NOM='TOUT',
                               TOUT='OUI',),
              CREA_GROUP_NO=(_F(GROUP_MA='AB',),
                             _F(GROUP_MA='BC',),
                             _F(GROUP_MA='CD',),
                             _F(GROUP_MA='DA',),),);

MO=AFFE_MODELE(MAILLAGE=MA,
               AFFE=_F(TOUT='OUI',
                       PHENOMENE='MECANIQUE',
                       MODELISATION='Q4G',),);

CAR_ELE=AFFE_CARA_ELEM(MODELE=MO,
                       COQUE=_F(GROUP_MA='TOUT',
                                EPAIS=0.1,
                                ANGL_REP=(0.0,0.0,),),);

MAT=DEFI_MATERIAU(ELAS=_F(E=25.0,
                          NU=0.25,),);

CHAM_MAT=AFFE_MATERIAU(MAILLAGE=MA,
                       AFFE=_F(TOUT='OUI',
                               MATER=MAT,),);
PO = 1.0;


P = FORMULE(NOM_PARA=('X','Y'),VALE='PO*sin(pi*X)*sin(pi*Y)');

CHA=AFFE_CHAR_MECA(MODELE=MO,
                   DDL_IMPO=(_F(GROUP_NO='O',
                                DX=0.0,
                                DY=0.0,
                                DRX=0.0,
                                DRY=0.0,
                                DRZ=0.0,),
                             _F(GROUP_NO='AB',
                                DX=0.0,
                                DZ=0.0,
                                DRY=0.0,),
                             _F(GROUP_NO='BC',
                                DY=0.0,
                                DZ=0.0,
                                DRX=0.0,),
                             _F(GROUP_NO='CD',
                                DX=0.0,
                                DZ=0.0,
                                DRY=0.0,),
                             _F(GROUP_NO='DA',
                                DY=0.0,
                                DZ=0.0,
                                DRX=0.0,),),
                   FORCE_ARETE=(_F(GROUP_MA='AB',
                                   MY=0.0,),
                                _F(GROUP_MA='CD',
                                   MY=0.0,),
                                _F(GROUP_MA='BC',
                                   MX=0.0,),
                                _F(GROUP_MA='DA',
                                   MX=0.0,),),);

CHA_P=AFFE_CHAR_MECA_F(MODELE=MO,
                       FORCE_COQUE=_F(GROUP_MA='MAIL1',
                                      PRES=P,),);

RESU=MECA_STATIQUE(MODELE=MO,
                   CHAM_MATER=CHAM_MAT,
                   CARA_ELEM=CAR_ELE,
                   EXCIT=(_F(CHARGE=CHA,),
                          _F(CHARGE=CHA_P,),),);

RESU=CALC_CHAMP(reuse=RESU,RESULTAT=RESU,CONTRAINTE=('SIGM_ELNO'))


SIG_C1_S=POST_CHAMP(RESULTAT=RESU,
                     EXTR_COQUE=_F(NOM_CHAM='SIGM_ELNO',
                                   NUME_COUCHE=1,
                                   NIVE_COUCHE='SUP',),);
SIG_C1_M=POST_CHAMP(RESULTAT=RESU,
                     EXTR_COQUE=_F(NOM_CHAM='SIGM_ELNO',
                                   NUME_COUCHE=1,
                                   NIVE_COUCHE='MOY',),);
SIG_C1_I=POST_CHAMP(RESULTAT=RESU,
                     EXTR_COQUE=_F(NOM_CHAM='SIGM_ELNO',
                                   NUME_COUCHE=1,
                                   NIVE_COUCHE='INF',),);
EFF=CALC_CHAMP(RESULTAT=RESU,CONTRAINTE=('EFGE_ELNO'))


TEST_RESU(RESU=(_F(NUME_ORDRE=1,
                   GROUP_NO='O',
                   REFERENCE='ANALYTIQUE',
                   RESULTAT=RESU,
                   NOM_CHAM='DEPL',
                   NOM_CMP='DZ',
                   VALE_CALC=-1.214586726,
                   VALE_REFE=-1.1549229999999999,
                   PRECISION=0.051999999999999998,),
                _F(NUME_ORDRE=1,
                   GROUP_NO='O',
                   REFERENCE='ANALYTIQUE',
                   RESULTAT=SIG_C1_I,
                   NOM_CHAM='SIGM_ELNO',
                   NOM_CMP='SIXX',
                   VALE_CALC=18.972733252,
                   VALE_REFE=18.997199999999999,
                   PRECISION=1.E-2,
                   MAILLE='M1176',),
                _F(NUME_ORDRE=1,
                   GROUP_NO='O',
                   REFERENCE='ANALYTIQUE',
                   RESULTAT=SIG_C1_I,
                   NOM_CHAM='SIGM_ELNO',
                   NOM_CMP='SIYY',
                   VALE_CALC=18.972733252,
                   VALE_REFE=18.997199999999999,
                   PRECISION=1.E-2,
                   MAILLE='M1176',),
                _F(NUME_ORDRE=1,
                   GROUP_NO='O',
                   REFERENCE='ANALYTIQUE',
                   RESULTAT=SIG_C1_I,
                   NOM_CHAM='SIGM_ELNO',
                   NOM_CMP='SIXY',
                   VALE_CALC=-2.15551882E-12,
                   VALE_REFE=0.0,
                   CRITERE='ABSOLU',
                   PRECISION=1.E-2,
                   MAILLE='M1176',),
                _F(NUME_ORDRE=1,
                   GROUP_NO='O',
                   REFERENCE='ANALYTIQUE',
                   RESULTAT=SIG_C1_I,
                   NOM_CHAM='SIGM_ELNO',
                   NOM_CMP='SIXZ',
                   VALE_CALC= 0.00000000E+00,
                   VALE_REFE=0.0,
                   CRITERE='ABSOLU',
                   PRECISION=1.E-2,
                   MAILLE='M1176',),
                _F(NUME_ORDRE=1,
                   GROUP_NO='O',
                   REFERENCE='ANALYTIQUE',
                   RESULTAT=SIG_C1_I,
                   NOM_CHAM='SIGM_ELNO',
                   NOM_CMP='SIYZ',
                   VALE_CALC= 0.00000000E+00,
                   VALE_REFE=0.0,
                   CRITERE='ABSOLU',
                   PRECISION=1.E-2,
                   MAILLE='M1176',),
                _F(NUME_ORDRE=1,
                   GROUP_NO='O',
                   REFERENCE='ANALYTIQUE',
                   RESULTAT=SIG_C1_M,
                   NOM_CHAM='SIGM_ELNO',
                   NOM_CMP='SIXX',
                   VALE_CALC= 0.00000000E+00,
                   VALE_REFE=0.0,
                   CRITERE='ABSOLU',
                   PRECISION=1.E-2,
                   MAILLE='M1176',),
                _F(NUME_ORDRE=1,
                   GROUP_NO='O',
                   REFERENCE='ANALYTIQUE',
                   RESULTAT=SIG_C1_M,
                   NOM_CHAM='SIGM_ELNO',
                   NOM_CMP='SIYY',
                   VALE_CALC= 0.00000000E+00,
                   VALE_REFE=0.0,
                   CRITERE='ABSOLU',
                   PRECISION=1.E-2,
                   MAILLE='M1176',),
                _F(NUME_ORDRE=1,
                   GROUP_NO='O',
                   REFERENCE='ANALYTIQUE',
                   RESULTAT=SIG_C1_M,
                   NOM_CHAM='SIGM_ELNO',
                   NOM_CMP='SIXY',
                   VALE_CALC= 0.00000000E+00,
                   VALE_REFE=0.0,
                   CRITERE='ABSOLU',
                   PRECISION=1.E-2,
                   MAILLE='M1176',),
                _F(NUME_ORDRE=1,
                   GROUP_NO='O',
                   REFERENCE='ANALYTIQUE',
                   RESULTAT=SIG_C1_M,
                   NOM_CHAM='SIGM_ELNO',
                   NOM_CMP='SIXZ',
                   VALE_CALC=-0.078069263,
                   VALE_REFE=0.0,
                   CRITERE='ABSOLU',
                   PRECISION=0.31,
                   MAILLE='M1176',),
                _F(NUME_ORDRE=1,
                   GROUP_NO='O',
                   REFERENCE='ANALYTIQUE',
                   RESULTAT=SIG_C1_M,
                   NOM_CHAM='SIGM_ELNO',
                   NOM_CMP='SIYZ',
                   VALE_CALC=0.078069263,
                   VALE_REFE=0.0,
                   CRITERE='ABSOLU',
                   PRECISION=0.31,
                   MAILLE='M1176',),
                _F(NUME_ORDRE=1,
                   GROUP_NO='O',
                   REFERENCE='ANALYTIQUE',
                   RESULTAT=SIG_C1_S,
                   NOM_CHAM='SIGM_ELNO',
                   NOM_CMP='SIXX',
                   VALE_CALC=-18.972733252,
                   VALE_REFE=-18.997199999999999,
                   PRECISION=1.E-2,
                   MAILLE='M1176',),
                _F(NUME_ORDRE=1,
                   GROUP_NO='O',
                   REFERENCE='ANALYTIQUE',
                   RESULTAT=SIG_C1_S,
                   NOM_CHAM='SIGM_ELNO',
                   NOM_CMP='SIYY',
                   VALE_CALC=-18.972733252,
                   VALE_REFE=-18.997199999999999,
                   PRECISION=1.E-2,
                   MAILLE='M1176',),
                _F(NUME_ORDRE=1,
                   GROUP_NO='O',
                   REFERENCE='ANALYTIQUE',
                   RESULTAT=SIG_C1_S,
                   NOM_CHAM='SIGM_ELNO',
                   NOM_CMP='SIXY',
                   VALE_CALC= 2.15551882E-12,
                   VALE_REFE=0.0,
                   CRITERE='ABSOLU',
                   PRECISION=1.E-2,
                   MAILLE='M1176',),
                _F(NUME_ORDRE=1,
                   GROUP_NO='O',
                   REFERENCE='ANALYTIQUE',
                   RESULTAT=SIG_C1_S,
                   NOM_CHAM='SIGM_ELNO',
                   NOM_CMP='SIXZ',
                   VALE_CALC= 0.00000000E+00,
                   VALE_REFE=0.0,
                   CRITERE='ABSOLU',
                   PRECISION=1.E-2,
                   MAILLE='M1176',),
                _F(NUME_ORDRE=1,
                   GROUP_NO='O',
                   REFERENCE='ANALYTIQUE',
                   RESULTAT=SIG_C1_S,
                   NOM_CHAM='SIGM_ELNO',
                   NOM_CMP='SIYZ',
                   VALE_CALC= 0.00000000E+00,
                   VALE_REFE=0.0,
                   CRITERE='ABSOLU',
                   PRECISION=1.E-2,
                   MAILLE='M1176',),
                _F(NUME_ORDRE=1,
                   GROUP_NO='B1',
                   REFERENCE='ANALYTIQUE',
                   RESULTAT=SIG_C1_I,
                   NOM_CHAM='SIGM_ELNO',
                   NOM_CMP='SIXX',
                   VALE_CALC=0.124220595,
                   VALE_REFE=0.0,
                   CRITERE='ABSOLU',
                   PRECISION=0.69999999999999996,
                   MAILLE='M24',),
                _F(NUME_ORDRE=1,
                   GROUP_NO='B1',
                   REFERENCE='ANALYTIQUE',
                   RESULTAT=SIG_C1_I,
                   NOM_CHAM='SIGM_ELNO',
                   NOM_CMP='SIYY',
                   VALE_CALC=0.496882382,
                   VALE_REFE=0.0,
                   CRITERE='ABSOLU',
                   PRECISION=0.69999999999999996,
                   MAILLE='M24',),
                _F(NUME_ORDRE=1,
                   GROUP_NO='B1',
                   REFERENCE='ANALYTIQUE',
                   RESULTAT=SIG_C1_I,
                   NOM_CHAM='SIGM_ELNO',
                   NOM_CMP='SIXY',
                   VALE_CALC=-0.186330893,
                   VALE_REFE=0.0,
                   CRITERE='ABSOLU',
                   PRECISION=0.73999999999999999,
                   MAILLE='M24',),
                _F(NUME_ORDRE=1,
                   GROUP_NO='B1',
                   REFERENCE='ANALYTIQUE',
                   RESULTAT=SIG_C1_I,
                   NOM_CHAM='SIGM_ELNO',
                   NOM_CMP='SIXZ',
                   VALE_CALC= 0.00000000E+00,
                   VALE_REFE=0.0,
                   CRITERE='ABSOLU',
                   PRECISION=1.E-2,
                   MAILLE='M24',),
                _F(NUME_ORDRE=1,
                   GROUP_NO='B1',
                   REFERENCE='ANALYTIQUE',
                   RESULTAT=SIG_C1_I,
                   NOM_CHAM='SIGM_ELNO',
                   NOM_CMP='SIYZ',
                   VALE_CALC= 0.00000000E+00,
                   VALE_REFE=0.0,
                   CRITERE='ABSOLU',
                   PRECISION=1.E-2,
                   MAILLE='M24',),
                _F(NUME_ORDRE=1,
                   GROUP_NO='B1',
                   REFERENCE='ANALYTIQUE',
                   RESULTAT=SIG_C1_M,
                   NOM_CHAM='SIGM_ELNO',
                   NOM_CMP='SIXX',
                   VALE_CALC= 0.00000000E+00,
                   VALE_REFE=0.0,
                   CRITERE='ABSOLU',
                   PRECISION=1.E-2,
                   MAILLE='M24',),
                _F(NUME_ORDRE=1,
                   GROUP_NO='B1',
                   REFERENCE='ANALYTIQUE',
                   RESULTAT=SIG_C1_M,
                   NOM_CHAM='SIGM_ELNO',
                   NOM_CMP='SIYY',
                   VALE_CALC= 0.00000000E+00,
                   VALE_REFE=0.0,
                   CRITERE='ABSOLU',
                   PRECISION=1.E-2,
                   MAILLE='M24',),
                _F(NUME_ORDRE=1,
                   GROUP_NO='B1',
                   REFERENCE='ANALYTIQUE',
                   RESULTAT=SIG_C1_M,
                   NOM_CHAM='SIGM_ELNO',
                   NOM_CMP='SIXY',
                   VALE_CALC= 0.00000000E+00,
                   VALE_REFE=0.0,
                   CRITERE='ABSOLU',
                   PRECISION=1.E-2,
                   MAILLE='M24',),
                _F(NUME_ORDRE=1,
                   GROUP_NO='B1',
                   REFERENCE='ANALYTIQUE',
                   RESULTAT=SIG_C1_M,
                   NOM_CHAM='SIGM_ELNO',
                   NOM_CMP='SIXZ',
                   VALE_CALC= 3.58816709E-15,
                   VALE_REFE=0.0,
                   CRITERE='ABSOLU',
                   PRECISION=0.26000000000000001,
                   MAILLE='M24',),
                _F(NUME_ORDRE=1,
                   GROUP_NO='B1',
                   REFERENCE='ANALYTIQUE',
                   RESULTAT=SIG_C1_M,
                   NOM_CHAM='SIGM_ELNO',
                   NOM_CMP='SIYZ',
                   VALE_CALC=-2.384769276,
                   VALE_REFE=-2.3873000000000002,
                   PRECISION=0.032000000000000001,
                   MAILLE='M24',),
                _F(NUME_ORDRE=1,
                   GROUP_NO='B1',
                   REFERENCE='ANALYTIQUE',
                   RESULTAT=SIG_C1_S,
                   NOM_CHAM='SIGM_ELNO',
                   NOM_CMP='SIXX',
                   VALE_CALC=-0.124220595,
                   VALE_REFE=0.0,
                   CRITERE='ABSOLU',
                   PRECISION=0.69999999999999996,
                   MAILLE='M24',),
                _F(NUME_ORDRE=1,
                   GROUP_NO='B1',
                   REFERENCE='ANALYTIQUE',
                   RESULTAT=SIG_C1_S,
                   NOM_CHAM='SIGM_ELNO',
                   NOM_CMP='SIYY',
                   VALE_CALC=-0.496882382,
                   VALE_REFE=0.0,
                   CRITERE='ABSOLU',
                   PRECISION=0.69999999999999996,
                   MAILLE='M24',),
                _F(NUME_ORDRE=1,
                   GROUP_NO='B1',
                   REFERENCE='ANALYTIQUE',
                   RESULTAT=SIG_C1_S,
                   NOM_CHAM='SIGM_ELNO',
                   NOM_CMP='SIXY',
                   VALE_CALC=0.186330893,
                   VALE_REFE=0.0,
                   CRITERE='ABSOLU',
                   PRECISION=0.73999999999999999,
                   MAILLE='M24',),
                _F(NUME_ORDRE=1,
                   GROUP_NO='B1',
                   REFERENCE='ANALYTIQUE',
                   RESULTAT=SIG_C1_S,
                   NOM_CHAM='SIGM_ELNO',
                   NOM_CMP='SIXZ',
                   VALE_CALC= 0.00000000E+00,
                   VALE_REFE=0.0,
                   CRITERE='ABSOLU',
                   PRECISION=1.E-2,
                   MAILLE='M24',),
                _F(NUME_ORDRE=1,
                   GROUP_NO='B1',
                   REFERENCE='ANALYTIQUE',
                   RESULTAT=SIG_C1_S,
                   NOM_CHAM='SIGM_ELNO',
                   NOM_CMP='SIYZ',
                   VALE_CALC= 0.00000000E+00,
                   VALE_REFE=0.0,
                   CRITERE='ABSOLU',
                   PRECISION=1.E-2,
                   MAILLE='M24',),
                _F(NUME_ORDRE=1,
                   GROUP_NO='O',
                   REFERENCE='ANALYTIQUE',
                   RESULTAT=EFF,
                   NOM_CHAM='EFGE_ELNO',
                   NOM_CMP='NXX',
                   VALE_CALC= 0.00000000E+00,
                   VALE_REFE=0.0,
                   CRITERE='ABSOLU',
                   PRECISION=1.E-2,
                   MAILLE='M1176',),
                _F(NUME_ORDRE=1,
                   GROUP_NO='O',
                   REFERENCE='ANALYTIQUE',
                   RESULTAT=EFF,
                   NOM_CHAM='EFGE_ELNO',
                   NOM_CMP='NYY',
                   VALE_CALC= 0.00000000E+00,
                   VALE_REFE=0.0,
                   CRITERE='ABSOLU',
                   PRECISION=1.E-2,
                   MAILLE='M1176',),
                _F(NUME_ORDRE=1,
                   GROUP_NO='O',
                   REFERENCE='ANALYTIQUE',
                   RESULTAT=EFF,
                   NOM_CHAM='EFGE_ELNO',
                   NOM_CMP='NXY',
                   VALE_CALC= 0.00000000E+00,
                   VALE_REFE=0.0,
                   CRITERE='ABSOLU',
                   PRECISION=1.E-2,
                   MAILLE='M1176',),
                _F(NUME_ORDRE=1,
                   GROUP_NO='O',
                   REFERENCE='ANALYTIQUE',
                   RESULTAT=EFF,
                   NOM_CHAM='EFGE_ELNO',
                   NOM_CMP='MXX',
                   VALE_CALC=-0.031621222,
                   VALE_REFE=-0.031662900000000001,
                   PRECISION=1.E-2,
                   MAILLE='M1176',),
                _F(NUME_ORDRE=1,
                   GROUP_NO='O',
                   REFERENCE='ANALYTIQUE',
                   RESULTAT=EFF,
                   NOM_CHAM='EFGE_ELNO',
                   NOM_CMP='MYY',
                   VALE_CALC=-0.031621222,
                   VALE_REFE=-0.031662900000000001,
                   PRECISION=1.E-2,
                   MAILLE='M1176',),
                _F(NUME_ORDRE=1,
                   GROUP_NO='O',
                   REFERENCE='ANALYTIQUE',
                   RESULTAT=EFF,
                   NOM_CHAM='EFGE_ELNO',
                   NOM_CMP='MXY',
                   VALE_CALC= 3.59221521E-15,
                   VALE_REFE=0.0,
                   CRITERE='ABSOLU',
                   PRECISION=1.E-2,
                   MAILLE='M1176',),
                _F(NUME_ORDRE=1,
                   GROUP_NO='O',
                   REFERENCE='ANALYTIQUE',
                   RESULTAT=EFF,
                   NOM_CHAM='EFGE_ELNO',
                   NOM_CMP='QX',
                   VALE_CALC=-5.20461751E-03,
                   VALE_REFE=0.0,
                   CRITERE='ABSOLU',
                   PRECISION=0.021000000000000001,
                   MAILLE='M1176',),
                _F(NUME_ORDRE=1,
                   GROUP_NO='O',
                   REFERENCE='ANALYTIQUE',
                   RESULTAT=EFF,
                   NOM_CHAM='EFGE_ELNO',
                   NOM_CMP='QY',
                   VALE_CALC= 5.20461751E-03,
                   VALE_REFE=0.0,
                   CRITERE='ABSOLU',
                   PRECISION=0.021000000000000001,
                   MAILLE='M1176',),
                _F(NUME_ORDRE=1,
                   GROUP_NO='O',
                   REFERENCE='ANALYTIQUE',
                   RESULTAT=EFF,
                   NOM_CHAM='EFGE_ELNO',
                   NOM_CMP='QX',
                   VALE_CALC= 5.20461751E-03,
                   VALE_REFE=0.0,
                   CRITERE='ABSOLU',
                   PRECISION=0.021000000000000001,
                   MAILLE='M1177',),
                _F(NUME_ORDRE=1,
                   GROUP_NO='O',
                   REFERENCE='ANALYTIQUE',
                   RESULTAT=EFF,
                   NOM_CHAM='EFGE_ELNO',
                   NOM_CMP='QY',
                   VALE_CALC= 5.20461751E-03,
                   VALE_REFE=0.0,
                   CRITERE='ABSOLU',
                   PRECISION=0.021000000000000001,
                   MAILLE='M1177',),
                _F(NUME_ORDRE=1,
                   GROUP_NO='O',
                   REFERENCE='ANALYTIQUE',
                   RESULTAT=EFF,
                   NOM_CHAM='EFGE_ELNO',
                   NOM_CMP='QX',
                   VALE_CALC=-5.20461751E-03,
                   VALE_REFE=0.0,
                   CRITERE='ABSOLU',
                   PRECISION=0.021000000000000001,
                   MAILLE='M1128',),
                _F(NUME_ORDRE=1,
                   GROUP_NO='O',
                   REFERENCE='ANALYTIQUE',
                   RESULTAT=EFF,
                   NOM_CHAM='EFGE_ELNO',
                   NOM_CMP='QY',
                   VALE_CALC=-5.20461751E-03,
                   VALE_REFE=0.0,
                   CRITERE='ABSOLU',
                   PRECISION=0.021000000000000001,
                   MAILLE='M1128',),
                _F(NUME_ORDRE=1,
                   GROUP_NO='O',
                   REFERENCE='ANALYTIQUE',
                   RESULTAT=EFF,
                   NOM_CHAM='EFGE_ELNO',
                   NOM_CMP='QX',
                   VALE_CALC= 5.20461751E-03,
                   VALE_REFE=0.0,
                   CRITERE='ABSOLU',
                   PRECISION=0.021000000000000001,
                   MAILLE='M1129',),
                _F(NUME_ORDRE=1,
                   GROUP_NO='O',
                   REFERENCE='ANALYTIQUE',
                   RESULTAT=EFF,
                   NOM_CHAM='EFGE_ELNO',
                   NOM_CMP='QY',
                   VALE_CALC=-5.20461751E-03,
                   VALE_REFE=0.0,
                   CRITERE='ABSOLU',
                   PRECISION=0.021000000000000001,
                   MAILLE='M1129',),
                _F(NUME_ORDRE=1,
                   GROUP_NO='C',
                   REFERENCE='ANALYTIQUE',
                   RESULTAT=EFF,
                   NOM_CHAM='EFGE_ELNO',
                   NOM_CMP='NXX',
                   VALE_CALC= 0.00000000E+00,
                   VALE_REFE=0.0,
                   CRITERE='ABSOLU',
                   PRECISION=1.E-2,
                   MAILLE='M2304',),
                _F(NUME_ORDRE=1,
                   GROUP_NO='C',
                   REFERENCE='ANALYTIQUE',
                   RESULTAT=EFF,
                   NOM_CHAM='EFGE_ELNO',
                   NOM_CMP='NYY',
                   VALE_CALC= 0.00000000E+00,
                   VALE_REFE=0.0,
                   CRITERE='ABSOLU',
                   PRECISION=1.E-2,
                   MAILLE='M2304',),
                _F(NUME_ORDRE=1,
                   GROUP_NO='C',
                   REFERENCE='ANALYTIQUE',
                   RESULTAT=EFF,
                   NOM_CHAM='EFGE_ELNO',
                   NOM_CMP='NXY',
                   VALE_CALC= 0.00000000E+00,
                   VALE_REFE=0.0,
                   CRITERE='ABSOLU',
                   PRECISION=1.E-2,
                   MAILLE='M2304',),
                _F(NUME_ORDRE=1,
                   GROUP_NO='C',
                   REFERENCE='ANALYTIQUE',
                   RESULTAT=EFF,
                   NOM_CHAM='EFGE_ELNO',
                   NOM_CMP='MXX',
                   VALE_CALC= 5.40097452E-21,
                   VALE_REFE=0.0,
                   CRITERE='ABSOLU',
                   PRECISION=1.E-2,
                   MAILLE='M2304',),
                _F(NUME_ORDRE=1,
                   GROUP_NO='C',
                   REFERENCE='ANALYTIQUE',
                   RESULTAT=EFF,
                   NOM_CHAM='EFGE_ELNO',
                   NOM_CMP='MYY',
                   VALE_CALC= 2.45876663E-21,
                   VALE_REFE=0.0,
                   CRITERE='ABSOLU',
                   PRECISION=1.E-2,
                   MAILLE='M2304',),
                _F(NUME_ORDRE=1,
                   GROUP_NO='C',
                   REFERENCE='ANALYTIQUE',
                   RESULTAT=EFF,
                   NOM_CHAM='EFGE_ELNO',
                   NOM_CMP='MXY',
                   VALE_CALC=0.018972733,
                   VALE_REFE=0.018997199999999999,
                   PRECISION=0.029999999999999999,
                   MAILLE='M2304',),
                _F(NUME_ORDRE=1,
                   GROUP_NO='C',
                   REFERENCE='ANALYTIQUE',
                   RESULTAT=EFF,
                   NOM_CHAM='EFGE_ELNO',
                   NOM_CMP='QX',
                   VALE_CALC=-6.81955800E-18,
                   VALE_REFE=0.0,
                   CRITERE='ABSOLU',
                   PRECISION=1.E-2,
                   MAILLE='M2304',),
                _F(NUME_ORDRE=1,
                   GROUP_NO='C',
                   REFERENCE='ANALYTIQUE',
                   RESULTAT=EFF,
                   NOM_CHAM='EFGE_ELNO',
                   NOM_CMP='QY',
                   VALE_CALC=-2.48719258E-18,
                   VALE_REFE=0.0,
                   CRITERE='ABSOLU',
                   PRECISION=1.E-2,
                   MAILLE='M2304',),
                _F(NUME_ORDRE=1,
                   GROUP_NO='D',
                   REFERENCE='ANALYTIQUE',
                   RESULTAT=EFF,
                   NOM_CHAM='EFGE_ELNO',
                   NOM_CMP='NXX',
                   VALE_CALC= 0.00000000E+00,
                   VALE_REFE=0.0,
                   CRITERE='ABSOLU',
                   PRECISION=1.E-2,
                   MAILLE='M2257',),
                _F(NUME_ORDRE=1,
                   GROUP_NO='D',
                   REFERENCE='ANALYTIQUE',
                   RESULTAT=EFF,
                   NOM_CHAM='EFGE_ELNO',
                   NOM_CMP='NYY',
                   VALE_CALC= 0.00000000E+00,
                   VALE_REFE=0.0,
                   CRITERE='ABSOLU',
                   PRECISION=1.E-2,
                   MAILLE='M2257',),
                _F(NUME_ORDRE=1,
                   GROUP_NO='D',
                   REFERENCE='ANALYTIQUE',
                   RESULTAT=EFF,
                   NOM_CHAM='EFGE_ELNO',
                   NOM_CMP='NXY',
                   VALE_CALC= 0.00000000E+00,
                   VALE_REFE=0.0,
                   CRITERE='ABSOLU',
                   PRECISION=1.E-2,
                   MAILLE='M2257',),
                _F(NUME_ORDRE=1,
                   GROUP_NO='D',
                   REFERENCE='ANALYTIQUE',
                   RESULTAT=EFF,
                   NOM_CHAM='EFGE_ELNO',
                   NOM_CMP='MXX',
                   VALE_CALC= 8.29310529E-21,
                   VALE_REFE=0.0,
                   CRITERE='ABSOLU',
                   PRECISION=1.E-2,
                   MAILLE='M2257',),
                _F(NUME_ORDRE=1,
                   GROUP_NO='D',
                   REFERENCE='ANALYTIQUE',
                   RESULTAT=EFF,
                   NOM_CHAM='EFGE_ELNO',
                   NOM_CMP='MYY',
                   VALE_CALC= 3.18622312E-21,
                   VALE_REFE=0.0,
                   CRITERE='ABSOLU',
                   PRECISION=1.E-2,
                   MAILLE='M2257',),
                _F(NUME_ORDRE=1,
                   GROUP_NO='D',
                   REFERENCE='ANALYTIQUE',
                   RESULTAT=EFF,
                   NOM_CHAM='EFGE_ELNO',
                   NOM_CMP='MXY',
                   VALE_CALC=-0.018972733,
                   VALE_REFE=-0.018997199999999999,
                   PRECISION=0.029999999999999999,
                   MAILLE='M2257',),
                _F(NUME_ORDRE=1,
                   GROUP_NO='D',
                   REFERENCE='ANALYTIQUE',
                   RESULTAT=EFF,
                   NOM_CHAM='EFGE_ELNO',
                   NOM_CMP='QX',
                   VALE_CALC=-8.23777622E-18,
                   VALE_REFE=0.0,
                   CRITERE='ABSOLU',
                   PRECISION=1.E-2,
                   MAILLE='M2257',),
                _F(NUME_ORDRE=1,
                   GROUP_NO='D',
                   REFERENCE='ANALYTIQUE',
                   RESULTAT=EFF,
                   NOM_CHAM='EFGE_ELNO',
                   NOM_CMP='QY',
                   VALE_CALC= 1.90226964E-18,
                   VALE_REFE=0.0,
                   CRITERE='ABSOLU',
                   PRECISION=1.E-2,
                   MAILLE='M2257',),
                _F(NUME_ORDRE=1,
                   GROUP_NO='D1',
                   REFERENCE='ANALYTIQUE',
                   RESULTAT=EFF,
                   NOM_CHAM='EFGE_ELNO',
                   NOM_CMP='NXX',
                   VALE_CALC= 0.00000000E+00,
                   VALE_REFE=0.0,
                   CRITERE='ABSOLU',
                   PRECISION=1.E-2,
                   MAILLE='M1153',),
                _F(NUME_ORDRE=1,
                   GROUP_NO='D1',
                   REFERENCE='ANALYTIQUE',
                   RESULTAT=EFF,
                   NOM_CHAM='EFGE_ELNO',
                   NOM_CMP='NYY',
                   VALE_CALC= 0.00000000E+00,
                   VALE_REFE=0.0,
                   CRITERE='ABSOLU',
                   PRECISION=1.E-2,
                   MAILLE='M1153',),
                _F(NUME_ORDRE=1,
                   GROUP_NO='D1',
                   REFERENCE='ANALYTIQUE',
                   RESULTAT=EFF,
                   NOM_CHAM='EFGE_ELNO',
                   NOM_CMP='NXY',
                   VALE_CALC= 0.00000000E+00,
                   VALE_REFE=0.0,
                   CRITERE='ABSOLU',
                   PRECISION=1.E-2,
                   MAILLE='M1153',),
                _F(NUME_ORDRE=1,
                   GROUP_NO='D1',
                   REFERENCE='ANALYTIQUE',
                   RESULTAT=EFF,
                   NOM_CHAM='EFGE_ELNO',
                   NOM_CMP='MXX',
                   VALE_CALC=-8.28137303E-04,
                   VALE_REFE=0.0,
                   CRITERE='ABSOLU',
                   PRECISION=1.E-2,
                   MAILLE='M1153',),
                _F(NUME_ORDRE=1,
                   GROUP_NO='D1',
                   REFERENCE='ANALYTIQUE',
                   RESULTAT=EFF,
                   NOM_CHAM='EFGE_ELNO',
                   NOM_CMP='MYY',
                   VALE_CALC=-2.07034326E-04,
                   VALE_REFE=0.0,
                   CRITERE='ABSOLU',
                   PRECISION=1.E-2,
                   MAILLE='M1153',),
                _F(NUME_ORDRE=1,
                   GROUP_NO='D1',
                   REFERENCE='ANALYTIQUE',
                   RESULTAT=EFF,
                   NOM_CHAM='EFGE_ELNO',
                   NOM_CMP='MXY',
                   VALE_CALC=-3.10551488E-04,
                   VALE_REFE=0.0,
                   CRITERE='ABSOLU',
                   PRECISION=1.E-2,
                   MAILLE='M1153',),
                _F(NUME_ORDRE=1,
                   GROUP_NO='D1',
                   REFERENCE='ANALYTIQUE',
                   RESULTAT=EFF,
                   NOM_CHAM='EFGE_ELNO',
                   NOM_CMP='QX',
                   VALE_CALC=-0.158984618,
                   VALE_REFE=-0.15915499999999999,
                   PRECISION=0.029999999999999999,
                   MAILLE='M1153',),
                _F(NUME_ORDRE=1,
                   GROUP_NO='D1',
                   REFERENCE='ANALYTIQUE',
                   RESULTAT=EFF,
                   NOM_CHAM='EFGE_ELNO',
                   NOM_CMP='QY',
                   VALE_CALC=-1.83387435E-16,
                   VALE_REFE=0.0,
                   CRITERE='ABSOLU',
                   PRECISION=1.E-2,
                   MAILLE='M1153',),
                _F(NUME_ORDRE=1,
                   GROUP_NO='D1',
                   REFERENCE='ANALYTIQUE',
                   RESULTAT=EFF,
                   NOM_CHAM='EFGE_ELNO',
                   NOM_CMP='QX',
                   VALE_CALC=-0.158984618,
                   VALE_REFE=-0.15915499999999999,
                   PRECISION=0.029999999999999999,
                   MAILLE='M1105',),
                _F(NUME_ORDRE=1,
                   GROUP_NO='D1',
                   REFERENCE='ANALYTIQUE',
                   RESULTAT=EFF,
                   NOM_CHAM='EFGE_ELNO',
                   NOM_CMP='QY',
                   VALE_CALC= 2.18467450E-16,
                   VALE_REFE=0.0,
                   CRITERE='ABSOLU',
                   PRECISION=1.E-2,
                   MAILLE='M1105',),
                _F(NUME_ORDRE=1,
                   GROUP_NO='A',
                   REFERENCE='ANALYTIQUE',
                   RESULTAT=EFF,
                   NOM_CHAM='EFGE_ELNO',
                   NOM_CMP='NXX',
                   VALE_CALC= 0.00000000E+00,
                   VALE_REFE=0.0,
                   CRITERE='ABSOLU',
                   PRECISION=1.E-2,
                   MAILLE='M1',),
                _F(NUME_ORDRE=1,
                   GROUP_NO='A',
                   REFERENCE='ANALYTIQUE',
                   RESULTAT=EFF,
                   NOM_CHAM='EFGE_ELNO',
                   NOM_CMP='NYY',
                   VALE_CALC= 0.00000000E+00,
                   VALE_REFE=0.0,
                   CRITERE='ABSOLU',
                   PRECISION=1.E-2,
                   MAILLE='M1',),
                _F(NUME_ORDRE=1,
                   GROUP_NO='A',
                   REFERENCE='ANALYTIQUE',
                   RESULTAT=EFF,
                   NOM_CHAM='EFGE_ELNO',
                   NOM_CMP='NXY',
                   VALE_CALC= 0.00000000E+00,
                   VALE_REFE=0.0,
                   CRITERE='ABSOLU',
                   PRECISION=1.E-2,
                   MAILLE='M1',),
                _F(NUME_ORDRE=1,
                   GROUP_NO='A',
                   REFERENCE='ANALYTIQUE',
                   RESULTAT=EFF,
                   NOM_CHAM='EFGE_ELNO',
                   NOM_CMP='MXX',
                   VALE_CALC= 5.65977266E-21,
                   VALE_REFE=0.0,
                   CRITERE='ABSOLU',
                   PRECISION=1.E-2,
                   MAILLE='M1',),
                _F(NUME_ORDRE=1,
                   GROUP_NO='A',
                   REFERENCE='ANALYTIQUE',
                   RESULTAT=EFF,
                   NOM_CHAM='EFGE_ELNO',
                   NOM_CMP='MYY',
                   VALE_CALC= 3.02189466E-21,
                   VALE_REFE=0.0,
                   CRITERE='ABSOLU',
                   PRECISION=1.E-2,
                   MAILLE='M1',),
                _F(NUME_ORDRE=1,
                   GROUP_NO='A',
                   REFERENCE='ANALYTIQUE',
                   RESULTAT=EFF,
                   NOM_CHAM='EFGE_ELNO',
                   NOM_CMP='MXY',
                   VALE_CALC=0.018972733,
                   VALE_REFE=0.018997199999999999,
                   PRECISION=0.029999999999999999,
                   MAILLE='M1',),
                _F(NUME_ORDRE=1,
                   GROUP_NO='A',
                   REFERENCE='ANALYTIQUE',
                   RESULTAT=EFF,
                   NOM_CHAM='EFGE_ELNO',
                   NOM_CMP='QY',
                   VALE_CALC= 7.67249383E-18,
                   VALE_REFE=0.0,
                   CRITERE='ABSOLU',
                   PRECISION=1.E-2,
                   MAILLE='M1',),
                _F(NUME_ORDRE=1,
                   GROUP_NO='A',
                   REFERENCE='ANALYTIQUE',
                   RESULTAT=EFF,
                   NOM_CHAM='EFGE_ELNO',
                   NOM_CMP='QX',
                   VALE_CALC=-4.19058666E-18,
                   VALE_REFE=0.0,
                   CRITERE='ABSOLU',
                   PRECISION=1.E-2,
                   MAILLE='M1',),
                _F(NUME_ORDRE=1,
                   GROUP_NO='B',
                   REFERENCE='ANALYTIQUE',
                   RESULTAT=EFF,
                   NOM_CHAM='EFGE_ELNO',
                   NOM_CMP='NXX',
                   VALE_CALC= 0.00000000E+00,
                   VALE_REFE=0.0,
                   CRITERE='ABSOLU',
                   PRECISION=1.E-2,
                   MAILLE='M48',),
                _F(NUME_ORDRE=1,
                   GROUP_NO='B',
                   REFERENCE='ANALYTIQUE',
                   RESULTAT=EFF,
                   NOM_CHAM='EFGE_ELNO',
                   NOM_CMP='NYY',
                   VALE_CALC= 0.00000000E+00,
                   VALE_REFE=0.0,
                   CRITERE='ABSOLU',
                   PRECISION=1.E-2,
                   MAILLE='M48',),
                _F(NUME_ORDRE=1,
                   GROUP_NO='B',
                   REFERENCE='ANALYTIQUE',
                   RESULTAT=EFF,
                   NOM_CHAM='EFGE_ELNO',
                   NOM_CMP='NXY',
                   VALE_CALC= 0.00000000E+00,
                   VALE_REFE=0.0,
                   CRITERE='ABSOLU',
                   PRECISION=1.E-2,
                   MAILLE='M48',),
                _F(NUME_ORDRE=1,
                   GROUP_NO='B',
                   REFERENCE='ANALYTIQUE',
                   RESULTAT=EFF,
                   NOM_CHAM='EFGE_ELNO',
                   NOM_CMP='MXX',
                   VALE_CALC=-2.22449524E-21,
                   VALE_REFE=0.0,
                   CRITERE='ABSOLU',
                   PRECISION=1.E-2,
                   MAILLE='M48',),
                _F(NUME_ORDRE=1,
                   GROUP_NO='B',
                   REFERENCE='ANALYTIQUE',
                   RESULTAT=EFF,
                   NOM_CHAM='EFGE_ELNO',
                   NOM_CMP='MYY',
                   VALE_CALC=-1.38440254E-21,
                   VALE_REFE=0.0,
                   CRITERE='ABSOLU',
                   PRECISION=1.E-2,
                   MAILLE='M48',),
                _F(NUME_ORDRE=1,
                   GROUP_NO='B',
                   REFERENCE='ANALYTIQUE',
                   RESULTAT=EFF,
                   NOM_CHAM='EFGE_ELNO',
                   NOM_CMP='MXY',
                   VALE_CALC=-0.018972733,
                   VALE_REFE=-0.018997199999999999,
                   PRECISION=0.029999999999999999,
                   MAILLE='M48',),
                _F(NUME_ORDRE=1,
                   GROUP_NO='B',
                   REFERENCE='ANALYTIQUE',
                   RESULTAT=EFF,
                   NOM_CHAM='EFGE_ELNO',
                   NOM_CMP='QY',
                   VALE_CALC= 5.56710945E-19,
                   VALE_REFE=0.0,
                   CRITERE='ABSOLU',
                   PRECISION=1.E-2,
                   MAILLE='M48',),
                _F(NUME_ORDRE=1,
                   GROUP_NO='B',
                   REFERENCE='ANALYTIQUE',
                   RESULTAT=EFF,
                   NOM_CHAM='EFGE_ELNO',
                   NOM_CMP='QX',
                   VALE_CALC=-1.09376610E-17,
                   VALE_REFE=0.0,
                   CRITERE='ABSOLU',
                   PRECISION=1.E-2,
                   MAILLE='M48',),
                _F(NUME_ORDRE=1,
                   GROUP_NO='B1',
                   REFERENCE='ANALYTIQUE',
                   RESULTAT=EFF,
                   NOM_CHAM='EFGE_ELNO',
                   NOM_CMP='NXX',
                   VALE_CALC= 0.00000000E+00,
                   VALE_REFE=0.0,
                   CRITERE='ABSOLU',
                   PRECISION=1.E-2,
                   MAILLE='M24',),
                _F(NUME_ORDRE=1,
                   GROUP_NO='B1',
                   REFERENCE='ANALYTIQUE',
                   RESULTAT=EFF,
                   NOM_CHAM='EFGE_ELNO',
                   NOM_CMP='NYY',
                   VALE_CALC= 0.00000000E+00,
                   VALE_REFE=0.0,
                   CRITERE='ABSOLU',
                   PRECISION=1.E-2,
                   MAILLE='M24',),
                _F(NUME_ORDRE=1,
                   GROUP_NO='B1',
                   REFERENCE='ANALYTIQUE',
                   RESULTAT=EFF,
                   NOM_CHAM='EFGE_ELNO',
                   NOM_CMP='NXY',
                   VALE_CALC= 0.00000000E+00,
                   VALE_REFE=0.0,
                   CRITERE='ABSOLU',
                   PRECISION=1.E-2,
                   MAILLE='M24',),
                _F(NUME_ORDRE=1,
                   GROUP_NO='B1',
                   REFERENCE='ANALYTIQUE',
                   RESULTAT=EFF,
                   NOM_CHAM='EFGE_ELNO',
                   NOM_CMP='MXX',
                   VALE_CALC=-2.07034326E-04,
                   VALE_REFE=0.0,
                   CRITERE='ABSOLU',
                   PRECISION=1.E-2,
                   MAILLE='M24',),
                _F(NUME_ORDRE=1,
                   GROUP_NO='B1',
                   REFERENCE='ANALYTIQUE',
                   RESULTAT=EFF,
                   NOM_CHAM='EFGE_ELNO',
                   NOM_CMP='MYY',
                   VALE_CALC=-8.28137303E-04,
                   VALE_REFE=0.0,
                   CRITERE='ABSOLU',
                   PRECISION=1.E-2,
                   MAILLE='M24',),
                _F(NUME_ORDRE=1,
                   GROUP_NO='B1',
                   REFERENCE='ANALYTIQUE',
                   RESULTAT=EFF,
                   NOM_CHAM='EFGE_ELNO',
                   NOM_CMP='MXY',
                   VALE_CALC= 3.10551488E-04,
                   VALE_REFE=0.0,
                   CRITERE='ABSOLU',
                   PRECISION=1.E-2,
                   MAILLE='M24',),
                _F(NUME_ORDRE=1,
                   GROUP_NO='B1',
                   REFERENCE='ANALYTIQUE',
                   RESULTAT=EFF,
                   NOM_CHAM='EFGE_ELNO',
                   NOM_CMP='QY',
                   VALE_CALC=-0.158984618,
                   VALE_REFE=-0.15915499999999999,
                   PRECISION=0.029999999999999999,
                   MAILLE='M24',),
                _F(NUME_ORDRE=1,
                   GROUP_NO='B1',
                   REFERENCE='ANALYTIQUE',
                   RESULTAT=EFF,
                   NOM_CHAM='EFGE_ELNO',
                   NOM_CMP='QX',
                   VALE_CALC= 1.13160610E-16,
                   VALE_REFE=0.0,
                   CRITERE='ABSOLU',
                   PRECISION=1.E-2,
                   MAILLE='M24',),
                _F(NUME_ORDRE=1,
                   GROUP_NO='B1',
                   REFERENCE='ANALYTIQUE',
                   RESULTAT=EFF,
                   NOM_CHAM='EFGE_ELNO',
                   NOM_CMP='NXX',
                   VALE_CALC= 0.00000000E+00,
                   VALE_REFE=0.0,
                   CRITERE='ABSOLU',
                   PRECISION=1.E-2,
                   MAILLE='M25',),
                _F(NUME_ORDRE=1,
                   GROUP_NO='B1',
                   REFERENCE='ANALYTIQUE',
                   RESULTAT=EFF,
                   NOM_CHAM='EFGE_ELNO',
                   NOM_CMP='NYY',
                   VALE_CALC= 0.00000000E+00,
                   VALE_REFE=0.0,
                   CRITERE='ABSOLU',
                   PRECISION=1.E-2,
                   MAILLE='M25',),
                _F(NUME_ORDRE=1,
                   GROUP_NO='B1',
                   REFERENCE='ANALYTIQUE',
                   RESULTAT=EFF,
                   NOM_CHAM='EFGE_ELNO',
                   NOM_CMP='NXY',
                   VALE_CALC= 0.00000000E+00,
                   VALE_REFE=0.0,
                   CRITERE='ABSOLU',
                   PRECISION=1.E-2,
                   MAILLE='M25',),
                _F(NUME_ORDRE=1,
                   GROUP_NO='B1',
                   REFERENCE='ANALYTIQUE',
                   RESULTAT=EFF,
                   NOM_CHAM='EFGE_ELNO',
                   NOM_CMP='MXX',
                   VALE_CALC=-2.07034326E-04,
                   VALE_REFE=0.0,
                   CRITERE='ABSOLU',
                   PRECISION=1.E-2,
                   MAILLE='M25',),
                _F(NUME_ORDRE=1,
                   GROUP_NO='B1',
                   REFERENCE='ANALYTIQUE',
                   RESULTAT=EFF,
                   NOM_CHAM='EFGE_ELNO',
                   NOM_CMP='MYY',
                   VALE_CALC=-8.28137303E-04,
                   VALE_REFE=0.0,
                   CRITERE='ABSOLU',
                   PRECISION=1.E-2,
                   MAILLE='M25',),
                _F(NUME_ORDRE=1,
                   GROUP_NO='B1',
                   REFERENCE='ANALYTIQUE',
                   RESULTAT=EFF,
                   NOM_CHAM='EFGE_ELNO',
                   NOM_CMP='MXY',
                   VALE_CALC=-3.10551488E-04,
                   VALE_REFE=0.0,
                   CRITERE='ABSOLU',
                   PRECISION=1.E-2,
                   MAILLE='M25',),
                _F(NUME_ORDRE=1,
                   GROUP_NO='B1',
                   REFERENCE='ANALYTIQUE',
                   RESULTAT=EFF,
                   NOM_CHAM='EFGE_ELNO',
                   NOM_CMP='QY',
                   VALE_CALC=-0.158984618,
                   VALE_REFE=-0.15915499999999999,
                   PRECISION=0.029999999999999999,
                   MAILLE='M25',),
                _F(NUME_ORDRE=1,
                   GROUP_NO='B1',
                   REFERENCE='ANALYTIQUE',
                   RESULTAT=EFF,
                   NOM_CHAM='EFGE_ELNO',
                   NOM_CMP='QX',
                   VALE_CALC=-4.38044772E-17,
                   VALE_REFE=0.0,
                   CRITERE='ABSOLU',
                   PRECISION=1.E-2,
                   MAILLE='M25',),
                ),
          )

FIN();
