# MODIF  DATE 12/08/2008   AUTEUR DESROCHES X.DESROCHES 
# TITRE PLAQUE EN FLEXION AVEC DIVERS ELANCEMENTS. MODELISATION SHB6 MAILLAGE REGULIER
#            CONFIGURATION MANAGEMENT OF EDF VERSION
# ======================================================================
# COPYRIGHT (C) 1991 - 2008  EDF R&D                  WWW.CODE-ASTER.ORG
# THIS PROGRAM IS FREE SOFTWARE; YOU CAN REDISTRIBUTE IT AND/OR MODIFY  
# IT UNDER THE TERMS OF THE GNU GENERAL PUBLIC LICENSE AS PUBLISHED BY  
# THE FREE SOFTWARE FOUNDATION; EITHER VERSION 2 OF THE LICENSE, OR     
# (AT YOUR OPTION) ANY LATER VERSION.                                                    
#                                                                       
# THIS PROGRAM IS DISTRIBUTED IN THE HOPE THAT IT WILL BE USEFUL, BUT   
# WITHOUT ANY WARRANTY; WITHOUT EVEN THE IMPLIED WARRANTY OF            
# MERCHANTABILITY OR FITNESS FOR A PARTICULAR PURPOSE. SEE THE GNU      
# GENERAL PUBLIC LICENSE FOR MORE DETAILS.                              
#                                                                       
# YOU SHOULD HAVE RECEIVED A COPY OF THE GNU GENERAL PUBLIC LICENSE     
# ALONG WITH THIS PROGRAM; IF NOT, WRITE TO EDF R&D CODE_ASTER,         
#    1 AVENUE DU GENERAL DE GAULLE, 92141 CLAMART CEDEX, FRANCE.        
# ======================================================================


DEBUT(CODE=_F(NOM='SSLS124C', NIV_PUB_WEB='INTERNET'), DEBUG=_F(SDVERI='OUI'))

YG=2.E11
L=100
b=10
F=1

MAT=DEFI_MATERIAU(ELAS=_F(E=YG,
                          NU=0.3,),);



# CAS 1 :

h=10.


PRE_GIBI(UNITE_GIBI=21,UNITE_MAILLAGE=31);

MAIL31=LIRE_MAILLAGE(UNITE=31);

MAIL31=MODI_MAILLAGE(reuse=MAIL31,MAILLAGE=MAIL31,
ORIE_SHB=_F(GROUP_MA='GEOTOT'),)

MAIL31=DEFI_GROUP(reuse =MAIL31, MAILLAGE=MAIL31,
                CREA_GROUP_NO=(_F(GROUP_MA='SUENCAS',),
                               _F(GROUP_MA='SUDEPIM',),),);

CHMAT31=AFFE_MATERIAU(MAILLAGE=MAIL31,
                  AFFE=_F(TOUT='OUI',MATER=MAT,),);

MODMEC31=AFFE_MODELE(MAILLAGE=MAIL31,
                    AFFE=_F(TOUT='OUI',
                            PHENOMENE='MECANIQUE',
                            MODELISATION='SHB8',),);


CHARG31=AFFE_CHAR_MECA(MODELE=MODMEC31,
                      DDL_IMPO=(_F(GROUP_MA=('SUENCAS'),
                                   DX=0.0,),
                                _F(GROUP_NO='P1',
                                   DY=0.0,),
                                _F(GROUP_NO='P5',
                                   DY=0.0,),
                                _F(GROUP_NO='P1',
                                   DZ=0.0,),
                                _F(GROUP_NO='P2',
                                   DZ=0.0,),),
                      FORCE_NODALE=(_F(GROUP_NO='P7',
                                      FZ=.5,),
                                   _F(GROUP_NO='P8',
                                      FZ=.5,),),
                            );

RESU31=MECA_STATIQUE(MODELE=MODMEC31,
                    CHAM_MATER=CHMAT31,
                    EXCIT=_F(CHARGE=CHARG31,),
                    );

RESU31=CALC_ELEM(reuse=RESU31, RESULTAT=RESU31,

#                    OPTION=('SIEF_ELNO_ELGA','EQUI_ELGA_SIGM','EQUI_ELNO_SIGM'),
                    OPTION=('SIEF_ELNO_ELGA',),
                    );



Iy=b*h*h*h/12
Uz=F*L*L*L/3/YG/Iy
# point de gauss maille m1 situe a x=5
moment1=(L-5)*F
# coordonnees des points de Gauss
z1=0.90618/2*h
z2=0.5385/2*h
z3=0
z4=-0.5385/2*h
z5=-0.90618/2*h

Sig1=moment1*z1/Iy
Sig2=moment1*z2/Iy
Sig3=moment1*z3/Iy
Sig4=moment1*z4/Iy
Sig5=moment1*z5/Iy


TEST_RESU(RESU=(
            _F(  RESULTAT = RESU31, NOM_CHAM='DEPL', PRECISION = 1.E-2, REFERENCE='ANALYTIQUE',NUME_ORDRE=1,
              GROUP_NO = 'P7',      NOM_CMP = 'DZ',           VALE = Uz),

            _F( RESULTAT = RESU31, NOM_CHAM='DEPL',  PRECISION = 1.5E-2, REFERENCE='ANALYTIQUE',NUME_ORDRE=1,
              GROUP_NO = 'P8',      NOM_CMP = 'DZ',           VALE = Uz),
              ),)



# CAS 2 :

h=5.0


PRE_GIBI(UNITE_GIBI=22,UNITE_MAILLAGE=32);

MAIL32=LIRE_MAILLAGE(UNITE=32);

MAIL32=MODI_MAILLAGE(reuse=MAIL32,MAILLAGE=MAIL32,
ORIE_SHB=_F(GROUP_MA='GEOTOT'),)

MAIL32=DEFI_GROUP(reuse =MAIL32, MAILLAGE=MAIL32,
                CREA_GROUP_NO=(_F(GROUP_MA='SUENCAS',),
                               _F(GROUP_MA='SUDEPIM',),),);

CHMAT32=AFFE_MATERIAU(MAILLAGE=MAIL32,
                  AFFE=_F(TOUT='OUI',MATER=MAT,),);

MODMEC32=AFFE_MODELE(MAILLAGE=MAIL32,
                    AFFE=_F(TOUT='OUI',
                            PHENOMENE='MECANIQUE',
                            MODELISATION='SHB8',),);


CHARG32=AFFE_CHAR_MECA(MODELE=MODMEC32,
                      DDL_IMPO=(_F(GROUP_MA=('SUENCAS'),
                                   DX=0.0,),
                                _F(GROUP_NO='P1',
                                   DY=0.0,),
                                _F(GROUP_NO='P5',
                                   DY=0.0,),
                                _F(GROUP_NO='P1',
                                   DZ=0.0,),
                                _F(GROUP_NO='P2',
                                   DZ=0.0,),),
                      FORCE_NODALE=(_F(GROUP_NO='P7',
                                      FZ=.5,),
                                   _F(GROUP_NO='P8',
                                      FZ=.5,),),
                            );

RESU32=MECA_STATIQUE(MODELE=MODMEC32,
                    CHAM_MATER=CHMAT32,
                    EXCIT=_F(CHARGE=CHARG32,),
                    );

Iy=b*h*h*h/12
Uz=F*L*L*L/3/YG/Iy


TEST_RESU(RESU=(
            _F(  RESULTAT = RESU32, NOM_CHAM='DEPL', PRECISION = 1.E-2, REFERENCE='ANALYTIQUE',NUME_ORDRE=1,
              GROUP_NO = 'P7',      NOM_CMP = 'DZ',           VALE = Uz),

            _F(   RESULTAT = RESU32, NOM_CHAM='DEPL',  PRECISION = 1.E-2, REFERENCE='ANALYTIQUE',NUME_ORDRE=1,
              GROUP_NO = 'P8',      NOM_CMP = 'DZ',           VALE = Uz),
              ),)



# CAS 3 :

h=2.


PRE_GIBI(UNITE_GIBI=23,UNITE_MAILLAGE=33);

MAIL33=LIRE_MAILLAGE(UNITE=33);

MAIL33=MODI_MAILLAGE(reuse=MAIL33,MAILLAGE=MAIL33,
ORIE_SHB=_F(GROUP_MA='GEOTOT'),)

MAIL33=DEFI_GROUP(reuse =MAIL33, MAILLAGE=MAIL33,
                CREA_GROUP_NO=(_F(GROUP_MA='SUENCAS',),
                               _F(GROUP_MA='SUDEPIM',),),);

CHMAT33=AFFE_MATERIAU(MAILLAGE=MAIL33,
                  AFFE=_F(TOUT='OUI',MATER=MAT,),);

MODMEC33=AFFE_MODELE(MAILLAGE=MAIL33,
                    AFFE=_F(TOUT='OUI',
                            PHENOMENE='MECANIQUE',
                            MODELISATION='SHB8',),);


CHARG33=AFFE_CHAR_MECA(MODELE=MODMEC33,
                      DDL_IMPO=(_F(GROUP_MA=('SUENCAS'),
                                   DX=0.0,),
                                _F(GROUP_NO='P1',
                                   DY=0.0,),
                                _F(GROUP_NO='P5',
                                   DY=0.0,),
                                _F(GROUP_NO='P1',
                                   DZ=0.0,),
                                _F(GROUP_NO='P2',
                                   DZ=0.0,),),
                      FORCE_NODALE=(_F(GROUP_NO='P7',
                                      FZ=.5,),
                                   _F(GROUP_NO='P8',
                                      FZ=.5,),),
                            );

RESU33=MECA_STATIQUE(MODELE=MODMEC33,
                    CHAM_MATER=CHMAT33,
                    EXCIT=_F(CHARGE=CHARG33,),
                    SOLVEUR=_F(METHODE ='MULT_FRONT',NPREC=11 ),
                    );

Iy=b*h*h*h/12
Uz=F*L*L*L/3/YG/Iy


TEST_RESU(RESU=(
            _F(  RESULTAT = RESU33, NOM_CHAM='DEPL', PRECISION = 1.E-2, REFERENCE='ANALYTIQUE',NUME_ORDRE=1,
              GROUP_NO = 'P7',      NOM_CMP = 'DZ',           VALE = Uz),

            _F(   RESULTAT = RESU33, NOM_CHAM='DEPL',  PRECISION = 1.E-2, REFERENCE='ANALYTIQUE',NUME_ORDRE=1,
              GROUP_NO = 'P8',      NOM_CMP = 'DZ',           VALE = Uz),
              ),)



# CAS 4 :

h=1.


PRE_GIBI(UNITE_GIBI=24,UNITE_MAILLAGE=34);

MAIL34=LIRE_MAILLAGE(UNITE=34);

MAIL34=MODI_MAILLAGE(reuse=MAIL34,MAILLAGE=MAIL34,
ORIE_SHB=_F(GROUP_MA='GEOTOT'),)

MAIL34=DEFI_GROUP(reuse =MAIL34, MAILLAGE=MAIL34,
                CREA_GROUP_NO=(_F(GROUP_MA='SUENCAS',),
                               _F(GROUP_MA='SUDEPIM',),),);

CHMAT34=AFFE_MATERIAU(MAILLAGE=MAIL34,
                  AFFE=_F(TOUT='OUI',MATER=MAT,),);

MODMEC34=AFFE_MODELE(MAILLAGE=MAIL34,
                    AFFE=_F(TOUT='OUI',
                            PHENOMENE='MECANIQUE',
                            MODELISATION='SHB8',),);


CHARG34=AFFE_CHAR_MECA(MODELE=MODMEC34,
                      DDL_IMPO=(_F(GROUP_MA=('SUENCAS'),
                                   DX=0.0,),
                                _F(GROUP_NO='P1',
                                   DY=0.0,),
                                _F(GROUP_NO='P5',
                                   DY=0.0,),
                                _F(GROUP_NO='P1',
                                   DZ=0.0,),
                                _F(GROUP_NO='P2',
                                   DZ=0.0,),),
                      FORCE_NODALE=(_F(GROUP_NO='P7',
                                      FZ=.5,),
                                   _F(GROUP_NO='P8',
                                      FZ=.5,),),
                            );

RESU34=MECA_STATIQUE(MODELE=MODMEC34,
                    CHAM_MATER=CHMAT34,
                    EXCIT=_F(CHARGE=CHARG34,),
                    SOLVEUR=_F(METHODE ='MULT_FRONT',NPREC=18 ),
                    );

Iy=b*h*h*h/12
Uz=F*L*L*L/3/YG/Iy


TEST_RESU(RESU=(
            _F(  RESULTAT = RESU34, NOM_CHAM='DEPL', PRECISION = 3.E-2, REFERENCE='ANALYTIQUE',NUME_ORDRE=1,
              GROUP_NO = 'P7',      NOM_CMP = 'DZ',           VALE = Uz),

            _F(   RESULTAT = RESU34, NOM_CHAM='DEPL',  PRECISION = 3.E-2, REFERENCE='ANALYTIQUE',NUME_ORDRE=1,
              GROUP_NO = 'P8',      NOM_CMP = 'DZ',           VALE = Uz),
              ),)




FIN()
