
# MODIF  DATE 28/05/2004   AUTEUR LEBOUVIE F.LEBOUVIER 
# TITRE  PLAQUE CARREE EN APPUI SIMPLE SOUS PRESSION SINUSOIDALE
#            CONFIGURATION MANAGEMENT OF EDF VERSION
# ======================================================================
# COPYRIGHT (C) 1991 - 2001  EDF R&D                  WWW.CODE-ASTER.ORG
# THIS PROGRAM IS FREE SOFTWARE; YOU CAN REDISTRIBUTE IT AND/OR MODIFY
# IT UNDER THE TERMS OF THE GNU GENERAL PUBLIC LICENSE AS PUBLISHED BY
# THE FREE SOFTWARE FOUNDATION; EITHER VERSION 2 OF THE LICENSE, OR   
# (AT YOUR OPTION) ANY LATER VERSION.                                 
#
# THIS PROGRAM IS DISTRIBUTED IN THE HOPE THAT IT WILL BE USEFUL, BUT 
# WITHOUT ANY WARRANTY; WITHOUT EVEN THE IMPLIED WARRANTY OF          
# MERCHANTABILITY OR FITNESS FOR A PARTICULAR PURPOSE. SEE THE GNU    
# GENERAL PUBLIC LICENSE FOR MORE DETAILS.                            
#
# YOU SHOULD HAVE RECEIVED A COPY OF THE GNU GENERAL PUBLIC LICENSE   
# ALONG WITH THIS PROGRAM; IF NOT, WRITE TO EDF R&D CODE_ASTER,       
#    1 AVENUE DU GENERAL DE GAULLE, 92141 CLAMART CEDEX, FRANCE.      
# ======================================================================
#---------------------------------------------------------------------
#         - MODELISATION AVEC DES ELEMENTS 'DSQ'(QUA4) 
#---------------------------------------------------------------------

DEBUT(CODE=_F(NOM='SSLS118I',
              NIV_PUB_WEB='INTERNET',),);

PRE_GIBI();

MA=LIRE_MAILLAGE(VERI_MAIL=_F(VERIF='NON',),);

MA=DEFI_GROUP(reuse =MA,
              MAILLAGE=MA,
              CREA_GROUP_MA=_F(NOM='TOUT',
                               TOUT='OUI',),
              CREA_GROUP_NO=(_F(GROUP_MA='AB',),
                             _F(GROUP_MA='BC',),
                             _F(GROUP_MA='CD',),
                             _F(GROUP_MA='DA',),),);

MO=AFFE_MODELE(MAILLAGE=MA,
               AFFE=_F(TOUT='OUI',
                       PHENOMENE='MECANIQUE',
                       MODELISATION='DST',),);

CAR_ELE=AFFE_CARA_ELEM(MODELE=MO,
                       COQUE=_F(GROUP_MA='TOUT',
                                EPAIS=0.1,
                                ANGL_REP=(0.0,0.0,),),);

MAT=DEFI_MATERIAU(ELAS=_F(E=25.0,
                          NU=0.25,),);

CHAM_MAT=AFFE_MATERIAU(MAILLAGE=MA,
                       AFFE=_F(TOUT='OUI',
                               MATER=MAT,),);
PO = 1.0;


P = FORMULE(REEL = '''(REEL:X,REEL:Y) = PO*SIN(PI*X)*SIN(PI*Y)''');

CHA=AFFE_CHAR_MECA(MODELE=MO,
                   DDL_IMPO=(_F(GROUP_NO='O',
                                DX=0.0,
                                DY=0.0,
                                DRX=0.0,
                                DRY=0.0,
                                DRZ=0.0,),
                             _F(GROUP_NO='AB',
                                DX=0.0,
                                DZ=0.0,
                                DRY=0.0,),
                             _F(GROUP_NO='BC',
                                DY=0.0,
                                DZ=0.0,
                                DRX=0.0,),
                             _F(GROUP_NO='CD',
                                DX=0.0,
                                DZ=0.0,
                                DRY=0.0,),
                             _F(GROUP_NO='DA',
                                DY=0.0,
                                DZ=0.0,
                                DRX=0.0,),),
                   FORCE_ARETE=(_F(GROUP_MA='AB',
                                   MY=0.0,),
                                _F(GROUP_MA='CD',
                                   MY=0.0,),
                                _F(GROUP_MA='BC',
                                   MX=0.0,),
                                _F(GROUP_MA='DA',
                                   MX=0.0,),),);

CHA_P=AFFE_CHAR_MECA_F(MODELE=MO,
                       FORCE_COQUE=_F(GROUP_MA='MAIL1',
                                      PRES=P,),);

RESU=MECA_STATIQUE(MODELE=MO,
                   CHAM_MATER=CHAM_MAT,
                   CARA_ELEM=CAR_ELE,
                   EXCIT=(_F(CHARGE=CHA,),
                          _F(CHARGE=CHA_P,),),);

SIG_C1_S=CALC_ELEM(
                   RESULTAT=RESU,
                   OPTION='SIGM_ELNO_DEPL',
                   NUME_COUCHE=1,
                   NIVE_COUCHE='SUP',);

SIG_C1_M=CALC_ELEM(
                   RESULTAT=RESU,
                   OPTION='SIGM_ELNO_DEPL',
                   NUME_COUCHE=1,
                   NIVE_COUCHE='MOY',);

SIG_C1_I=CALC_ELEM(
                   RESULTAT=RESU,
                   OPTION='SIGM_ELNO_DEPL',
                   NUME_COUCHE=1,
                   NIVE_COUCHE='INF',);

EFF=CALC_ELEM(
              RESULTAT=RESU,
              OPTION='EFGE_ELNO_DEPL',
              PLAN='MOY',);

IMPR_RESU(MODELE=MO,
          RESU=_F(FORMAT='IDEAS',
                  MAILLAGE=MA,
                  RESULTAT=RESU,),);

TEST_RESU(RESU=(_F(RESULTAT=RESU,
                   NUME_ORDRE=1,
                   NOM_CHAM='DEPL',
                   NOM_CMP='DZ',
                   GROUP_NO='O',
                   VALE=-1.1549,
                   PRECISION=0.05,
                   REFERENCE='ANALYTIQUE',),
                _F(RESULTAT=SIG_C1_I,
                   NUME_ORDRE=1,
                   NOM_CHAM='SIGM_ELNO_DEPL',
                   NOM_CMP='SIXX',
                   MAILLE='M300',
                   GROUP_NO='O',
                   VALE=18.99,
                   PRECISION=0.01,
                   REFERENCE='ANALYTIQUE',),
                _F(RESULTAT=SIG_C1_I,
                   NUME_ORDRE=1,
                   NOM_CHAM='SIGM_ELNO_DEPL',
                   NOM_CMP='SIYY',
                   MAILLE='M300',
                   GROUP_NO='O',
                   VALE=18.99,
                   PRECISION=0.01,
                   REFERENCE='ANALYTIQUE',),
                _F(RESULTAT=SIG_C1_I,
                   NUME_ORDRE=1,
                   NOM_CHAM='SIGM_ELNO_DEPL',
                   NOM_CMP='SIXY',
                   MAILLE='M300',
                   GROUP_NO='O',
                   VALE=0.0,
                   CRITERE='ABSOLU',
                   PRECISION=0.01,
                   REFERENCE='ANALYTIQUE',),
                _F(RESULTAT=SIG_C1_I,
                   NUME_ORDRE=1,
                   NOM_CHAM='SIGM_ELNO_DEPL',
                   NOM_CMP='SIXZ',
                   MAILLE='M300',
                   GROUP_NO='O',
                   VALE=0.0,
                   CRITERE='ABSOLU',
                   PRECISION=0.01,
                   REFERENCE='ANALYTIQUE',),
                _F(RESULTAT=SIG_C1_I,
                   NUME_ORDRE=1,
                   NOM_CHAM='SIGM_ELNO_DEPL',
                   NOM_CMP='SIYZ',
                   MAILLE='M300',
                   GROUP_NO='O',
                   VALE=0.0,
                   CRITERE='ABSOLU',
                   PRECISION=0.01,
                   REFERENCE='ANALYTIQUE',),
                _F(RESULTAT=SIG_C1_M,
                   NUME_ORDRE=1,
                   NOM_CHAM='SIGM_ELNO_DEPL',
                   NOM_CMP='SIXX',
                   MAILLE='M300',
                   GROUP_NO='O',
                   VALE=0.0,
                   CRITERE='ABSOLU',
                   PRECISION=0.01,
                   REFERENCE='ANALYTIQUE',),
                _F(RESULTAT=SIG_C1_M,
                   NUME_ORDRE=1,
                   NOM_CHAM='SIGM_ELNO_DEPL',
                   NOM_CMP='SIYY',
                   MAILLE='M300',
                   GROUP_NO='O',
                   VALE=0.0,
                   CRITERE='ABSOLU',
                   PRECISION=0.01,
                   REFERENCE='ANALYTIQUE',),
                _F(RESULTAT=SIG_C1_M,
                   NUME_ORDRE=1,
                   NOM_CHAM='SIGM_ELNO_DEPL',
                   NOM_CMP='SIXY',
                   MAILLE='M300',
                   GROUP_NO='O',
                   VALE=0.0,
                   CRITERE='ABSOLU',
                   PRECISION=0.01,
                   REFERENCE='ANALYTIQUE',),
                _F(RESULTAT=SIG_C1_M,
                   NUME_ORDRE=1,
                   NOM_CHAM='SIGM_ELNO_DEPL',
                   NOM_CMP='SIXZ',
                   MAILLE='M300',
                   GROUP_NO='O',
                   VALE=0.0,
                   CRITERE='ABSOLU',
                   PRECISION=0.26,
                   REFERENCE='ANALYTIQUE',),
                _F(RESULTAT=SIG_C1_M,
                   NUME_ORDRE=1,
                   NOM_CHAM='SIGM_ELNO_DEPL',
                   NOM_CMP='SIYZ',
                   MAILLE='M300',
                   GROUP_NO='O',
                   VALE=0.0,
                   CRITERE='ABSOLU',
                   PRECISION=0.26,
                   REFERENCE='ANALYTIQUE',),
                _F(RESULTAT=SIG_C1_S,
                   NUME_ORDRE=1,
                   NOM_CHAM='SIGM_ELNO_DEPL',
                   NOM_CMP='SIXX',
                   MAILLE='M300',
                   GROUP_NO='O',
                   VALE=-18.99,
                   PRECISION=0.01,
                   REFERENCE='ANALYTIQUE',),
                _F(RESULTAT=SIG_C1_S,
                   NUME_ORDRE=1,
                   NOM_CHAM='SIGM_ELNO_DEPL',
                   NOM_CMP='SIYY',
                   MAILLE='M300',
                   GROUP_NO='O',
                   VALE=-18.99,
                   PRECISION=0.01,
                   REFERENCE='ANALYTIQUE',),
                _F(RESULTAT=SIG_C1_S,
                   NUME_ORDRE=1,
                   NOM_CHAM='SIGM_ELNO_DEPL',
                   NOM_CMP='SIXY',
                   MAILLE='M300',
                   GROUP_NO='O',
                   VALE=0.0,
                   CRITERE='ABSOLU',
                   PRECISION=0.01,
                   REFERENCE='ANALYTIQUE',),
                _F(RESULTAT=SIG_C1_S,
                   NUME_ORDRE=1,
                   NOM_CHAM='SIGM_ELNO_DEPL',
                   NOM_CMP='SIXZ',
                   MAILLE='M300',
                   GROUP_NO='O',
                   VALE=0.0,
                   CRITERE='ABSOLU',
                   PRECISION=0.01,
                   REFERENCE='ANALYTIQUE',),
                _F(RESULTAT=SIG_C1_S,
                   NUME_ORDRE=1,
                   NOM_CHAM='SIGM_ELNO_DEPL',
                   NOM_CMP='SIYZ',
                   MAILLE='M300',
                   GROUP_NO='O',
                   VALE=0.0,
                   CRITERE='ABSOLU',
                   PRECISION=0.01,
                   REFERENCE='ANALYTIQUE',),
                _F(RESULTAT=SIG_C1_I,
                   NUME_ORDRE=1,
                   NOM_CHAM='SIGM_ELNO_DEPL',
                   NOM_CMP='SIXX',
                   MAILLE='M12',
                   GROUP_NO='B1',
                   VALE=0.0,
                   CRITERE='ABSOLU',
                   PRECISION=0.1,
                   REFERENCE='ANALYTIQUE',),
                _F(RESULTAT=SIG_C1_I,
                   NUME_ORDRE=1,
                   NOM_CHAM='SIGM_ELNO_DEPL',
                   NOM_CMP='SIYY',
                   MAILLE='M12',
                   GROUP_NO='B1',
                   VALE=0.0,
                   CRITERE='ABSOLU',
                   PRECISION=0.4,
                   REFERENCE='ANALYTIQUE',),
                _F(RESULTAT=SIG_C1_I,
                   NUME_ORDRE=1,
                   NOM_CHAM='SIGM_ELNO_DEPL',
                   NOM_CMP='SIXY',
                   MAILLE='M12',
                   GROUP_NO='B1',
                   VALE=0.0,
                   CRITERE='ABSOLU',
                   PRECISION=0.74,
                   REFERENCE='ANALYTIQUE',),
                _F(RESULTAT=SIG_C1_I,
                   NUME_ORDRE=1,
                   NOM_CHAM='SIGM_ELNO_DEPL',
                   NOM_CMP='SIXZ',
                   MAILLE='M12',
                   GROUP_NO='B1',
                   VALE=0.0,
                   CRITERE='ABSOLU',
                   PRECISION=0.01,
                   REFERENCE='ANALYTIQUE',),
                _F(RESULTAT=SIG_C1_I,
                   NUME_ORDRE=1,
                   NOM_CHAM='SIGM_ELNO_DEPL',
                   NOM_CMP='SIYZ',
                   MAILLE='M12',
                   GROUP_NO='B1',
                   VALE=0.0,
                   CRITERE='ABSOLU',
                   PRECISION=0.01,
                   REFERENCE='ANALYTIQUE',),
                _F(RESULTAT=SIG_C1_M,
                   NUME_ORDRE=1,
                   NOM_CHAM='SIGM_ELNO_DEPL',
                   NOM_CMP='SIXX',
                   MAILLE='M12',
                   GROUP_NO='B1',
                   VALE=0.0,
                   CRITERE='ABSOLU',
                   PRECISION=0.01,
                   REFERENCE='ANALYTIQUE',),
                _F(RESULTAT=SIG_C1_M,
                   NUME_ORDRE=1,
                   NOM_CHAM='SIGM_ELNO_DEPL',
                   NOM_CMP='SIYY',
                   MAILLE='M12',
                   GROUP_NO='B1',
                   VALE=0.0,
                   CRITERE='ABSOLU',
                   PRECISION=0.01,
                   REFERENCE='ANALYTIQUE',),
                _F(RESULTAT=SIG_C1_M,
                   NUME_ORDRE=1,
                   NOM_CHAM='SIGM_ELNO_DEPL',
                   NOM_CMP='SIXY',
                   MAILLE='M12',
                   GROUP_NO='B1',
                   VALE=0.0,
                   CRITERE='ABSOLU',
                   PRECISION=0.01,
                   REFERENCE='ANALYTIQUE',),
                _F(RESULTAT=SIG_C1_M,
                   NUME_ORDRE=1,
                   NOM_CHAM='SIGM_ELNO_DEPL',
                   NOM_CMP='SIXZ',
                   MAILLE='M12',
                   GROUP_NO='B1',
                   VALE=0.0,
                   CRITERE='ABSOLU',
                   PRECISION=0.26,
                   REFERENCE='ANALYTIQUE',),
                _F(RESULTAT=SIG_C1_M,
                   NUME_ORDRE=1,
                   NOM_CHAM='SIGM_ELNO_DEPL',
                   NOM_CMP='SIYZ',
                   MAILLE='M12',
                   GROUP_NO='B1',
                   VALE=-2.39732,
                   PRECISION=0.21,
                   REFERENCE='ANALYTIQUE',),
                _F(RESULTAT=SIG_C1_S,
                   NUME_ORDRE=1,
                   NOM_CHAM='SIGM_ELNO_DEPL',
                   NOM_CMP='SIXX',
                   MAILLE='M12',
                   GROUP_NO='B1',
                   VALE=0.0,
                   CRITERE='ABSOLU',
                   PRECISION=0.1,
                   REFERENCE='ANALYTIQUE',),
                _F(RESULTAT=SIG_C1_S,
                   NUME_ORDRE=1,
                   NOM_CHAM='SIGM_ELNO_DEPL',
                   NOM_CMP='SIYY',
                   MAILLE='M12',
                   GROUP_NO='B1',
                   VALE=0.0,
                   CRITERE='ABSOLU',
                   PRECISION=0.4,
                   REFERENCE='ANALYTIQUE',),
                _F(RESULTAT=SIG_C1_S,
                   NUME_ORDRE=1,
                   NOM_CHAM='SIGM_ELNO_DEPL',
                   NOM_CMP='SIXY',
                   MAILLE='M12',
                   GROUP_NO='B1',
                   VALE=0.0,
                   CRITERE='ABSOLU',
                   PRECISION=0.74,
                   REFERENCE='ANALYTIQUE',),
                _F(RESULTAT=SIG_C1_S,
                   NUME_ORDRE=1,
                   NOM_CHAM='SIGM_ELNO_DEPL',
                   NOM_CMP='SIXZ',
                   MAILLE='M12',
                   GROUP_NO='B1',
                   VALE=0.0,
                   CRITERE='ABSOLU',
                   PRECISION=0.01,
                   REFERENCE='ANALYTIQUE',),
                _F(RESULTAT=SIG_C1_S,
                   NUME_ORDRE=1,
                   NOM_CHAM='SIGM_ELNO_DEPL',
                   NOM_CMP='SIYZ',
                   MAILLE='M12',
                   GROUP_NO='B1',
                   VALE=0.0,
                   CRITERE='ABSOLU',
                   PRECISION=0.01,
                   REFERENCE='ANALYTIQUE',),
                _F(RESULTAT=EFF,
                   NUME_ORDRE=1,
                   NOM_CHAM='EFGE_ELNO_DEPL',
                   NOM_CMP='NXX',
                   MAILLE='M300',
                   GROUP_NO='O',
                   VALE=0.0,
                   CRITERE='ABSOLU',
                   PRECISION=0.01,
                   REFERENCE='ANALYTIQUE',),
                _F(RESULTAT=EFF,
                   NUME_ORDRE=1,
                   NOM_CHAM='EFGE_ELNO_DEPL',
                   NOM_CMP='NYY',
                   MAILLE='M300',
                   GROUP_NO='O',
                   VALE=0.0,
                   CRITERE='ABSOLU',
                   PRECISION=0.01,
                   REFERENCE='ANALYTIQUE',),
                _F(RESULTAT=EFF,
                   NUME_ORDRE=1,
                   NOM_CHAM='EFGE_ELNO_DEPL',
                   NOM_CMP='NXY',
                   MAILLE='M300',
                   GROUP_NO='O',
                   VALE=0.0,
                   CRITERE='ABSOLU',
                   PRECISION=0.01,
                   REFERENCE='ANALYTIQUE',),
                _F(RESULTAT=EFF,
                   NUME_ORDRE=1,
                   NOM_CHAM='EFGE_ELNO_DEPL',
                   NOM_CMP='MXX',
                   MAILLE='M300',
                   GROUP_NO='O',
                   VALE=-0.0316628,
                   PRECISION=0.01,
                   REFERENCE='ANALYTIQUE',),
                _F(RESULTAT=EFF,
                   NUME_ORDRE=1,
                   NOM_CHAM='EFGE_ELNO_DEPL',
                   NOM_CMP='MYY',
                   MAILLE='M300',
                   GROUP_NO='O',
                   VALE=-0.0316628,
                   PRECISION=0.01,
                   REFERENCE='ANALYTIQUE',),
                _F(RESULTAT=EFF,
                   NUME_ORDRE=1,
                   NOM_CHAM='EFGE_ELNO_DEPL',
                   NOM_CMP='MXY',
                   MAILLE='M300',
                   GROUP_NO='O',
                   VALE=0.0,
                   CRITERE='ABSOLU',
                   PRECISION=0.01,
                   REFERENCE='ANALYTIQUE',),
                _F(RESULTAT=EFF,
                   NUME_ORDRE=1,
                   NOM_CHAM='EFGE_ELNO_DEPL',
                   NOM_CMP='QX',
                   MAILLE='M300',
                   GROUP_NO='O',
                   VALE=0.0,
                   CRITERE='ABSOLU',
                   PRECISION=0.02,
                   REFERENCE='ANALYTIQUE',),
                _F(RESULTAT=EFF,
                   NUME_ORDRE=1,
                   NOM_CHAM='EFGE_ELNO_DEPL',
                   NOM_CMP='QY',
                   MAILLE='M300',
                   GROUP_NO='O',
                   VALE=0.0,
                   CRITERE='ABSOLU',
                   PRECISION=0.02,
                   REFERENCE='ANALYTIQUE',),
                _F(RESULTAT=EFF,
                   NUME_ORDRE=1,
                   NOM_CHAM='EFGE_ELNO_DEPL',
                   NOM_CMP='QX',
                   MAILLE='M301',
                   GROUP_NO='O',
                   VALE=0.0,
                   CRITERE='ABSOLU',
                   PRECISION=0.02,
                   REFERENCE='ANALYTIQUE',),
                _F(RESULTAT=EFF,
                   NUME_ORDRE=1,
                   NOM_CHAM='EFGE_ELNO_DEPL',
                   NOM_CMP='QY',
                   MAILLE='M301',
                   GROUP_NO='O',
                   VALE=0.0,
                   CRITERE='ABSOLU',
                   PRECISION=0.02,
                   REFERENCE='ANALYTIQUE',),
                _F(RESULTAT=EFF,
                   NUME_ORDRE=1,
                   NOM_CHAM='EFGE_ELNO_DEPL',
                   NOM_CMP='QX',
                   MAILLE='M276',
                   GROUP_NO='O',
                   VALE=0.0,
                   CRITERE='ABSOLU',
                   PRECISION=0.02,
                   REFERENCE='ANALYTIQUE',),
                _F(RESULTAT=EFF,
                   NUME_ORDRE=1,
                   NOM_CHAM='EFGE_ELNO_DEPL',
                   NOM_CMP='QY',
                   MAILLE='M276',
                   GROUP_NO='O',
                   VALE=0.0,
                   CRITERE='ABSOLU',
                   PRECISION=0.02,
                   REFERENCE='ANALYTIQUE',),
                _F(RESULTAT=EFF,
                   NUME_ORDRE=1,
                   NOM_CHAM='EFGE_ELNO_DEPL',
                   NOM_CMP='QX',
                   MAILLE='M277',
                   GROUP_NO='O',
                   VALE=0.0,
                   CRITERE='ABSOLU',
                   PRECISION=0.02,
                   REFERENCE='ANALYTIQUE',),
                _F(RESULTAT=EFF,
                   NUME_ORDRE=1,
                   NOM_CHAM='EFGE_ELNO_DEPL',
                   NOM_CMP='QY',
                   MAILLE='M277',
                   GROUP_NO='O',
                   VALE=0.0,
                   CRITERE='ABSOLU',
                   PRECISION=0.02,
                   REFERENCE='ANALYTIQUE',),
                _F(RESULTAT=EFF,
                   NUME_ORDRE=1,
                   NOM_CHAM='EFGE_ELNO_DEPL',
                   NOM_CMP='NXX',
                   MAILLE='M576',
                   GROUP_NO='C',
                   VALE=0.0,
                   CRITERE='ABSOLU',
                   PRECISION=0.01,
                   REFERENCE='ANALYTIQUE',),
                _F(RESULTAT=EFF,
                   NUME_ORDRE=1,
                   NOM_CHAM='EFGE_ELNO_DEPL',
                   NOM_CMP='NYY',
                   MAILLE='M576',
                   GROUP_NO='C',
                   VALE=0.0,
                   CRITERE='ABSOLU',
                   PRECISION=0.01,
                   REFERENCE='ANALYTIQUE',),
                _F(RESULTAT=EFF,
                   NUME_ORDRE=1,
                   NOM_CHAM='EFGE_ELNO_DEPL',
                   NOM_CMP='NXY',
                   MAILLE='M576',
                   GROUP_NO='C',
                   VALE=0.0,
                   CRITERE='ABSOLU',
                   PRECISION=0.01,
                   REFERENCE='ANALYTIQUE',),
                _F(RESULTAT=EFF,
                   NUME_ORDRE=1,
                   NOM_CHAM='EFGE_ELNO_DEPL',
                   NOM_CMP='MXX',
                   MAILLE='M576',
                   GROUP_NO='C',
                   VALE=0.0,
                   CRITERE='ABSOLU',
                   PRECISION=0.01,
                   REFERENCE='ANALYTIQUE',),
                _F(RESULTAT=EFF,
                   NUME_ORDRE=1,
                   NOM_CHAM='EFGE_ELNO_DEPL',
                   NOM_CMP='MYY',
                   MAILLE='M576',
                   GROUP_NO='C',
                   VALE=0.0,
                   CRITERE='ABSOLU',
                   PRECISION=0.01,
                   REFERENCE='ANALYTIQUE',),
                _F(RESULTAT=EFF,
                   NUME_ORDRE=1,
                   NOM_CHAM='EFGE_ELNO_DEPL',
                   NOM_CMP='MXY',
                   MAILLE='M576',
                   GROUP_NO='C',
                   VALE=0.0189978,
                   PRECISION=0.03,
                   REFERENCE='ANALYTIQUE',),
                _F(RESULTAT=EFF,
                   NUME_ORDRE=1,
                   NOM_CHAM='EFGE_ELNO_DEPL',
                   NOM_CMP='QX',
                   MAILLE='M576',
                   GROUP_NO='C',
                   VALE=0.0,
                   CRITERE='ABSOLU',
                   PRECISION=0.01,
                   REFERENCE='ANALYTIQUE',),
                _F(RESULTAT=EFF,
                   NUME_ORDRE=1,
                   NOM_CHAM='EFGE_ELNO_DEPL',
                   NOM_CMP='QY',
                   MAILLE='M576',
                   GROUP_NO='C',
                   VALE=0.0,
                   CRITERE='ABSOLU',
                   PRECISION=0.01,
                   REFERENCE='ANALYTIQUE',),
                _F(RESULTAT=EFF,
                   NUME_ORDRE=1,
                   NOM_CHAM='EFGE_ELNO_DEPL',
                   NOM_CMP='NXX',
                   MAILLE='M553',
                   GROUP_NO='D',
                   VALE=0.0,
                   CRITERE='ABSOLU',
                   PRECISION=0.01,
                   REFERENCE='ANALYTIQUE',),
                _F(RESULTAT=EFF,
                   NUME_ORDRE=1,
                   NOM_CHAM='EFGE_ELNO_DEPL',
                   NOM_CMP='NYY',
                   MAILLE='M553',
                   GROUP_NO='D',
                   VALE=0.0,
                   CRITERE='ABSOLU',
                   PRECISION=0.01,
                   REFERENCE='ANALYTIQUE',),
                _F(RESULTAT=EFF,
                   NUME_ORDRE=1,
                   NOM_CHAM='EFGE_ELNO_DEPL',
                   NOM_CMP='NXY',
                   MAILLE='M553',
                   GROUP_NO='D',
                   VALE=0.0,
                   CRITERE='ABSOLU',
                   PRECISION=0.01,
                   REFERENCE='ANALYTIQUE',),
                _F(RESULTAT=EFF,
                   NUME_ORDRE=1,
                   NOM_CHAM='EFGE_ELNO_DEPL',
                   NOM_CMP='MXX',
                   MAILLE='M553',
                   GROUP_NO='D',
                   VALE=0.0,
                   CRITERE='ABSOLU',
                   PRECISION=0.01,
                   REFERENCE='ANALYTIQUE',),
                _F(RESULTAT=EFF,
                   NUME_ORDRE=1,
                   NOM_CHAM='EFGE_ELNO_DEPL',
                   NOM_CMP='MYY',
                   MAILLE='M553',
                   GROUP_NO='D',
                   VALE=0.0,
                   CRITERE='ABSOLU',
                   PRECISION=0.01,
                   REFERENCE='ANALYTIQUE',),
                _F(RESULTAT=EFF,
                   NUME_ORDRE=1,
                   NOM_CHAM='EFGE_ELNO_DEPL',
                   NOM_CMP='MXY',
                   MAILLE='M553',
                   GROUP_NO='D',
                   VALE=-0.0189978,
                   PRECISION=0.03,
                   REFERENCE='ANALYTIQUE',),
                _F(RESULTAT=EFF,
                   NUME_ORDRE=1,
                   NOM_CHAM='EFGE_ELNO_DEPL',
                   NOM_CMP='QX',
                   MAILLE='M553',
                   GROUP_NO='D',
                   VALE=0.0,
                   CRITERE='ABSOLU',
                   PRECISION=0.01,
                   REFERENCE='ANALYTIQUE',),
                _F(RESULTAT=EFF,
                   NUME_ORDRE=1,
                   NOM_CHAM='EFGE_ELNO_DEPL',
                   NOM_CMP='QY',
                   MAILLE='M553',
                   GROUP_NO='D',
                   VALE=0.0,
                   CRITERE='ABSOLU',
                   PRECISION=0.01,
                   REFERENCE='ANALYTIQUE',),
                _F(RESULTAT=EFF,
                   NUME_ORDRE=1,
                   NOM_CHAM='EFGE_ELNO_DEPL',
                   NOM_CMP='NXX',
                   MAILLE='M289',
                   GROUP_NO='D1',
                   VALE=0.0,
                   CRITERE='ABSOLU',
                   PRECISION=0.01,
                   REFERENCE='ANALYTIQUE',),
                _F(RESULTAT=EFF,
                   NUME_ORDRE=1,
                   NOM_CHAM='EFGE_ELNO_DEPL',
                   NOM_CMP='NYY',
                   MAILLE='M289',
                   GROUP_NO='D1',
                   VALE=0.0,
                   CRITERE='ABSOLU',
                   PRECISION=0.01,
                   REFERENCE='ANALYTIQUE',),
                _F(RESULTAT=EFF,
                   NUME_ORDRE=1,
                   NOM_CHAM='EFGE_ELNO_DEPL',
                   NOM_CMP='NXY',
                   MAILLE='M289',
                   GROUP_NO='D1',
                   VALE=0.0,
                   CRITERE='ABSOLU',
                   PRECISION=0.01,
                   REFERENCE='ANALYTIQUE',),
                _F(RESULTAT=EFF,
                   NUME_ORDRE=1,
                   NOM_CHAM='EFGE_ELNO_DEPL',
                   NOM_CMP='MXX',
                   MAILLE='M289',
                   GROUP_NO='D1',
                   VALE=0.0,
                   CRITERE='ABSOLU',
                   PRECISION=0.01,
                   REFERENCE='ANALYTIQUE',),
                _F(RESULTAT=EFF,
                   NUME_ORDRE=1,
                   NOM_CHAM='EFGE_ELNO_DEPL',
                   NOM_CMP='MYY',
                   MAILLE='M289',
                   GROUP_NO='D1',
                   VALE=0.0,
                   CRITERE='ABSOLU',
                   PRECISION=0.01,
                   REFERENCE='ANALYTIQUE',),
                _F(RESULTAT=EFF,
                   NUME_ORDRE=1,
                   NOM_CHAM='EFGE_ELNO_DEPL',
                   NOM_CMP='MXY',
                   MAILLE='M289',
                   GROUP_NO='D1',
                   VALE=0.0,
                   CRITERE='ABSOLU',
                   PRECISION=0.01,
                   REFERENCE='ANALYTIQUE',),
                _F(RESULTAT=EFF,
                   NUME_ORDRE=1,
                   NOM_CHAM='EFGE_ELNO_DEPL',
                   NOM_CMP='QX',
                   MAILLE='M289',
                   GROUP_NO='D1',
                   VALE=-0.159155,
                   PRECISION=0.21,
                   REFERENCE='ANALYTIQUE',),
                _F(RESULTAT=EFF,
                   NUME_ORDRE=1,
                   NOM_CHAM='EFGE_ELNO_DEPL',
                   NOM_CMP='QY',
                   MAILLE='M289',
                   GROUP_NO='D1',
                   VALE=0.0,
                   CRITERE='ABSOLU',
                   PRECISION=0.01,
                   REFERENCE='ANALYTIQUE',),
                _F(RESULTAT=EFF,
                   NUME_ORDRE=1,
                   NOM_CHAM='EFGE_ELNO_DEPL',
                   NOM_CMP='QX',
                   MAILLE='M265',
                   GROUP_NO='D1',
                   VALE=-0.159155,
                   PRECISION=0.21,
                   REFERENCE='ANALYTIQUE',),
                _F(RESULTAT=EFF,
                   NUME_ORDRE=1,
                   NOM_CHAM='EFGE_ELNO_DEPL',
                   NOM_CMP='QY',
                   MAILLE='M265',
                   GROUP_NO='D1',
                   VALE=0.0,
                   CRITERE='ABSOLU',
                   PRECISION=0.01,
                   REFERENCE='ANALYTIQUE',),
                _F(RESULTAT=EFF,
                   NUME_ORDRE=1,
                   NOM_CHAM='EFGE_ELNO_DEPL',
                   NOM_CMP='NXX',
                   MAILLE='M1',
                   GROUP_NO='A',
                   VALE=0.0,
                   CRITERE='ABSOLU',
                   PRECISION=0.01,
                   REFERENCE='ANALYTIQUE',),
                _F(RESULTAT=EFF,
                   NUME_ORDRE=1,
                   NOM_CHAM='EFGE_ELNO_DEPL',
                   NOM_CMP='NYY',
                   MAILLE='M1',
                   GROUP_NO='A',
                   VALE=0.0,
                   CRITERE='ABSOLU',
                   PRECISION=0.01,
                   REFERENCE='ANALYTIQUE',),
                _F(RESULTAT=EFF,
                   NUME_ORDRE=1,
                   NOM_CHAM='EFGE_ELNO_DEPL',
                   NOM_CMP='NXY',
                   MAILLE='M1',
                   GROUP_NO='A',
                   VALE=0.0,
                   CRITERE='ABSOLU',
                   PRECISION=0.01,
                   REFERENCE='ANALYTIQUE',),
                _F(RESULTAT=EFF,
                   NUME_ORDRE=1,
                   NOM_CHAM='EFGE_ELNO_DEPL',
                   NOM_CMP='MXX',
                   MAILLE='M1',
                   GROUP_NO='A',
                   VALE=0.0,
                   CRITERE='ABSOLU',
                   PRECISION=0.01,
                   REFERENCE='ANALYTIQUE',),
                _F(RESULTAT=EFF,
                   NUME_ORDRE=1,
                   NOM_CHAM='EFGE_ELNO_DEPL',
                   NOM_CMP='MYY',
                   MAILLE='M1',
                   GROUP_NO='A',
                   VALE=0.0,
                   CRITERE='ABSOLU',
                   PRECISION=0.01,
                   REFERENCE='ANALYTIQUE',),
                _F(RESULTAT=EFF,
                   NUME_ORDRE=1,
                   NOM_CHAM='EFGE_ELNO_DEPL',
                   NOM_CMP='MXY',
                   MAILLE='M1',
                   GROUP_NO='A',
                   VALE=0.0189978,
                   PRECISION=0.03,
                   REFERENCE='ANALYTIQUE',),
                _F(RESULTAT=EFF,
                   NUME_ORDRE=1,
                   NOM_CHAM='EFGE_ELNO_DEPL',
                   NOM_CMP='QY',
                   MAILLE='M1',
                   GROUP_NO='A',
                   VALE=0.0,
                   CRITERE='ABSOLU',
                   PRECISION=0.01,
                   REFERENCE='ANALYTIQUE',),
                _F(RESULTAT=EFF,
                   NUME_ORDRE=1,
                   NOM_CHAM='EFGE_ELNO_DEPL',
                   NOM_CMP='QX',
                   MAILLE='M1',
                   GROUP_NO='A',
                   VALE=0.0,
                   CRITERE='ABSOLU',
                   PRECISION=0.01,
                   REFERENCE='ANALYTIQUE',),
                _F(RESULTAT=EFF,
                   NUME_ORDRE=1,
                   NOM_CHAM='EFGE_ELNO_DEPL',
                   NOM_CMP='NXX',
                   MAILLE='M24',
                   GROUP_NO='B',
                   VALE=0.0,
                   CRITERE='ABSOLU',
                   PRECISION=0.01,
                   REFERENCE='ANALYTIQUE',),
                _F(RESULTAT=EFF,
                   NUME_ORDRE=1,
                   NOM_CHAM='EFGE_ELNO_DEPL',
                   NOM_CMP='NYY',
                   MAILLE='M24',
                   GROUP_NO='B',
                   VALE=0.0,
                   CRITERE='ABSOLU',
                   PRECISION=0.01,
                   REFERENCE='ANALYTIQUE',),
                _F(RESULTAT=EFF,
                   NUME_ORDRE=1,
                   NOM_CHAM='EFGE_ELNO_DEPL',
                   NOM_CMP='NXY',
                   MAILLE='M24',
                   GROUP_NO='B',
                   VALE=0.0,
                   CRITERE='ABSOLU',
                   PRECISION=0.01,
                   REFERENCE='ANALYTIQUE',),
                _F(RESULTAT=EFF,
                   NUME_ORDRE=1,
                   NOM_CHAM='EFGE_ELNO_DEPL',
                   NOM_CMP='MXX',
                   MAILLE='M24',
                   GROUP_NO='B',
                   VALE=0.0,
                   CRITERE='ABSOLU',
                   PRECISION=0.01,
                   REFERENCE='ANALYTIQUE',),
                _F(RESULTAT=EFF,
                   NUME_ORDRE=1,
                   NOM_CHAM='EFGE_ELNO_DEPL',
                   NOM_CMP='MYY',
                   MAILLE='M24',
                   GROUP_NO='B',
                   VALE=0.0,
                   CRITERE='ABSOLU',
                   PRECISION=0.01,
                   REFERENCE='ANALYTIQUE',),
                _F(RESULTAT=EFF,
                   NUME_ORDRE=1,
                   NOM_CHAM='EFGE_ELNO_DEPL',
                   NOM_CMP='MXY',
                   MAILLE='M24',
                   GROUP_NO='B',
                   VALE=-0.0189978,
                   PRECISION=0.03,
                   REFERENCE='ANALYTIQUE',),
                _F(RESULTAT=EFF,
                   NUME_ORDRE=1,
                   NOM_CHAM='EFGE_ELNO_DEPL',
                   NOM_CMP='QY',
                   MAILLE='M24',
                   GROUP_NO='B',
                   VALE=0.0,
                   CRITERE='ABSOLU',
                   PRECISION=0.01,
                   REFERENCE='ANALYTIQUE',),
                _F(RESULTAT=EFF,
                   NUME_ORDRE=1,
                   NOM_CHAM='EFGE_ELNO_DEPL',
                   NOM_CMP='QX',
                   MAILLE='M24',
                   GROUP_NO='B',
                   VALE=0.0,
                   CRITERE='ABSOLU',
                   PRECISION=0.01,
                   REFERENCE='ANALYTIQUE',),
                _F(RESULTAT=EFF,
                   NUME_ORDRE=1,
                   NOM_CHAM='EFGE_ELNO_DEPL',
                   NOM_CMP='NXX',
                   MAILLE='M12',
                   GROUP_NO='B1',
                   VALE=0.0,
                   CRITERE='ABSOLU',
                   PRECISION=0.01,
                   REFERENCE='ANALYTIQUE',),
                _F(RESULTAT=EFF,
                   NUME_ORDRE=1,
                   NOM_CHAM='EFGE_ELNO_DEPL',
                   NOM_CMP='NYY',
                   MAILLE='M12',
                   GROUP_NO='B1',
                   VALE=0.0,
                   CRITERE='ABSOLU',
                   PRECISION=0.01,
                   REFERENCE='ANALYTIQUE',),
                _F(RESULTAT=EFF,
                   NUME_ORDRE=1,
                   NOM_CHAM='EFGE_ELNO_DEPL',
                   NOM_CMP='NXY',
                   MAILLE='M12',
                   GROUP_NO='B1',
                   VALE=0.0,
                   CRITERE='ABSOLU',
                   PRECISION=0.01,
                   REFERENCE='ANALYTIQUE',),
                _F(RESULTAT=EFF,
                   NUME_ORDRE=1,
                   NOM_CHAM='EFGE_ELNO_DEPL',
                   NOM_CMP='MXX',
                   MAILLE='M12',
                   GROUP_NO='B1',
                   VALE=0.0,
                   CRITERE='ABSOLU',
                   PRECISION=0.01,
                   REFERENCE='ANALYTIQUE',),
                _F(RESULTAT=EFF,
                   NUME_ORDRE=1,
                   NOM_CHAM='EFGE_ELNO_DEPL',
                   NOM_CMP='MYY',
                   MAILLE='M12',
                   GROUP_NO='B1',
                   VALE=0.0,
                   CRITERE='ABSOLU',
                   PRECISION=0.01,
                   REFERENCE='ANALYTIQUE',),
                _F(RESULTAT=EFF,
                   NUME_ORDRE=1,
                   NOM_CHAM='EFGE_ELNO_DEPL',
                   NOM_CMP='MXY',
                   MAILLE='M12',
                   GROUP_NO='B1',
                   VALE=0.0,
                   CRITERE='ABSOLU',
                   PRECISION=0.01,
                   REFERENCE='ANALYTIQUE',),
                _F(RESULTAT=EFF,
                   NUME_ORDRE=1,
                   NOM_CHAM='EFGE_ELNO_DEPL',
                   NOM_CMP='QY',
                   MAILLE='M12',
                   GROUP_NO='B1',
                   VALE=-0.159155,
                   PRECISION=0.21,
                   REFERENCE='ANALYTIQUE',),
                _F(RESULTAT=EFF,
                   NUME_ORDRE=1,
                   NOM_CHAM='EFGE_ELNO_DEPL',
                   NOM_CMP='QX',
                   MAILLE='M12',
                   GROUP_NO='B1',
                   VALE=0.0,
                   CRITERE='ABSOLU',
                   PRECISION=0.01,
                   REFERENCE='ANALYTIQUE',),
                _F(RESULTAT=EFF,
                   NUME_ORDRE=1,
                   NOM_CHAM='EFGE_ELNO_DEPL',
                   NOM_CMP='NXX',
                   MAILLE='M13',
                   GROUP_NO='B1',
                   VALE=0.0,
                   CRITERE='ABSOLU',
                   PRECISION=0.01,
                   REFERENCE='ANALYTIQUE',),
                _F(RESULTAT=EFF,
                   NUME_ORDRE=1,
                   NOM_CHAM='EFGE_ELNO_DEPL',
                   NOM_CMP='NYY',
                   MAILLE='M13',
                   GROUP_NO='B1',
                   VALE=0.0,
                   CRITERE='ABSOLU',
                   PRECISION=0.01,
                   REFERENCE='ANALYTIQUE',),
                _F(RESULTAT=EFF,
                   NUME_ORDRE=1,
                   NOM_CHAM='EFGE_ELNO_DEPL',
                   NOM_CMP='NXY',
                   MAILLE='M13',
                   GROUP_NO='B1',
                   VALE=0.0,
                   CRITERE='ABSOLU',
                   PRECISION=0.01,
                   REFERENCE='ANALYTIQUE',),
                _F(RESULTAT=EFF,
                   NUME_ORDRE=1,
                   NOM_CHAM='EFGE_ELNO_DEPL',
                   NOM_CMP='MXX',
                   MAILLE='M13',
                   GROUP_NO='B1',
                   VALE=0.0,
                   CRITERE='ABSOLU',
                   PRECISION=0.01,
                   REFERENCE='ANALYTIQUE',),
                _F(RESULTAT=EFF,
                   NUME_ORDRE=1,
                   NOM_CHAM='EFGE_ELNO_DEPL',
                   NOM_CMP='MYY',
                   MAILLE='M13',
                   GROUP_NO='B1',
                   VALE=0.0,
                   CRITERE='ABSOLU',
                   PRECISION=0.01,
                   REFERENCE='ANALYTIQUE',),
                _F(RESULTAT=EFF,
                   NUME_ORDRE=1,
                   NOM_CHAM='EFGE_ELNO_DEPL',
                   NOM_CMP='MXY',
                   MAILLE='M13',
                   GROUP_NO='B1',
                   VALE=0.0,
                   CRITERE='ABSOLU',
                   PRECISION=0.01,
                   REFERENCE='ANALYTIQUE',),
                _F(RESULTAT=EFF,
                   NUME_ORDRE=1,
                   NOM_CHAM='EFGE_ELNO_DEPL',
                   NOM_CMP='QY',
                   MAILLE='M13',
                   GROUP_NO='B1',
                   VALE=-0.159155,
                   PRECISION=0.21,
                   REFERENCE='ANALYTIQUE',),
                _F(RESULTAT=EFF,
                   NUME_ORDRE=1,
                   NOM_CHAM='EFGE_ELNO_DEPL',
                   NOM_CMP='QX',
                   MAILLE='M13',
                   GROUP_NO='B1',
                   VALE=0.0,
                   CRITERE='ABSOLU',
                   PRECISION=0.01,
                   REFERENCE='ANALYTIQUE',),),);

FIN();
