# MODIF  DATE 17/01/2012   AUTEUR SELLENET N.SELLENET 
# TITRE PLAQUE CIRCULAIRE ENCASTREE SOUS PRESSION DKT  170 N - 296 TRIA3
# ssls100b.para = tps_job 60 mem_job 128Mo ncpus 1 liste_test R
#            CONFIGURATION MANAGEMENT OF EDF VERSION
# ======================================================================
# COPYRIGHT (C) 1991 - 2012  EDF R&D                  WWW.CODE-ASTER.ORG
# THIS PROGRAM IS FREE SOFTWARE; YOU CAN REDISTRIBUTE IT AND/OR MODIFY
# IT UNDER THE TERMS OF THE GNU GENERAL PUBLIC LICENSE AS PUBLISHED BY
# THE FREE SOFTWARE FOUNDATION; EITHER VERSION 2 OF THE LICENSE, OR
# (AT YOUR OPTION) ANY LATER VERSION.
#
# THIS PROGRAM IS DISTRIBUTED IN THE HOPE THAT IT WILL BE USEFUL, BUT
# WITHOUT ANY WARRANTY; WITHOUT EVEN THE IMPLIED WARRANTY OF
# MERCHANTABILITY OR FITNESS FOR A PARTICULAR PURPOSE. SEE THE GNU
# GENERAL PUBLIC LICENSE FOR MORE DETAILS.
#
# YOU SHOULD HAVE RECEIVED A COPY OF THE GNU GENERAL PUBLIC LICENSE
# ALONG WITH THIS PROGRAM; IF NOT, WRITE TO EDF R&D CODE_ASTER,
#    1 AVENUE DU GENERAL DE GAULLE, 92141 CLAMART CEDEX, FRANCE.
# ======================================================================

DEBUT(CODE=_F(NOM='SSLS100B', NIV_PUB_WEB='INTERNET'), DEBUG=_F(SDVERI='OUI'))

#-----------------------------------------------------------------------
# POINTS:   O    MAILLES  M1    M2
#           A             M248  M255
#           B             M292  M293   M296
#           C             M74   M75
#           D             M76   M108   M109
#           E             M34   M40    M41
#           F             M122  M123   M124   M148   M152   M153
#-----------------------------------------------------------------------


MATER=DEFI_MATERIAU( ELAS=_F(  E = 1., NU = 0.3,  RHO = 1.) )

MAILL=LIRE_MAILLAGE(FORMAT='MED',   )

MAILL=DEFI_GROUP( reuse=MAILL,   MAILLAGE=MAILL,
  CREA_GROUP_MA=_F(  NOM = 'TOUT', TOUT = 'OUI'))

CHMAT=AFFE_MATERIAU(  MAILLAGE=MAILL,
                          AFFE=_F(  TOUT = 'OUI',   MATER = MATER) )

MODEL=AFFE_MODELE(  MAILLAGE=MAILL,    VERIF='MAILLE',
                        AFFE=_F( TOUT = 'OUI',   MODELISATION = 'DKT',
                              PHENOMENE = 'MECANIQUE') )

CINE=AFFE_CHAR_MECA(   MODELE=MODEL,DDL_IMPO=(
              _F( GROUP_NO = 'GRNO_ABC', DX = 0.,  DY = 0.,  DZ = 0.,
                                          DRX = 0.,  DRY = 0.,  DRZ = 0.),
                       _F( GROUP_NO = 'GRNO_OA',  DY = 0.,  DRX = 0.,  DRZ = 0.),
                       _F( GROUP_NO = 'GRNO_OC',  DX = 0.,  DRY = 0.,  DRZ = 0.),
                       _F( NOEUD = 'O',        DX = 0.,  DY = 0.,
                                          DRX = 0.,  DRY = 0.,  DRZ = 0.))
                           )

ZERO=DEFI_CONSTANTE(    VALE=0.0 )

VAL_PRES=DEFI_CONSTANTE(     VALE=1. )

VAL_CHF3=DEFI_CONSTANTE(    VALE=-1. )

PRES=AFFE_CHAR_MECA_F(   MODELE=MODEL,
                    FORCE_COQUE=_F(  TOUT = 'OUI',   PRES = VAL_PRES)   )

CHF3=AFFE_CHAR_MECA_F(   MODELE=MODEL,
                    FORCE_COQUE=_F(  TOUT = 'OUI',   F3 = VAL_CHF3)   )

CHPE=AFFE_CHAR_MECA(   MODELE=MODEL,
                      PESANTEUR=_F(GRAVITE= 10.,
                                   DIRECTION=( 0., 0., -1.,), ),)

CARELEM=AFFE_CARA_ELEM(   MODELE=MODEL,
                               COQUE=_F(
       GROUP_MA = 'TOUT',
  EPAIS = 0.1) )

DEP=MACRO_ELAS_MULT(MODELE=MODEL,
                    CHAM_MATER=CHMAT,
                    CARA_ELEM=CARELEM,
                    CHAR_MECA_GLOBAL=CINE,
                    CAS_CHARGE=(_F(NOM_CAS='CHARGE1',
                                   CHAR_MECA=PRES,),
                                _F(NOM_CAS='CHARGE2',
                                   CHAR_MECA=CHF3,),
                                _F(NOM_CAS='CHARGE3',
                                   CHAR_MECA=CHPE,),),);

#--------------------------------------------------------------------

TEST_RESU(RESU=(
     # DEPLACEMENTS PRESSION

          _F(  RESULTAT = DEP, NUME_ORDRE=1, NOM_CHAM='DEPL', CRITERE = 'RELATIF',  PRECISION = 0.5E-2,  # O
REFERENCE='ANALYTIQUE', NOEUD = 'O', NOM_CMP = 'DZ', VALE = -170.6251),
          _F(  RESULTAT = DEP, NUME_ORDRE=1, NOM_CHAM='DEPL', CRITERE = 'ABSOLU',   PRECISION = 1.0E-10, # A
REFERENCE='ANALYTIQUE', NOEUD = 'A', NOM_CMP = 'DZ', VALE = 0.),
          _F(  RESULTAT = DEP, NUME_ORDRE=1, NOM_CHAM='DEPL', CRITERE = 'ABSOLU',   PRECISION = 1.0E-10, # B
REFERENCE='ANALYTIQUE', NOEUD = 'B',          NOM_CMP = 'DZ',     VALE = 0.),
          _F(  RESULTAT = DEP, NUME_ORDRE=1, NOM_CHAM='DEPL', CRITERE = 'ABSOLU',   PRECISION = 1.0E-10, # C
REFERENCE='ANALYTIQUE', NOEUD = 'C',          NOM_CMP = 'DZ',     VALE = 0.),
          _F(  RESULTAT = DEP, NUME_ORDRE=1, NOM_CHAM='DEPL', CRITERE = 'RELATIF',  PRECISION = 0.5E-2,  # D
REFERENCE='ANALYTIQUE', NOEUD = 'D', NOM_CMP = 'DZ', VALE = -95.9766),
          _F(  RESULTAT = DEP, NUME_ORDRE=1, NOM_CHAM='DEPL', CRITERE = 'RELATIF',  PRECISION = 0.5E-2,  # E
REFERENCE='ANALYTIQUE', NOEUD = 'E',          NOM_CMP = 'DZ',        VALE = -95.9766),
          _F(  RESULTAT = DEP, NUME_ORDRE=1, NOM_CHAM='DEPL', CRITERE = 'RELATIF',  PRECISION = 0.5E-2,  # F
REFERENCE='ANALYTIQUE', NOEUD = 'F',          NOM_CMP = 'DZ',        VALE = -78.897),
     # DEPLACEMENTS F3

          _F(  RESULTAT = DEP, NUME_ORDRE=2, NOM_CHAM='DEPL', CRITERE = 'RELATIF',  PRECISION = 0.5E-2,  # O
REFERENCE='ANALYTIQUE', NOEUD = 'O', NOM_CMP = 'DZ', VALE = -170.6251),
          _F(  RESULTAT = DEP, NUME_ORDRE=2, NOM_CHAM='DEPL', CRITERE = 'ABSOLU',   PRECISION = 1.0E-10, # A
REFERENCE='ANALYTIQUE', NOEUD = 'A', NOM_CMP = 'DZ', VALE = 0.),
          _F(  RESULTAT = DEP, NUME_ORDRE=2, NOM_CHAM='DEPL', CRITERE = 'ABSOLU',   PRECISION = 1.0E-10, # B
REFERENCE='ANALYTIQUE', NOEUD = 'B',          NOM_CMP = 'DZ',     VALE = 0.),
          _F(  RESULTAT = DEP, NUME_ORDRE=2, NOM_CHAM='DEPL', CRITERE = 'ABSOLU',   PRECISION = 1.0E-10, # C
REFERENCE='ANALYTIQUE', NOEUD = 'C',          NOM_CMP = 'DZ',     VALE = 0.),
          _F(  RESULTAT = DEP, NUME_ORDRE=2, NOM_CHAM='DEPL', CRITERE = 'RELATIF',  PRECISION = 0.5E-2,  # D
REFERENCE='ANALYTIQUE', NOEUD = 'D', NOM_CMP = 'DZ', VALE = -95.9766),
          _F(  RESULTAT = DEP, NUME_ORDRE=2, NOM_CHAM='DEPL', CRITERE = 'RELATIF',  PRECISION = 0.5E-2,  # E
REFERENCE='ANALYTIQUE', NOEUD = 'E',          NOM_CMP = 'DZ',        VALE = -95.9766),
          _F(  RESULTAT = DEP, NUME_ORDRE=2, NOM_CHAM='DEPL', CRITERE = 'RELATIF',  PRECISION = 0.5E-2,  # F
REFERENCE='ANALYTIQUE', NOEUD = 'F',          NOM_CMP = 'DZ',        VALE = -78.897),
     # DEPLACEMENTS PESANTEUR

          _F(  RESULTAT = DEP, NUME_ORDRE=3, NOM_CHAM='DEPL', CRITERE = 'RELATIF',  PRECISION = 0.5E-2,  # O
REFERENCE='ANALYTIQUE', NOEUD = 'O', NOM_CMP = 'DZ', VALE = -170.6251),
          _F(  RESULTAT = DEP, NUME_ORDRE=3, NOM_CHAM='DEPL', CRITERE = 'ABSOLU',   PRECISION = 1.0E-10, # A
REFERENCE='ANALYTIQUE', NOEUD = 'A', NOM_CMP = 'DZ', VALE = 0.),
          _F(  RESULTAT = DEP, NUME_ORDRE=3, NOM_CHAM='DEPL', CRITERE = 'ABSOLU',   PRECISION = 1.0E-10, # B
REFERENCE='ANALYTIQUE', NOEUD = 'B',          NOM_CMP = 'DZ',     VALE = 0.),
          _F(  RESULTAT = DEP, NUME_ORDRE=3, NOM_CHAM='DEPL', CRITERE = 'ABSOLU',   PRECISION = 1.0E-10, # C
REFERENCE='ANALYTIQUE', NOEUD = 'C',          NOM_CMP = 'DZ',     VALE = 0.),
          _F(  RESULTAT = DEP, NUME_ORDRE=3, NOM_CHAM='DEPL', CRITERE = 'RELATIF',  PRECISION = 0.5E-2,  # D
REFERENCE='ANALYTIQUE', NOEUD = 'D', NOM_CMP = 'DZ', VALE = -95.9766),
          _F(  RESULTAT = DEP, NUME_ORDRE=3, NOM_CHAM='DEPL', CRITERE = 'RELATIF',  PRECISION = 0.5E-2,  # E
REFERENCE='ANALYTIQUE', NOEUD = 'E',          NOM_CMP = 'DZ',        VALE = -95.9766),
          _F(  RESULTAT = DEP, NUME_ORDRE=3, NOM_CHAM='DEPL', CRITERE = 'RELATIF',  PRECISION = 0.5E-2,  # F
REFERENCE='ANALYTIQUE', NOEUD = 'F',          NOM_CMP = 'DZ',        VALE = -78.897),),
          );

#--------------------------------------------------------------------

DEP=CALC_ELEM( reuse= DEP ,RESULTAT= DEP,
               NUME_ORDRE=1,OPTION=('EFGE_ELNO',),
                )

#--------------------------------------------------------------------
RELEVE_1=POST_RELEVE_T(
                   ACTION=_F(  NOEUD = ( 'O',  'A',  'B',  'C',  'D',  'E',  'F', ),
                            INTITULE = 'EFGE_R',
                            RESULTAT=DEP,
                            NUME_ORDRE=1,
                            NOM_CHAM='EFGE_ELNO',
                            NOM_CMP = ( 'MXX', 'MYY', ),
                            OPERATION = 'EXTRACTION')
                          )

TEST_TABLE(       TABLE=RELEVE_1,
                    FILTRE=_F(  NOM_PARA = 'NOEUD',
                             VALE_K = 'O'),
                  NOM_PARA='MXX',
                 REFERENCE='ANALYTIQUE',
                 PRECISION=1.0E-2,
                      VALE=-0.08125       )

TEST_TABLE(       TABLE=RELEVE_1,
                    FILTRE=_F(  NOM_PARA = 'NOEUD',
                             VALE_K = 'O'),
                  NOM_PARA='MYY',
                 REFERENCE='ANALYTIQUE',
                 PRECISION=1.0E-2,
                      VALE=-0.08125       )

TEST_TABLE(       TABLE=RELEVE_1,
                    FILTRE=_F(  NOM_PARA = 'NOEUD',
                             VALE_K = 'A'),
                  NOM_PARA='MXX',
                 REFERENCE='ANALYTIQUE',
                 PRECISION=3.0E-2,
                      VALE=0.1250       )

TEST_TABLE(       TABLE=RELEVE_1,
                    FILTRE=_F(  NOM_PARA = 'NOEUD',
                             VALE_K = 'A'),
                  NOM_PARA='MYY',
                 REFERENCE='ANALYTIQUE',
                 PRECISION=9.0E-2,
                      VALE=0.0375       )

TEST_TABLE(       TABLE=RELEVE_1,
                    FILTRE=_F(  NOM_PARA = 'NOEUD',
                             VALE_K = 'B'),
                  NOM_PARA='MXX',
                 REFERENCE='ANALYTIQUE',
                 PRECISION=3.0E-2,
                      VALE=0.08125       )

TEST_TABLE(       TABLE=RELEVE_1,
                    FILTRE=_F(  NOM_PARA = 'NOEUD',
                             VALE_K = 'B'),
                  NOM_PARA='MYY',
                 REFERENCE='ANALYTIQUE',
                 PRECISION=3.0E-2,
                      VALE=0.08125       )

TEST_TABLE(       TABLE=RELEVE_1,
                    FILTRE=_F(  NOM_PARA = 'NOEUD',
                             VALE_K = 'C'),
                  NOM_PARA='MXX',
                 REFERENCE='ANALYTIQUE',
                 PRECISION=9.0E-2,
                      VALE=0.0375       )

TEST_TABLE(       TABLE=RELEVE_1,
                    FILTRE=_F(  NOM_PARA = 'NOEUD',
                             VALE_K = 'C'),
                  NOM_PARA='MYY',
                 REFERENCE='ANALYTIQUE',
                 PRECISION=3.0E-2,
                      VALE=0.1250       )

TEST_TABLE(       TABLE=RELEVE_1,
                    FILTRE=_F(  NOM_PARA = 'NOEUD',
                             VALE_K = 'D'),
                  NOM_PARA='MXX',
                 REFERENCE='ANALYTIQUE',
                 PRECISION=2.5E-2,
                      VALE=-0.02969       )

TEST_TABLE(       TABLE=RELEVE_1,
                    FILTRE=_F(  NOM_PARA = 'NOEUD',
                             VALE_K = 'D'),
                  NOM_PARA='MYY',
                 REFERENCE='ANALYTIQUE',
                 PRECISION=2.0E-2,
                      VALE=-0.05156       )

TEST_TABLE(       TABLE=RELEVE_1,
                    FILTRE=_F(  NOM_PARA = 'NOEUD',
                             VALE_K = 'E'),
                  NOM_PARA='MXX',
                 REFERENCE='ANALYTIQUE',
                 PRECISION=2.5E-2,
                      VALE=-0.05156       )

TEST_TABLE(       TABLE=RELEVE_1,
                    FILTRE=_F(  NOM_PARA = 'NOEUD',
                             VALE_K = 'E'),
                  NOM_PARA='MYY',
                 REFERENCE='ANALYTIQUE',
                 PRECISION=2.5E-2,
                      VALE=-0.02969       )

TEST_TABLE(       TABLE=RELEVE_1,
                    FILTRE=_F(  NOM_PARA = 'NOEUD',
                             VALE_K = 'F'),
                  NOM_PARA='MXX',
                 REFERENCE='ANALYTIQUE',
                 PRECISION=2.5E-2,
                      VALE=-0.02925       )

TEST_TABLE(       TABLE=RELEVE_1,
                    FILTRE=_F(  NOM_PARA = 'NOEUD',
                             VALE_K = 'F'),
                  NOM_PARA='MYY',
                 REFERENCE='ANALYTIQUE',
                 PRECISION=2.5E-2,
                      VALE=-0.02925       )

#--------------------------------------------------------------------

FIN()
#
