# DATE   : 04/12/2000
# AUTEUR : P. MASSIN
# TITRE  PLAQUE CARREE COMPOSITE SOUS PRESSION UNIFORME
# ======================================================================
# COPYRIGHT (C) 1991 - 2012  EDF R&D                  WWW.CODE-ASTER.ORG
# THIS PROGRAM IS FREE SOFTWARE; YOU CAN REDISTRIBUTE IT AND/OR MODIFY
# IT UNDER THE TERMS OF THE GNU GENERAL PUBLIC LICENSE AS PUBLISHED BY
# THE FREE SOFTWARE FOUNDATION; EITHER VERSION 2 OF THE LICENSE, OR
# (AT YOUR OPTION) ANY LATER VERSION.
#
# THIS PROGRAM IS DISTRIBUTED IN THE HOPE THAT IT WILL BE USEFUL, BUT
# WITHOUT ANY WARRANTY; WITHOUT EVEN THE IMPLIED WARRANTY OF
# MERCHANTABILITY OR FITNESS FOR A PARTICULAR PURPOSE. SEE THE GNU
# GENERAL PUBLIC LICENSE FOR MORE DETAILS.
#
# YOU SHOULD HAVE RECEIVED A COPY OF THE GNU GENERAL PUBLIC LICENSE
# ALONG WITH THIS PROGRAM; IF NOT, WRITE TO EDF R&D CODE_ASTER,
#    1 AVENUE DU GENERAL DE GAULLE, 92141 CLAMART CEDEX, FRANCE.
# ======================================================================
#---------------------------------------------------------------------
#         - MODELISATION AVEC DES ELEMENTS 'DST'(TRIA3)
#---------------------------------------------------------------------

DEBUT(CODE=_F(NIV_PUB_WEB='INTERNET'),DEBUG=_F(SDVERI='OUI'))
#

MA=LIRE_MAILLAGE(FORMAT='MED',);
#

MA=DEFI_GROUP(reuse =MA,
              MAILLAGE=MA,
              CREA_GROUP_NO=(_F(GROUP_MA='AB',),
                             _F(GROUP_MA='BC',),
                             _F(GROUP_MA='CD',),
                             _F(GROUP_MA='DA',),),);
#

MO=AFFE_MODELE(MAILLAGE=MA,
               AFFE=_F(GROUP_MA='MAIL',
                       PHENOMENE='MECANIQUE',
                       MODELISATION='DST',),);
#

MA=MODI_MAILLAGE(reuse =MA,
                 MAILLAGE=MA,
                 ORIE_NORM_COQUE=_F(GROUP_MA='MAIL1',
                                    VECT_NORM=(0.0,0.0,1.0,),
                                    GROUP_NO='C',),
                 INFO=2,);
#
#
#---------------------------------------------------------------------
#                         CARACTERISTIQUES ELEMENTAIRES
#---------------------------------------------------------------------

CAR_ELE=AFFE_CARA_ELEM(MODELE=MO,
                       COQUE=_F(GROUP_MA='MAIL',
                                EPAIS=0.1,
                                COQUE_NCOU=3,
                                ANGL_REP=(0.0,0.0,),),);
#
#---------------------------------------------------------------------
#                         CARACTERISTIQUES MATERIAUX
#---------------------------------------------------------------------

MAT1=DEFI_MATERIAU(ELAS_ORTH=_F(E_L=3.4156,
                                E_T=1.793,
                                NU_LT=0.44,
                                G_LT=1.0,
                                G_LN=0.608,
                                G_TN=1.015,),);
#

MAT2=DEFI_MATERIAU(ELAS_ORTH=_F(E_L=0.34156,
                                E_T=0.1793,
                                NU_LT=0.44,
                                G_LT=0.1,
                                G_LN=0.0608,
                                G_TN=0.1015,),);
#

MULTI=DEFI_COMPOSITE(COUCHE=(_F(EPAIS=0.01,
                                MATER=MAT1,
                                ORIENTATION=0.0,),
                             _F(EPAIS=0.08,
                                MATER=MAT2,
                                ORIENTATION=0.0,),
                             _F(EPAIS=0.01,
                                MATER=MAT1,
                                ORIENTATION=0.0,),),);
#

CHAM_MAT=AFFE_MATERIAU(MAILLAGE=MA,
                       AFFE=_F(TOUT='OUI',
                               MATER=MULTI,),);
#
#---------------------------------------------------------------------
#                         CHARGEMENTS
#---------------------------------------------------------------------

CHA=AFFE_CHAR_MECA(MODELE=MO,
                   DDL_IMPO=(_F(GROUP_NO='AB',
                                DZ=0.0,
                                DRY=0.0,),
                             _F(GROUP_NO='BC',
                                DX=0.0,
                                DRY=0.0,),
                             _F(GROUP_NO='CD',
                                DY=0.0,
                                DRX=0.0,),
                             _F(GROUP_NO='DA',
                                DZ=0.0,
                                DRX=0.0,),),
                   FORCE_COQUE=_F(TOUT='OUI',
                                  PRES=-1.0,),);
#
#---------------------------------------------------------------------
#                         RESOLUTION
#---------------------------------------------------------------------

RESU=MECA_STATIQUE(MODELE=MO,
                   CHAM_MATER=CHAM_MAT,
                   CARA_ELEM=CAR_ELE,
                   EXCIT=_F(CHARGE=CHA,),);

RESU=CALC_CHAMP(reuse=RESU,RESULTAT=RESU,CONTRAINTE=('SIGM_ELNO'))


#COUCHE 1 : CALCUL DES CONTRAINTES

SIG_C1_S=POST_CHAMP(RESULTAT=RESU,
                     EXTR_COQUE=_F(NOM_CHAM='SIGM_ELNO',
                                   NUME_COUCHE=1,
                                   NIVE_COUCHE='SUP',),);
SIG_C1_I=POST_CHAMP(RESULTAT=RESU,
                     EXTR_COQUE=_F(NOM_CHAM='SIGM_ELNO',
                                   NUME_COUCHE=1,
                                   NIVE_COUCHE='INF',),);
#COUCHE 2 : CALCUL DES CONTRAINTES
SIG_C2_S=POST_CHAMP(RESULTAT=RESU,
                     EXTR_COQUE=_F(NOM_CHAM='SIGM_ELNO',
                                   NUME_COUCHE=2,
                                   NIVE_COUCHE='SUP',),);
SIG_C2_I=POST_CHAMP(RESULTAT=RESU,
                     EXTR_COQUE=_F(NOM_CHAM='SIGM_ELNO',
                                   NUME_COUCHE=2,
                                   NIVE_COUCHE='INF',),);
#COUCHE 3 : CALCUL DES CONTRAINTES
SIG_C3_S=POST_CHAMP(RESULTAT=RESU,
                     EXTR_COQUE=_F(NOM_CHAM='SIGM_ELNO',
                                   NUME_COUCHE=3,
                                   NIVE_COUCHE='SUP',),);
SIG_C3_I=POST_CHAMP(RESULTAT=RESU,
                     EXTR_COQUE=_F(NOM_CHAM='SIGM_ELNO',
                                   NUME_COUCHE=3,
                                   NIVE_COUCHE='INF',),);
#
#---------------------------------------------------------------------
#                         VERIFICATION DES RESULTATS
#---------------------------------------------------------------------
TEST_RESU(RESU=(_F(NUME_ORDRE=1,
                   GROUP_NO='C',
                   REFERENCE='SOURCE_EXTERNE',
                   RESULTAT=RESU,
                   NOM_CHAM='DEPL',
                   NOM_CMP='DZ',
                   VALE_CALC=42.041603964,
                   VALE_REFE=41.920000000000002,
                   PRECISION=3.0000000000000001E-3,),
                _F(NUME_ORDRE=1,
                   GROUP_NO='C',
                   REFERENCE='SOURCE_EXTERNE',
                   RESULTAT=RESU,
                   NOM_CHAM='DEPL',
                   NOM_CMP='DY',
                   VALE_CALC= 0.00000000E+00,
                   VALE_REFE=0.0,
                   CRITERE='ABSOLU',
                   PRECISION=1.E-2,),
                _F(NUME_ORDRE=1,
                   GROUP_NO='C',
                   REFERENCE='SOURCE_EXTERNE',
                   RESULTAT=RESU,
                   NOM_CHAM='DEPL',
                   NOM_CMP='DX',
                   VALE_CALC= 0.00000000E+00,
                   VALE_REFE=0.0,
                   CRITERE='ABSOLU',
                   PRECISION=1.E-2,),
                _F(NUME_ORDRE=1,
                   GROUP_NO='C',
                   REFERENCE='SOURCE_EXTERNE',
                   RESULTAT=SIG_C3_I,
                   NOM_CHAM='SIGM_ELNO',
                   NOM_CMP='SIXX',
                   VALE_CALC=50.881235142,
                   VALE_REFE=47.100000000000001,
                   PRECISION=0.082000000000000003,
                   MAILLE='M36',),
                _F(NUME_ORDRE=1,
                   GROUP_NO='C',
                   REFERENCE='SOURCE_EXTERNE',
                   RESULTAT=SIG_C3_S,
                   NOM_CHAM='SIGM_ELNO',
                   NOM_CMP='SIXX',
                   VALE_CALC=63.601543927,
                   VALE_REFE=58.799999999999997,
                   PRECISION=0.082000000000000003,
                   MAILLE='M36',),
                _F(NUME_ORDRE=1,
                   GROUP_NO='C',
                   REFERENCE='SOURCE_EXTERNE',
                   RESULTAT=SIG_C2_I,
                   NOM_CHAM='SIGM_ELNO',
                   NOM_CMP='SIXX',
                   VALE_CALC=-5.088123514,
                   VALE_REFE=-4.71,
                   PRECISION=0.082000000000000003,
                   MAILLE='M36',),
                _F(NUME_ORDRE=1,
                   GROUP_NO='C',
                   REFERENCE='SOURCE_EXTERNE',
                   RESULTAT=SIG_C2_S,
                   NOM_CHAM='SIGM_ELNO',
                   NOM_CMP='SIXX',
                   VALE_CALC=5.088123514,
                   VALE_REFE=4.71,
                   PRECISION=0.082000000000000003,
                   MAILLE='M36',),
                _F(NUME_ORDRE=1,
                   GROUP_NO='C',
                   REFERENCE='SOURCE_EXTERNE',
                   RESULTAT=SIG_C1_I,
                   NOM_CHAM='SIGM_ELNO',
                   NOM_CMP='SIXX',
                   VALE_CALC=-63.601543927,
                   VALE_REFE=-58.799999999999997,
                   PRECISION=0.082000000000000003,
                   MAILLE='M36',),
                _F(NUME_ORDRE=1,
                   GROUP_NO='C',
                   REFERENCE='SOURCE_EXTERNE',
                   RESULTAT=SIG_C1_S,
                   NOM_CHAM='SIGM_ELNO',
                   NOM_CMP='SIXX',
                   VALE_CALC=-50.881235142,
                   VALE_REFE=-47.100000000000001,
                   PRECISION=0.082000000000000003,
                   MAILLE='M36',),
                ),
          )

FIN();
