# MODIF  DATE 02/02/2011   AUTEUR PELLET J.PELLET 
# TITRE  PLAQUE CARREE TOURNEE EN APPUI SIMPLE SOUS PRESSION SINUSOIDALE
#            CONFIGURATION MANAGEMENT OF EDF VERSION
# ======================================================================
# COPYRIGHT (C) 1991 - 2011  EDF R&D                  WWW.CODE-ASTER.ORG
# THIS PROGRAM IS FREE SOFTWARE; YOU CAN REDISTRIBUTE IT AND/OR MODIFY
# IT UNDER THE TERMS OF THE GNU GENERAL PUBLIC LICENSE AS PUBLISHED BY
# THE FREE SOFTWARE FOUNDATION; EITHER VERSION 2 OF THE LICENSE, OR
# (AT YOUR OPTION) ANY LATER VERSION.
#
# THIS PROGRAM IS DISTRIBUTED IN THE HOPE THAT IT WILL BE USEFUL, BUT
# WITHOUT ANY WARRANTY; WITHOUT EVEN THE IMPLIED WARRANTY OF
# MERCHANTABILITY OR FITNESS FOR A PARTICULAR PURPOSE. SEE THE GNU
# GENERAL PUBLIC LICENSE FOR MORE DETAILS.
#
# YOU SHOULD HAVE RECEIVED A COPY OF THE GNU GENERAL PUBLIC LICENSE
# ALONG WITH THIS PROGRAM; IF NOT, WRITE TO EDF R&D CODE_ASTER,
#    1 AVENUE DU GENERAL DE GAULLE, 92141 CLAMART CEDEX, FRANCE.
# ======================================================================
#---------------------------------------------------------------------
#         - MODELISATION AVEC DES ELEMENTS TRI6 'COQUE_3D'
#---------------------------------------------------------------------
#
DEBUT(CODE=_F(NOM='SSLS118H',NIV_PUB_WEB='INTERNET'),DEBUG=_F(SDVERI='OUI'))
PRE_GIBI();
MA=LIRE_MAILLAGE(VERI_MAIL=_F(VERIF='OUI'),);

MAIL=CREA_MAILLAGE(MAILLAGE=MA,
                     MODI_MAILLE=_F(OPTION='TRIA6_7',
                                    TOUT='OUI',),);

MAIL=DEFI_GROUP(reuse =MAIL,
              CREA_GROUP_MA=_F(TOUT='OUI',
                               NOM='TOUT',),
              MAILLAGE=MAIL,
              CREA_GROUP_NO=(_F(GROUP_MA='AB',),
                             _F(GROUP_MA='BC',),
                             _F(GROUP_MA='CD',),
                             _F(GROUP_MA='DA',),),);
MO=AFFE_MODELE(AFFE=_F(TOUT='OUI',
                       PHENOMENE='MECANIQUE',
                       MODELISATION='COQUE_3D',),
               MAILLAGE=MAIL,);


MAIL=MODI_MAILLAGE( reuse=MAIL,
                    MAILLAGE=MAIL,
                    ORIE_NORM_COQUE=_F(  VECT_NORM = (0., 0., 1.,),
                                         GROUP_NO = 'O',
                                         GROUP_MA = 'MAIL1'),
                                         INFO=2
                                       )
CAR_ELE=AFFE_CARA_ELEM(MODELE=MO,
                       COQUE=_F(GROUP_MA='TOUT',
                                EPAIS=0.1,),);
MAT=DEFI_MATERIAU(ELAS=_F(NU=0.25,
                          E=25.0,),);
CHAM_MAT=AFFE_MATERIAU(AFFE=_F(MATER=MAT,
                               TOUT='OUI',),
                       MAILLAGE=MAIL,);
PO=1.0
P=FORMULE(NOM_PARA=('X','Y','Z'),VALE='''
PO*sin(pi*(cos(3*pi/18.)*cos(pi/9.)*X+sin(pi/9.)*cos(3*pi/18.)*Y-
sin(3*pi/18.)*Z))*sin(pi*( -sin(pi/9.)*X + cos(pi/9.)*Y))''');

CHA=AFFE_CHAR_MECA(LIAISON_OBLIQUE=(
                             _F(ANGL_NAUT=(20.,30.,0.),
                                GROUP_NO='O',
                                DX=0.0,),
                             _F(ANGL_NAUT=(20.,30.,0.),
                                GROUP_NO='O',
                                DY=0.0,),
                             _F(ANGL_NAUT=(20.,30.,0.),
                                GROUP_NO='O',
                                DRZ=0.0,),
                             _F(ANGL_NAUT=(20.,30.,0.),
                                GROUP_NO='O',
                                DRX=0.0,),
                             _F(ANGL_NAUT=(20.,30.,0.),
                                GROUP_NO='O',
                                DRY=0.0,),

                             _F(ANGL_NAUT=(20.,30.,0.),
                                GROUP_NO='AB',
                                DZ=0.0,),
                             _F(ANGL_NAUT=(20.,30.,0.),
                                GROUP_NO='AB',
                                DX=0.0,),
                             _F(ANGL_NAUT=(20.,30.,0.),
                                GROUP_NO='AB',
                                DRY=0.0,),
                             _F(ANGL_NAUT=(20.,30.,0.),
                                GROUP_NO='BC',
                                DZ=0.0,),
                              _F(ANGL_NAUT=(20.,30.,0.),
                                GROUP_NO='BC',
                                DY=0.0,),
                              _F(ANGL_NAUT=(20.,30.,0.),
                                GROUP_NO='BC',
                                DRX=0.0,),

                             _F(ANGL_NAUT=(20.,30.,0.),
                                GROUP_NO='CD',
                                DZ=0.0,),
                             _F(ANGL_NAUT=(20.,30.,0.),
                                GROUP_NO='CD',
                                DX=0.0,),
                             _F(ANGL_NAUT=(20.,30.,0.),
                                GROUP_NO='CD',
                                DRY=0.0,),

                             _F(ANGL_NAUT=(20.,30.,0.),
                                GROUP_NO='DA',
                                DRX=0.0,),
                             _F(ANGL_NAUT=(20.,30.,0.),
                                GROUP_NO='DA',
                                DZ=0.0,),
                             _F(ANGL_NAUT=(20.,30.,0.),
                                GROUP_NO='DA',
                                DY=0.0,),),
                   MODELE=MO,
                   FORCE_ARETE=(_F(MY=0.0,
                                   GROUP_MA='AB',),
                                _F(MY=0.0,
                                   GROUP_MA='CD',),
                                _F(MX=0.0,
                                   GROUP_MA='BC',),
                                _F(MX=0.0,
                                   GROUP_MA='DA',),),
                                   );


CHA_P=AFFE_CHAR_MECA_F(MODELE=MO,
                       FORCE_COQUE=_F(TOUT='OUI',
                                      PRES= P),);
RESU=MECA_STATIQUE(CHAM_MATER=CHAM_MAT,
                   MODELE=MO,
                   CARA_ELEM=CAR_ELE,
                   EXCIT=(_F(CHARGE=CHA,),
                          _F(CHARGE=CHA_P,),),);



SIG_C1_S=CALC_ELEM(RESULTAT=RESU,
                   REPE_COQUE =_F( ANGL_REP=(20.,-30.),
                                   NUME_COUCHE=1,
                                   NIVE_COUCHE='SUP',),
                   OPTION='SIGM_ELNO',);

SIG_C1_M=CALC_ELEM(RESULTAT=RESU,
                   REPE_COQUE =_F( ANGL_REP=(20.,-30.),
                                   NUME_COUCHE=1,
                                   NIVE_COUCHE='MOY',),
                   OPTION='SIGM_ELNO',);

SIG_C1_I=CALC_ELEM(RESULTAT=RESU,
                   REPE_COQUE =_F( ANGL_REP=(20.,-30.),
                                   NUME_COUCHE=1,
                                   NIVE_COUCHE='INF',),
                   OPTION='SIGM_ELNO',);

EFF=CALC_ELEM(RESULTAT=RESU,
              REPE_COQUE =_F( ANGL_REP=(20.,-30.),
                              PLAN='MOY',),
              OPTION='EFGE_ELNO',);

SIGG=CALC_ELEM(RESULTAT=RESU,
               REPE_COQUE =_F( ANGL_REP=(20.,-30.),),
               OPTION='SIEF_ELNO',);

TEST_RESU(RESU=(_F(NOM_CHAM='DEPL',
                  RESULTAT=RESU,
                  PRECISION=0.053,
                  REFERENCE='ANALYTIQUE',VALE=-1.0002,
                  GROUP_NO='O',
                  NOM_CMP='DZ',
                  NUME_ORDRE=1,),
               _F(RESULTAT=SIG_C1_I,
                        NUME_ORDRE=1,
                        NOM_CHAM='SIGM_ELNO',
                        MAILLE='M134',
                        REFERENCE='ANALYTIQUE',VALE=18.99,
                        PRECISION=1.E-2,
                        GROUP_NO='O',
                        NOM_CMP='SIXX',),
                     _F(RESULTAT=SIG_C1_I,
                        NUME_ORDRE=1,
                        NOM_CHAM='SIGM_ELNO',
                        MAILLE='M134',
                        REFERENCE='ANALYTIQUE',VALE=18.99,
                        PRECISION=1.E-2,
                        GROUP_NO='O',
                        NOM_CMP='SIYY',),
                     _F(RESULTAT=SIG_C1_I,
                        NUME_ORDRE=1,
                        NOM_CHAM='SIGM_ELNO',
                        MAILLE='M134',
                        REFERENCE='ANALYTIQUE',VALE=0.0,
                        PRECISION=0.2,
                        GROUP_NO='O',
                        NOM_CMP='SIXY',
                        CRITERE='ABSOLU',),
                     _F(RESULTAT=SIG_C1_I,
                        NUME_ORDRE=1,
                        NOM_CHAM='SIGM_ELNO',
                        MAILLE='M134',
                        REFERENCE='ANALYTIQUE',VALE=0.0,
                        PRECISION=2.E-2,
                        GROUP_NO='O',
                        NOM_CMP='SIXZ',
                        CRITERE='ABSOLU',),
                     _F(RESULTAT=SIG_C1_I,
                        NUME_ORDRE=1,
                        NOM_CHAM='SIGM_ELNO',
                        MAILLE='M134',
                        REFERENCE='ANALYTIQUE',VALE=0.0,
                        PRECISION=8.E-2,
                        GROUP_NO='O',
                        NOM_CMP='SIYZ',
                        CRITERE='ABSOLU',),
                     _F(RESULTAT=SIG_C1_M,
                        NUME_ORDRE=1,
                        NOM_CHAM='SIGM_ELNO',
                        MAILLE='M134',
                        REFERENCE='ANALYTIQUE',VALE=0.0,
                        PRECISION=1.E-2,
                        GROUP_NO='O',
                        NOM_CMP='SIXX',
                        CRITERE='ABSOLU',),
                     _F(RESULTAT=SIG_C1_M,
                        NUME_ORDRE=1,
                        NOM_CHAM='SIGM_ELNO',
                        MAILLE='M134',
                        REFERENCE='ANALYTIQUE',VALE=0.0,
                        PRECISION=1.E-2,
                        GROUP_NO='O',
                        NOM_CMP='SIYY',
                        CRITERE='ABSOLU',),
                     _F(RESULTAT=SIG_C1_M,
                        NUME_ORDRE=1,
                        NOM_CHAM='SIGM_ELNO',
                        MAILLE='M134',
                        REFERENCE='ANALYTIQUE',VALE=0.0,
                        PRECISION=1.E-2,
                        GROUP_NO='O',
                        NOM_CMP='SIXY',
                        CRITERE='ABSOLU',),
                     _F(RESULTAT=SIG_C1_M,
                        NUME_ORDRE=1,
                        NOM_CHAM='SIGM_ELNO',
                        MAILLE='M134',
                        REFERENCE='ANALYTIQUE',VALE=0.0,
                        PRECISION=0.02,
                        GROUP_NO='O',
                        NOM_CMP='SIXZ',
                        CRITERE='ABSOLU',),
                     _F(RESULTAT=SIG_C1_M,
                        NUME_ORDRE=1,
                        NOM_CHAM='SIGM_ELNO',
                        MAILLE='M134',
                        REFERENCE='ANALYTIQUE',VALE=0.0,
                        PRECISION=0.08,
                        GROUP_NO='O',
                        NOM_CMP='SIYZ',
                        CRITERE='ABSOLU',),
                     _F(RESULTAT=SIG_C1_S,
                        NUME_ORDRE=1,
                        NOM_CHAM='SIGM_ELNO',
                        MAILLE='M134',
                        REFERENCE='ANALYTIQUE',VALE=-18.99,
                        PRECISION=1.E-2,
                        GROUP_NO='O',
                        NOM_CMP='SIXX',),
                     _F(RESULTAT=SIG_C1_S,
                        NUME_ORDRE=1,
                        NOM_CHAM='SIGM_ELNO',
                        MAILLE='M134',
                        REFERENCE='ANALYTIQUE',VALE=-18.99,
                        PRECISION=1.E-2,
                        GROUP_NO='O',
                        NOM_CMP='SIYY',),
                     _F(RESULTAT=SIG_C1_S,
                        NUME_ORDRE=1,
                        NOM_CHAM='SIGM_ELNO',
                        MAILLE='M134',
                        REFERENCE='ANALYTIQUE',VALE=0.0,
                        PRECISION=0.2,
                        GROUP_NO='O',
                        NOM_CMP='SIXY',
                        CRITERE='ABSOLU',),
                     _F(RESULTAT=SIG_C1_S,
                        NUME_ORDRE=1,
                        NOM_CHAM='SIGM_ELNO',
                        MAILLE='M134',
                        REFERENCE='ANALYTIQUE',VALE=0.0,
                        PRECISION=2.E-2,
                        GROUP_NO='O',
                        NOM_CMP='SIXZ',
                        CRITERE='ABSOLU',),
                     _F(RESULTAT=SIG_C1_S,
                        NUME_ORDRE=1,
                        NOM_CHAM='SIGM_ELNO',
                        MAILLE='M134',
                        REFERENCE='ANALYTIQUE',VALE=0.0,
                        PRECISION=8.E-2,
                        GROUP_NO='O',
                        NOM_CMP='SIYZ',
                        CRITERE='ABSOLU',),
                     _F(RESULTAT=SIG_C1_I,
                        NUME_ORDRE=1,
                        NOM_CHAM='SIGM_ELNO',
                        MAILLE='M122',
                        REFERENCE='ANALYTIQUE',VALE=0.0,
                        PRECISION=8.E-2,
                        GROUP_NO='B1',
                        NOM_CMP='SIXX',
                        CRITERE='ABSOLU',),
                     _F(RESULTAT=SIG_C1_I,
                        NUME_ORDRE=1,
                        NOM_CHAM='SIGM_ELNO',
                        MAILLE='M122',
                        REFERENCE='ANALYTIQUE',VALE=0.0,
                        PRECISION=0.2,
                        GROUP_NO='B1',
                        NOM_CMP='SIYY',
                        CRITERE='ABSOLU',),
                     _F(RESULTAT=SIG_C1_I,
                        NUME_ORDRE=1,
                        NOM_CHAM='SIGM_ELNO',
                        MAILLE='M122',
                        REFERENCE='ANALYTIQUE',VALE=0.0,
                        PRECISION=0.03,
                        GROUP_NO='B1',
                        NOM_CMP='SIXY',
                        CRITERE='ABSOLU',),
                     _F(RESULTAT=SIG_C1_I,
                        NUME_ORDRE=1,
                        NOM_CHAM='SIGM_ELNO',
                        MAILLE='M122',
                        REFERENCE='ANALYTIQUE',VALE=0.0,
                        PRECISION=0.06,
                        GROUP_NO='B1',
                        NOM_CMP='SIXZ',
                        CRITERE='ABSOLU',),
                     _F(RESULTAT=SIG_C1_I,
                        NUME_ORDRE=1,
                        NOM_CHAM='SIGM_ELNO',
                        MAILLE='M122',
                        REFERENCE='ANALYTIQUE',VALE=0.0,
                        PRECISION=1.6,
                        GROUP_NO='B1',
                        NOM_CMP='SIYZ',
                        CRITERE='ABSOLU',),
                     _F(RESULTAT=SIG_C1_M,
                        NUME_ORDRE=1,
                        NOM_CHAM='SIGM_ELNO',
                        MAILLE='M122',
                        REFERENCE='ANALYTIQUE',VALE=0.0,
                        PRECISION=1.E-2,
                        GROUP_NO='B1',
                        NOM_CMP='SIXX',
                        CRITERE='ABSOLU',),
                     _F(RESULTAT=SIG_C1_M,
                        NUME_ORDRE=1,
                        NOM_CHAM='SIGM_ELNO',
                        MAILLE='M122',
                        REFERENCE='ANALYTIQUE',VALE=0.0,
                        PRECISION=1.E-2,
                        GROUP_NO='B1',
                        NOM_CMP='SIYY',
                        CRITERE='ABSOLU',),
                     _F(RESULTAT=SIG_C1_M,
                        NUME_ORDRE=1,
                        NOM_CHAM='SIGM_ELNO',
                        MAILLE='M122',
                        REFERENCE='ANALYTIQUE',VALE=0.0,
                        PRECISION=1.E-2,
                        GROUP_NO='B1',
                        NOM_CMP='SIXY',
                        CRITERE='ABSOLU',),
                     _F(RESULTAT=SIG_C1_M,
                        NUME_ORDRE=1,
                        NOM_CHAM='SIGM_ELNO',
                        MAILLE='M122',
                        REFERENCE='ANALYTIQUE',VALE=0.0,
                        PRECISION=0.06,
                        GROUP_NO='B1',
                        NOM_CMP='SIXZ',
                        CRITERE='ABSOLU',),
                     _F(RESULTAT=SIG_C1_M,
                        NUME_ORDRE=1,
                        NOM_CHAM='SIGM_ELNO',
                        MAILLE='M122',
                        REFERENCE='ANALYTIQUE',VALE=-2.39732,
                        PRECISION=0.36,
                        GROUP_NO='B1',
                        NOM_CMP='SIYZ',),
                     _F(RESULTAT=SIG_C1_S,
                        NUME_ORDRE=1,
                        NOM_CHAM='SIGM_ELNO',
                        MAILLE='M122',
                        REFERENCE='ANALYTIQUE',VALE=0.0,
                        PRECISION=0.08,
                        GROUP_NO='B1',
                        NOM_CMP='SIXX',
                        CRITERE='ABSOLU',),
                     _F(RESULTAT=SIG_C1_S,
                        NUME_ORDRE=1,
                        NOM_CHAM='SIGM_ELNO',
                        MAILLE='M122',
                        REFERENCE='ANALYTIQUE',VALE=0.0,
                        PRECISION=0.2,
                        GROUP_NO='B1',
                        NOM_CMP='SIYY',
                        CRITERE='ABSOLU',),
                     _F(RESULTAT=SIG_C1_S,
                        NUME_ORDRE=1,
                        NOM_CHAM='SIGM_ELNO',
                        MAILLE='M122',
                        REFERENCE='ANALYTIQUE',VALE=0.0,
                        PRECISION=0.03,
                        GROUP_NO='B1',
                        NOM_CMP='SIXY',
                        CRITERE='ABSOLU',),
                     _F(RESULTAT=SIG_C1_S,
                        NUME_ORDRE=1,
                        NOM_CHAM='SIGM_ELNO',
                        MAILLE='M122',
                        REFERENCE='ANALYTIQUE',VALE=0.0,
                        PRECISION=0.05,
                        GROUP_NO='B1',
                        NOM_CMP='SIXZ',
                        CRITERE='ABSOLU',),
                     _F(RESULTAT=SIG_C1_S,
                        NUME_ORDRE=1,
                        NOM_CHAM='SIGM_ELNO',
                        MAILLE='M122',
                        REFERENCE='ANALYTIQUE',VALE=0.0,
                        PRECISION=1.6,
                        GROUP_NO='B1',
                        NOM_CMP='SIYZ',
                        CRITERE='ABSOLU',),
                     _F(RESULTAT=EFF,
                        NUME_ORDRE=1,
                        NOM_CHAM='EFGE_ELNO',
                        MAILLE='M134',
                        REFERENCE='ANALYTIQUE',VALE=0.0,
                        PRECISION=1.E-2,
                        GROUP_NO='O',
                        NOM_CMP='NXX',
                        CRITERE='ABSOLU',),
                     _F(RESULTAT=EFF,
                        NUME_ORDRE=1,
                        NOM_CHAM='EFGE_ELNO',
                        MAILLE='M134',
                        REFERENCE='ANALYTIQUE',VALE=0.0,
                        PRECISION=1.E-2,
                        GROUP_NO='O',
                        NOM_CMP='NYY',
                        CRITERE='ABSOLU',),
                     _F(RESULTAT=EFF,
                        NUME_ORDRE=1,
                        NOM_CHAM='EFGE_ELNO',
                        MAILLE='M134',
                        REFERENCE='ANALYTIQUE',VALE=0.0,
                        PRECISION=1.E-2,
                        GROUP_NO='O',
                        NOM_CMP='NXY',
                        CRITERE='ABSOLU',),
                     _F(RESULTAT=EFF,
                        NUME_ORDRE=1,
                        NOM_CHAM='EFGE_ELNO',
                        MAILLE='M134',
                        REFERENCE='ANALYTIQUE',VALE=-0.0316628,
                        PRECISION=1.E-2,
                        GROUP_NO='O',
                        NOM_CMP='MXX',),
                     _F(RESULTAT=EFF,
                        NUME_ORDRE=1,
                        NOM_CHAM='EFGE_ELNO',
                        MAILLE='M134',
                        REFERENCE='ANALYTIQUE',VALE=-0.0316628,
                        PRECISION=1.E-2,
                        GROUP_NO='O',
                        NOM_CMP='MYY',),
                    _F(RESULTAT=EFF,
                        NUME_ORDRE=1,
                        NOM_CHAM='EFGE_ELNO',
                        MAILLE='M134',
                        REFERENCE='ANALYTIQUE',VALE=0.0,
                        PRECISION=1.E-2,
                        GROUP_NO='O',
                        NOM_CMP='MXY',
                        CRITERE='ABSOLU',),
                     _F(RESULTAT=EFF,
                        NUME_ORDRE=1,
                        NOM_CHAM='EFGE_ELNO',
                        MAILLE='M134',
                        REFERENCE='ANALYTIQUE',VALE=0.0,
                        PRECISION=0.02,
                        GROUP_NO='O',
                        NOM_CMP='QX',
                        CRITERE='ABSOLU',),
                     _F(RESULTAT=EFF,
                        NUME_ORDRE=1,
                        NOM_CHAM='EFGE_ELNO',
                        MAILLE='M134',
                        REFERENCE='ANALYTIQUE',VALE=0.0,
                        PRECISION=0.02,
                        GROUP_NO='O',
                        NOM_CMP='QY',
                        CRITERE='ABSOLU',),
                     _F(RESULTAT=EFF,
                        NUME_ORDRE=1,
                        NOM_CHAM='EFGE_ELNO',
                        MAILLE='M158',
                        REFERENCE='ANALYTIQUE',VALE=0.0,
                        PRECISION=0.02,
                        GROUP_NO='O',
                        NOM_CMP='QX',
                        CRITERE='ABSOLU',),
                     _F(RESULTAT=EFF,
                        NUME_ORDRE=1,
                        NOM_CHAM='EFGE_ELNO',
                        MAILLE='M158',
                        REFERENCE='ANALYTIQUE',VALE=0.0,
                        PRECISION=0.02,
                        GROUP_NO='O',
                        NOM_CMP='QY',
                        CRITERE='ABSOLU',),
                     _F(RESULTAT=EFF,
                        NUME_ORDRE=1,
                        NOM_CHAM='EFGE_ELNO',
                        MAILLE='M132',
                        REFERENCE='ANALYTIQUE',VALE=0.0,
                        PRECISION=0.02,
                        GROUP_NO='O',
                        NOM_CMP='QX',
                        CRITERE='ABSOLU',),
                     _F(RESULTAT=EFF,
                        NUME_ORDRE=1,
                        NOM_CHAM='EFGE_ELNO',
                        MAILLE='M132',
                        REFERENCE='ANALYTIQUE',VALE=0.0,
                        PRECISION=0.02,
                        GROUP_NO='O',
                        NOM_CMP='QY',
                        CRITERE='ABSOLU',),
                     _F(RESULTAT=EFF,
                        NUME_ORDRE=1,
                        NOM_CHAM='EFGE_ELNO',
                        MAILLE='M156',
                        REFERENCE='ANALYTIQUE',VALE=0.0,
                        PRECISION=0.02,
                        GROUP_NO='O',
                        NOM_CMP='QX',
                        CRITERE='ABSOLU',),
                     _F(RESULTAT=EFF,
                        NUME_ORDRE=1,
                        NOM_CHAM='EFGE_ELNO',
                        MAILLE='M156',
                        REFERENCE='ANALYTIQUE',VALE=0.0,
                        PRECISION=0.02,
                        GROUP_NO='O',
                        NOM_CMP='QY',
                        CRITERE='ABSOLU',),
                     _F(RESULTAT=EFF,
                        NUME_ORDRE=1,
                        NOM_CHAM='EFGE_ELNO',
                        MAILLE='M288',
                        REFERENCE='ANALYTIQUE',VALE=0.0,
                        PRECISION=1.E-2,
                        GROUP_NO='C',
                        NOM_CMP='NXX',
                        CRITERE='ABSOLU',),
                     _F(RESULTAT=EFF,
                        NUME_ORDRE=1,
                        NOM_CHAM='EFGE_ELNO',
                        MAILLE='M288',
                        REFERENCE='ANALYTIQUE',VALE=0.0,
                        PRECISION=1.E-2,
                        GROUP_NO='C',
                        NOM_CMP='NYY',
                        CRITERE='ABSOLU',),
                     _F(RESULTAT=EFF,
                        NUME_ORDRE=1,
                        NOM_CHAM='EFGE_ELNO',
                        MAILLE='M288',
                        REFERENCE='ANALYTIQUE',VALE=0.0,
                        PRECISION=1.E-2,
                        GROUP_NO='C',
                        NOM_CMP='NXY',
                        CRITERE='ABSOLU',),
                     _F(RESULTAT=EFF,
                        NUME_ORDRE=1,
                        NOM_CHAM='EFGE_ELNO',
                        MAILLE='M288',
                        REFERENCE='ANALYTIQUE',VALE=0.0,
                        PRECISION=1.E-2,
                        GROUP_NO='C',
                        NOM_CMP='MXX',
                        CRITERE='ABSOLU',),
                     _F(RESULTAT=EFF,
                        NUME_ORDRE=1,
                        NOM_CHAM='EFGE_ELNO',
                        MAILLE='M288',
                        REFERENCE='ANALYTIQUE',VALE=0.0,
                        PRECISION=1.E-2,
                        GROUP_NO='C',
                        NOM_CMP='MYY',
                        CRITERE='ABSOLU',),
                     _F(RESULTAT=EFF,
                        NUME_ORDRE=1,
                        NOM_CHAM='EFGE_ELNO',
                        MAILLE='M288',
                        REFERENCE='ANALYTIQUE',VALE=0.0189978,
                        PRECISION=0.03,
                        GROUP_NO='C',
                        NOM_CMP='MXY',),
                     _F(RESULTAT=EFF,
                        NUME_ORDRE=1,
                        NOM_CHAM='EFGE_ELNO',
                        MAILLE='M288',
                        REFERENCE='ANALYTIQUE',VALE=0.0,
                        PRECISION=1.E-2,
                        GROUP_NO='C',
                        NOM_CMP='QX',
                        CRITERE='ABSOLU',),
                     _F(RESULTAT=EFF,
                        NUME_ORDRE=1,
                        NOM_CHAM='EFGE_ELNO',
                        MAILLE='M288',
                        REFERENCE='ANALYTIQUE',VALE=0.0,
                        PRECISION=1.E-2,
                        GROUP_NO='C',
                        NOM_CMP='QY',
                        CRITERE='ABSOLU',),
                     _F(RESULTAT=EFF,
                        NUME_ORDRE=1,
                        NOM_CHAM='EFGE_ELNO',
                        MAILLE='M23',
                        REFERENCE='ANALYTIQUE',VALE=0.0,
                        PRECISION=1.E-2,
                        GROUP_NO='D',
                        NOM_CMP='NXX',
                        CRITERE='ABSOLU',),
                     _F(RESULTAT=EFF,
                        NUME_ORDRE=1,
                        NOM_CHAM='EFGE_ELNO',
                        MAILLE='M23',
                        REFERENCE='ANALYTIQUE',VALE=0.0,
                        PRECISION=1.E-2,
                        GROUP_NO='D',
                        NOM_CMP='NYY',
                        CRITERE='ABSOLU',),
                     _F(RESULTAT=EFF,
                        NUME_ORDRE=1,
                        NOM_CHAM='EFGE_ELNO',
                        MAILLE='M23',
                        REFERENCE='ANALYTIQUE',VALE=0.0,
                        PRECISION=1.E-2,
                        GROUP_NO='D',
                        NOM_CMP='NXY',
                        CRITERE='ABSOLU',),
                     _F(RESULTAT=EFF,
                        NUME_ORDRE=1,
                        NOM_CHAM='EFGE_ELNO',
                        MAILLE='M23',
                        REFERENCE='ANALYTIQUE',VALE=0.0,
                        PRECISION=1.E-2,
                        GROUP_NO='D',
                        NOM_CMP='MXX',
                        CRITERE='ABSOLU',),
                     _F(RESULTAT=EFF,
                        NUME_ORDRE=1,
                        NOM_CHAM='EFGE_ELNO',
                        MAILLE='M23',
                        REFERENCE='ANALYTIQUE',VALE=0.0,
                        PRECISION=1.E-2,
                        GROUP_NO='D',
                        NOM_CMP='MYY',
                        CRITERE='ABSOLU',),
                     _F(RESULTAT=EFF,
                        NUME_ORDRE=1,
                        NOM_CHAM='EFGE_ELNO',
                        MAILLE='M23',
                        REFERENCE='ANALYTIQUE',VALE=-0.0189978,
                        PRECISION=0.03,
                        GROUP_NO='D',
                        NOM_CMP='MXY',),
                     _F(RESULTAT=EFF,
                        NUME_ORDRE=1,
                        NOM_CHAM='EFGE_ELNO',
                        MAILLE='M23',
                        REFERENCE='ANALYTIQUE',VALE=0.0,
                        PRECISION=1.E-2,
                        GROUP_NO='D',
                        NOM_CMP='QX',
                        CRITERE='ABSOLU',),
                     _F(RESULTAT=EFF,
                        NUME_ORDRE=1,
                        NOM_CHAM='EFGE_ELNO',
                        MAILLE='M23',
                        REFERENCE='ANALYTIQUE',VALE=0.0,
                        PRECISION=1.E-2,
                        GROUP_NO='D',
                        NOM_CMP='QY',
                        CRITERE='ABSOLU',),
                     _F(RESULTAT=EFF,
                        NUME_ORDRE=1,
                        NOM_CHAM='EFGE_ELNO',
                        MAILLE='M14',
                        REFERENCE='ANALYTIQUE',VALE=0.0,
                        PRECISION=1.E-2,
                        GROUP_NO='D1',
                        NOM_CMP='NXX',
                        CRITERE='ABSOLU',),
                     _F(RESULTAT=EFF,
                        NUME_ORDRE=1,
                        NOM_CHAM='EFGE_ELNO',
                        MAILLE='M14',
                        REFERENCE='ANALYTIQUE',VALE=0.0,
                        PRECISION=1.E-2,
                        GROUP_NO='D1',
                        NOM_CMP='NYY',
                        CRITERE='ABSOLU',),
                     _F(RESULTAT=EFF,
                        NUME_ORDRE=1,
                        NOM_CHAM='EFGE_ELNO',
                        MAILLE='M14',
                        REFERENCE='ANALYTIQUE',VALE=0.0,
                        PRECISION=1.E-2,
                        GROUP_NO='D1',
                        NOM_CMP='NXY',
                        CRITERE='ABSOLU',),
                     _F(RESULTAT=EFF,
                        NUME_ORDRE=1,
                        NOM_CHAM='EFGE_ELNO',
                        MAILLE='M14',
                        REFERENCE='ANALYTIQUE',VALE=0.0,
                        PRECISION=1.E-2,
                        GROUP_NO='D1',
                        NOM_CMP='MXX',
                        CRITERE='ABSOLU',),
                     _F(RESULTAT=EFF,
                        NUME_ORDRE=1,
                        NOM_CHAM='EFGE_ELNO',
                        MAILLE='M14',
                        REFERENCE='ANALYTIQUE',VALE=0.0,
                        PRECISION=1.E-2,
                        GROUP_NO='D1',
                        NOM_CMP='MYY',
                        CRITERE='ABSOLU',),
                     _F(RESULTAT=EFF,
                        NUME_ORDRE=1,
                        NOM_CHAM='EFGE_ELNO',
                        MAILLE='M14',
                        REFERENCE='ANALYTIQUE',VALE=0.0,
                        PRECISION=1.E-2,
                        GROUP_NO='D1',
                        NOM_CMP='MXY',
                        CRITERE='ABSOLU',),
                     _F(RESULTAT=EFF,
                        NUME_ORDRE=1,
                        NOM_CHAM='EFGE_ELNO',
                        MAILLE='M14',
                        REFERENCE='ANALYTIQUE',VALE=-0.159155,
                        PRECISION=0.21,
                        GROUP_NO='D1',
                        NOM_CMP='QX',),
                     _F(RESULTAT=EFF,
                        NUME_ORDRE=1,
                        NOM_CHAM='EFGE_ELNO',
                        MAILLE='M14',
                        REFERENCE='ANALYTIQUE',VALE=0.0,
                        PRECISION=2.E-2,
                        GROUP_NO='D1',
                        NOM_CMP='QY',
                        CRITERE='ABSOLU',),
                     _F(RESULTAT=EFF,
                        NUME_ORDRE=1,
                        NOM_CHAM='EFGE_ELNO',
                        MAILLE='M11',
                        REFERENCE='ANALYTIQUE',VALE=-0.159155,
                        PRECISION=0.21,
                        GROUP_NO='D1',
                        NOM_CMP='QX',),
                     _F(RESULTAT=EFF,
                        NUME_ORDRE=1,
                        NOM_CHAM='EFGE_ELNO',
                        MAILLE='M11',
                        REFERENCE='ANALYTIQUE',VALE=0.0,
                        PRECISION=3.E-2,
                        GROUP_NO='D1',
                        NOM_CMP='QY',
                        CRITERE='ABSOLU',),
                     _F(RESULTAT=EFF,
                        NUME_ORDRE=1,
                        NOM_CHAM='EFGE_ELNO',
                        MAILLE='M1',
                        REFERENCE='ANALYTIQUE',VALE=0.0,
                        PRECISION=1.E-2,
                        GROUP_NO='A',
                        NOM_CMP='NXX',
                        CRITERE='ABSOLU',),
                     _F(RESULTAT=EFF,
                        NUME_ORDRE=1,
                        NOM_CHAM='EFGE_ELNO',
                        MAILLE='M1',
                        REFERENCE='ANALYTIQUE',VALE=0.0,
                        PRECISION=1.E-2,
                        GROUP_NO='A',
                        NOM_CMP='NYY',
                        CRITERE='ABSOLU',),
                     _F(RESULTAT=EFF,
                        NUME_ORDRE=1,
                        NOM_CHAM='EFGE_ELNO',
                        MAILLE='M1',
                        REFERENCE='ANALYTIQUE',VALE=0.0,
                        PRECISION=1.E-2,
                        GROUP_NO='A',
                        NOM_CMP='NXY',
                        CRITERE='ABSOLU',),
                     _F(RESULTAT=EFF,
                        NUME_ORDRE=1,
                        NOM_CHAM='EFGE_ELNO',
                        MAILLE='M1',
                        REFERENCE='ANALYTIQUE',VALE=0.0,
                        PRECISION=1.E-2,
                        GROUP_NO='A',
                        NOM_CMP='MXX',
                        CRITERE='ABSOLU',),
                     _F(RESULTAT=EFF,
                        NUME_ORDRE=1,
                        NOM_CHAM='EFGE_ELNO',
                        MAILLE='M1',
                        REFERENCE='ANALYTIQUE',VALE=0.0,
                        PRECISION=1.E-2,
                        GROUP_NO='A',
                        NOM_CMP='MYY',
                        CRITERE='ABSOLU',),
                     _F(RESULTAT=EFF,
                        NUME_ORDRE=1,
                        NOM_CHAM='EFGE_ELNO',
                        MAILLE='M1',
                        REFERENCE='ANALYTIQUE',VALE=0.0,
                        PRECISION=1.E-2,
                        GROUP_NO='A',
                        NOM_CMP='QY',
                        CRITERE='ABSOLU',),
                     _F(RESULTAT=EFF,
                        NUME_ORDRE=1,
                        NOM_CHAM='EFGE_ELNO',
                        MAILLE='M1',
                        REFERENCE='ANALYTIQUE',VALE=0.0,
                        PRECISION=1.E-2,
                        GROUP_NO='A',
                        NOM_CMP='QX',
                        CRITERE='ABSOLU',),
                     _F(RESULTAT=EFF,
                        NUME_ORDRE=1,
                        NOM_CHAM='EFGE_ELNO',
                        MAILLE='M266',
                        REFERENCE='ANALYTIQUE',VALE=0.0,
                        PRECISION=1.E-2,
                        GROUP_NO='B',
                        NOM_CMP='NXX',
                        CRITERE='ABSOLU',),
                     _F(RESULTAT=EFF,
                        NUME_ORDRE=1,
                        NOM_CHAM='EFGE_ELNO',
                        MAILLE='M266',
                        REFERENCE='ANALYTIQUE',VALE=0.0,
                        PRECISION=1.E-2,
                        GROUP_NO='B',
                        NOM_CMP='NYY',
                        CRITERE='ABSOLU',),
                     _F(RESULTAT=EFF,
                        NUME_ORDRE=1,
                        NOM_CHAM='EFGE_ELNO',
                        MAILLE='M266',
                        REFERENCE='ANALYTIQUE',VALE=0.0,
                        PRECISION=1.E-2,
                        GROUP_NO='B',
                        NOM_CMP='NXY',
                        CRITERE='ABSOLU',),
                     _F(RESULTAT=EFF,
                        NUME_ORDRE=1,
                        NOM_CHAM='EFGE_ELNO',
                        MAILLE='M266',
                        REFERENCE='ANALYTIQUE',VALE=0.0,
                        PRECISION=1.E-2,
                        GROUP_NO='B',
                        NOM_CMP='MXX',
                        CRITERE='ABSOLU',),
                     _F(RESULTAT=EFF,
                        NUME_ORDRE=1,
                        NOM_CHAM='EFGE_ELNO',
                        MAILLE='M266',
                        REFERENCE='ANALYTIQUE',VALE=0.0,
                        PRECISION=1.E-2,
                        GROUP_NO='B',
                        NOM_CMP='MYY',
                        CRITERE='ABSOLU',),
                     _F(RESULTAT=EFF,
                        NUME_ORDRE=1,
                        NOM_CHAM='EFGE_ELNO',
                        MAILLE='M266',
                        REFERENCE='ANALYTIQUE',VALE=-0.0189978,
                        PRECISION=0.03,
                        GROUP_NO='B',
                        NOM_CMP='MXY',),
                     _F(RESULTAT=EFF,
                        NUME_ORDRE=1,
                        NOM_CHAM='EFGE_ELNO',
                        MAILLE='M266',
                        REFERENCE='ANALYTIQUE',VALE=0.0,
                        PRECISION=1.E-2,
                        GROUP_NO='B',
                        NOM_CMP='QY',
                        CRITERE='ABSOLU',),
                     _F(RESULTAT=EFF,
                        NUME_ORDRE=1,
                        NOM_CHAM='EFGE_ELNO',
                        MAILLE='M266',
                        REFERENCE='ANALYTIQUE',VALE=0.0,
                        PRECISION=1.E-2,
                        GROUP_NO='B',
                        NOM_CMP='QX',
                        CRITERE='ABSOLU',),
                     _F(RESULTAT=EFF,
                        NUME_ORDRE=1,
                        NOM_CHAM='EFGE_ELNO',
                        MAILLE='M122',
                        REFERENCE='ANALYTIQUE',VALE=0.0,
                        PRECISION=1.E-2,
                        GROUP_NO='B1',
                        NOM_CMP='NXX',
                        CRITERE='ABSOLU',),
                     _F(RESULTAT=EFF,
                        NUME_ORDRE=1,
                        NOM_CHAM='EFGE_ELNO',
                        MAILLE='M122',
                        REFERENCE='ANALYTIQUE',VALE=0.0,
                        PRECISION=1.E-2,
                        GROUP_NO='B1',
                        NOM_CMP='NYY',
                        CRITERE='ABSOLU',),
                     _F(RESULTAT=EFF,
                        NUME_ORDRE=1,
                        NOM_CHAM='EFGE_ELNO',
                        MAILLE='M122',
                        REFERENCE='ANALYTIQUE',VALE=0.0,
                        PRECISION=1.E-2,
                        GROUP_NO='B1',
                        NOM_CMP='NXY',
                        CRITERE='ABSOLU',),
                     _F(RESULTAT=EFF,
                        NUME_ORDRE=1,
                        NOM_CHAM='EFGE_ELNO',
                        MAILLE='M122',
                        REFERENCE='ANALYTIQUE',VALE=0.0,
                        PRECISION=1.E-2,
                        GROUP_NO='B1',
                        NOM_CMP='MXX',
                        CRITERE='ABSOLU',),
                     _F(RESULTAT=EFF,
                        NUME_ORDRE=1,
                        NOM_CHAM='EFGE_ELNO',
                        MAILLE='M122',
                        REFERENCE='ANALYTIQUE',VALE=0.0,
                        PRECISION=1.E-2,
                        GROUP_NO='B1',
                        NOM_CMP='MYY',
                        CRITERE='ABSOLU',),
                     _F(RESULTAT=EFF,
                        NUME_ORDRE=1,
                        NOM_CHAM='EFGE_ELNO',
                        MAILLE='M122',
                        REFERENCE='ANALYTIQUE',VALE=0.0,
                        PRECISION=1.E-2,
                        GROUP_NO='B1',
                        NOM_CMP='MXY',
                        CRITERE='ABSOLU',),
                     _F(RESULTAT=EFF,
                        NUME_ORDRE=1,
                        NOM_CHAM='EFGE_ELNO',
                        MAILLE='M122',
                        REFERENCE='ANALYTIQUE',VALE=-0.159155,
                        PRECISION=0.21,
                        GROUP_NO='B1',
                        NOM_CMP='QY',),
                     _F(RESULTAT=EFF,
                        NUME_ORDRE=1,
                        NOM_CHAM='EFGE_ELNO',
                        MAILLE='M122',
                        REFERENCE='ANALYTIQUE',VALE=0.0,
                        PRECISION=1.E-2,
                        GROUP_NO='B1',
                        NOM_CMP='QX',
                        CRITERE='ABSOLU',),
                     _F(RESULTAT=EFF,
                        NUME_ORDRE=1,
                        NOM_CHAM='EFGE_ELNO',
                        MAILLE='M146',
                        REFERENCE='ANALYTIQUE',VALE=0.0,
                        PRECISION=1.E-2,
                        GROUP_NO='B1',
                        NOM_CMP='NXX',
                        CRITERE='ABSOLU',),
                     _F(RESULTAT=EFF,
                        NUME_ORDRE=1,
                        NOM_CHAM='EFGE_ELNO',
                        MAILLE='M146',
                        REFERENCE='ANALYTIQUE',VALE=0.0,
                        PRECISION=1.E-2,
                        GROUP_NO='B1',
                        NOM_CMP='NYY',
                        CRITERE='ABSOLU',),
                     _F(RESULTAT=EFF,
                        NUME_ORDRE=1,
                        NOM_CHAM='EFGE_ELNO',
                        MAILLE='M146',
                        REFERENCE='ANALYTIQUE',VALE=0.0,
                        PRECISION=1.E-2,
                        GROUP_NO='B1',
                        NOM_CMP='NXY',
                        CRITERE='ABSOLU',),
                     _F(RESULTAT=EFF,
                        NUME_ORDRE=1,
                        NOM_CHAM='EFGE_ELNO',
                        MAILLE='M146',
                        REFERENCE='ANALYTIQUE',VALE=0.0,
                        PRECISION=1.E-2,
                        GROUP_NO='B1',
                        NOM_CMP='MXX',
                        CRITERE='ABSOLU',),
                     _F(RESULTAT=EFF,
                        NUME_ORDRE=1,
                        NOM_CHAM='EFGE_ELNO',
                        MAILLE='M146',
                        REFERENCE='ANALYTIQUE',VALE=0.0,
                        PRECISION=1.E-2,
                        GROUP_NO='B1',
                        NOM_CMP='MYY',
                        CRITERE='ABSOLU',),
                     _F(RESULTAT=EFF,
                        NUME_ORDRE=1,
                        NOM_CHAM='EFGE_ELNO',
                        MAILLE='M146',
                        REFERENCE='ANALYTIQUE',VALE=0.0,
                        PRECISION=1.E-2,
                        GROUP_NO='B1',
                        NOM_CMP='MXY',
                        CRITERE='ABSOLU',),
                     _F(RESULTAT=EFF,
                        NUME_ORDRE=1,
                        NOM_CHAM='EFGE_ELNO',
                        MAILLE='M146',
                        REFERENCE='ANALYTIQUE',VALE=-0.159155,
                        PRECISION=0.21,
                        GROUP_NO='B1',
                        NOM_CMP='QY',),
                     _F(RESULTAT=EFF,
                        NUME_ORDRE=1,
                        NOM_CHAM='EFGE_ELNO',
                        MAILLE='M146',
                        REFERENCE='ANALYTIQUE',VALE=0.0,
                        PRECISION=3.E-2,
                        GROUP_NO='B1',
                        NOM_CMP='QX',
                        CRITERE='ABSOLU',),
                     _F(RESULTAT=SIGG,
                        NUME_ORDRE=1,
                        NOM_CHAM='SIEF_ELNO',
                        MAILLE='M134',
                        REFERENCE='ANALYTIQUE',VALE=-0.0316628,
                        PRECISION=1.E-2,
                        GROUP_NO='O',
                        NOM_CMP='MXX',),
                     _F(RESULTAT=SIGG,
                        NUME_ORDRE=1,
                        NOM_CHAM='SIEF_ELNO',
                        MAILLE='M134',
                        REFERENCE='ANALYTIQUE',VALE=-0.0316628,
                        PRECISION=1.E-2,
                        GROUP_NO='O',
                        NOM_CMP='MYY',),
                     _F(RESULTAT=SIGG,
                        NUME_ORDRE=1,
                        NOM_CHAM='SIEF_ELNO',
                        MAILLE='M288',
                        REFERENCE='ANALYTIQUE',VALE=0.0189978,
                        PRECISION=0.03,
                        GROUP_NO='C',
                        NOM_CMP='MXY',),
                     _F(RESULTAT=SIGG,
                        NUME_ORDRE=1,
                        NOM_CHAM='SIEF_ELNO',
                        MAILLE='M23',
                        REFERENCE='ANALYTIQUE',VALE=-0.0189978,
                        PRECISION=0.03,
                        GROUP_NO='D',
                        NOM_CMP='MXY',),
                     _F(RESULTAT=SIGG,
                        NUME_ORDRE=1,
                        NOM_CHAM='SIEF_ELNO',
                        MAILLE='M14',
                        REFERENCE='ANALYTIQUE',VALE=-0.159155,
                        PRECISION=0.21,
                        GROUP_NO='D1',
                        NOM_CMP='QX',),
                     _F(RESULTAT=SIGG,
                        NUME_ORDRE=1,
                        NOM_CHAM='SIEF_ELNO',
                        MAILLE='M11',
                        REFERENCE='ANALYTIQUE',VALE=-0.159155,
                        PRECISION=0.21,
                        GROUP_NO='D1',
                        NOM_CMP='QX',),
                     _F(RESULTAT=SIGG,
                        NUME_ORDRE=1,
                        NOM_CHAM='SIEF_ELNO',
                        MAILLE='M1',
                        REFERENCE='ANALYTIQUE',VALE=0.0189978,
                        PRECISION=0.03,
                        GROUP_NO='A',
                        NOM_CMP='MXY',),
                     _F(RESULTAT=SIGG,
                        NUME_ORDRE=1,
                        NOM_CHAM='SIEF_ELNO',
                        MAILLE='M266',
                        REFERENCE='ANALYTIQUE',VALE=-0.0189978,
                        PRECISION=0.03,
                        GROUP_NO='B',
                        NOM_CMP='MXY',),
                     _F(RESULTAT=SIGG,
                        NUME_ORDRE=1,
                        NOM_CHAM='SIEF_ELNO',
                        MAILLE='M122',
                        REFERENCE='ANALYTIQUE',VALE=-0.159155,
                        PRECISION=0.21,
                        GROUP_NO='B1',
                        NOM_CMP='QY',),
                     _F(RESULTAT=SIGG,
                        NUME_ORDRE=1,
                        NOM_CHAM='SIEF_ELNO',
                        MAILLE='M146',
                        REFERENCE='ANALYTIQUE',VALE=-0.159155,
                        PRECISION=0.21,
                        GROUP_NO='B1',
                        NOM_CMP='QY',),),);
FIN();
