# MODIF  DATE 16/05/2002   AUTEUR DURAND C.DURAND 
# DATE   : 14/03/2001
# AUTEUR : P. MASSIN 
# TITRE  PLAQUE CARREE EN APPUI SIMPLE SOUS PRESSION SINUSOIDALE
#            CONFIGURATION MANAGEMENT OF EDF VERSION
# ======================================================================
# COPYRIGHT (C) 1991 - 2001  EDF R&D                  WWW.CODE-ASTER.ORG
# THIS PROGRAM IS FREE SOFTWARE; YOU CAN REDISTRIBUTE IT AND/OR MODIFY
# IT UNDER THE TERMS OF THE GNU GENERAL PUBLIC LICENSE AS PUBLISHED BY
# THE FREE SOFTWARE FOUNDATION; EITHER VERSION 2 OF THE LICENSE, OR   
# (AT YOUR OPTION) ANY LATER VERSION.                                 
#
# THIS PROGRAM IS DISTRIBUTED IN THE HOPE THAT IT WILL BE USEFUL, BUT 
# WITHOUT ANY WARRANTY; WITHOUT EVEN THE IMPLIED WARRANTY OF          
# MERCHANTABILITY OR FITNESS FOR A PARTICULAR PURPOSE. SEE THE GNU    
# GENERAL PUBLIC LICENSE FOR MORE DETAILS.                            
#
# YOU SHOULD HAVE RECEIVED A COPY OF THE GNU GENERAL PUBLIC LICENSE   
# ALONG WITH THIS PROGRAM; IF NOT, WRITE TO EDF R&D CODE_ASTER,       
#    1 AVENUE DU GENERAL DE GAULLE, 92141 CLAMART CEDEX, FRANCE.      
# ======================================================================
#---------------------------------------------------------------------
#         - MODELISATION AVEC DES ELEMENTS 'DKQ'(QUA4)
#---------------------------------------------------------------------
#
DEBUT(CODE=_F(NOM='SSLS118A',NIV_PUB_WEB='INTERNET'),);
PRE_GIBI();
MA=LIRE_MAILLAGE(VERI_MAIL=_F(VERIF='NON'),);
MA=DEFI_GROUP(reuse =MA,
              CREA_GROUP_MA=_F(TOUT='OUI',
                               NOM='TOUT',),
              MAILLAGE=MA,
              CREA_GROUP_NO=(_F(GROUP_MA='AB',),
                             _F(GROUP_MA='BC',),
                             _F(GROUP_MA='CD',),
                             _F(GROUP_MA='DA',),),);
MO=AFFE_MODELE(AFFE=_F(TOUT='OUI',
                       PHENOMENE='MECANIQUE',
                       MODELISATION='DKT',),
               MAILLAGE=MA,);
CAR_ELE=AFFE_CARA_ELEM(MODELE=MO,
                       COQUE=_F(ANGL_REP=(0.0,0.0),
                                GROUP_MA='TOUT',
                                EPAIS=0.1,),);
MAT=DEFI_MATERIAU(ELAS=_F(NU=0.25,
                          E=25.0,),);
CHAM_MAT=AFFE_MATERIAU(AFFE=_F(MATER=MAT,
                               TOUT='OUI',),
                       MAILLAGE=MA,);
PO=1.0
P=FORMULE(REEL="""(REEL:X,REEL:Y)=PO*SIN(PI*X)*SIN(PI*Y)""");
CHA_1=AFFE_CHAR_MECA(DDL_IMPO=(_F(DZ=0.0,
                                  GROUP_NO='AB',
                                  DRY=0.0,),
                               _F(DX=0.0,
                                  GROUP_NO='BC',
                                  DRY=0.0,),
                               _F(DY=0.0,
                                  GROUP_NO='CD',
                                  DRX=0.0,),
                               _F(DZ=0.0,
                                  GROUP_NO='DA',
                                  DRX=0.0,),),
                     MODELE=MO,
                     FORCE_ARETE=(_F(MY=0.0,
                                     GROUP_MA='AB',),
                                  _F(MY=0.0,
                                     GROUP_MA='CD',),
                                  _F(MX=0.0,
                                     GROUP_MA='BC',),
                                  _F(MX=0.0,
                                     GROUP_MA='DA',),),);
CHA=AFFE_CHAR_MECA(DDL_IMPO=(_F(DX=0.0,
                                DY=0.0,
                                GROUP_NO='O',
                                DRZ=0.0,
                                DRX=0.0,
                                DRY=0.0,),
                             _F(DZ=0.0,
                                DX=0.0,
                                GROUP_NO='AB',
                                DRY=0.0,),
                             _F(DZ=0.0,
                                DY=0.0,
                                GROUP_NO='BC',
                                DRX=0.0,),
                             _F(DZ=0.0,
                                DX=0.0,
                                GROUP_NO='CD',
                                DRY=0.0,),
                             _F(DZ=0.0,
                                DY=0.0,
                                GROUP_NO='DA',
                                DRX=0.0,),),
                   MODELE=MO,
                   FORCE_ARETE=(_F(MY=0.0,
                                   GROUP_MA='AB',),
                                _F(MY=0.0,
                                   GROUP_MA='CD',),
                                _F(MX=0.0,
                                   GROUP_MA='BC',),
                                _F(MX=0.0,
                                   GROUP_MA='DA',),),);
CHA_P=AFFE_CHAR_MECA_F(MODELE=MO,
                       FORCE_COQUE=_F(PRES=P,
                                      GROUP_MA='MAIL1',),);
RESU=MECA_STATIQUE(CHAM_MATER=CHAM_MAT,
                   MODELE=MO,
                   CARA_ELEM=CAR_ELE,
                   EXCIT=(_F(CHARGE=CHA,),
                          _F(CHARGE=CHA_P,),),);
DEPL=CREA_CHAMP(NOM_CHAM='DEPL',
                TYPE_CHAM='NOEU_DEPL_R',
                OPERATION='EXTR',
                NUME_ORDRE=1,
                RESULTAT=RESU,);
SIG_C1_S=CALC_CHAM_ELEM(DEPL=DEPL,
                        NIVE_COUCHE='SUP',
                        MODELE=MO,
                        NUME_COUCHE=1,
                        CHAM_MATER=CHAM_MAT,
                        CARA_ELEM=CAR_ELE,
                        OPTION='SIGM_ELNO_DEPL',);
SIG_C1_M=CALC_CHAM_ELEM(DEPL=DEPL,
                        NIVE_COUCHE='MOY',
                        MODELE=MO,
                        NUME_COUCHE=1,
                        CHAM_MATER=CHAM_MAT,
                        CARA_ELEM=CAR_ELE,
                        OPTION='SIGM_ELNO_DEPL',);
SIG_C1_I=CALC_CHAM_ELEM(DEPL=DEPL,
                        NIVE_COUCHE='INF',
                        MODELE=MO,
                        NUME_COUCHE=1,
                        CHAM_MATER=CHAM_MAT,
                        CARA_ELEM=CAR_ELE,
                        OPTION='SIGM_ELNO_DEPL',);
EFF=CALC_CHAM_ELEM(DEPL=DEPL,
                   MODELE=MO,
                   PLAN='MOY',
                   CHAM_MATER=CHAM_MAT,
                   CARA_ELEM=CAR_ELE,
                   OPTION='EFGE_ELNO_DEPL',);
DFF=CALC_CHAM_ELEM(DEPL=DEPL,
                   MODELE=MO,
                   PLAN='MOY',
                   CHAM_MATER=CHAM_MAT,
                   CARA_ELEM=CAR_ELE,
                   OPTION='DEGE_ELNO_DEPL',);
IMPR_RESU(RESU=_F(MAILLAGE=MA,
                  FORMAT='IDEAS',
                  RESULTAT=RESU,),
          MODELE=MO,);
TEST_RESU(RESU=_F(NOM_CHAM='DEPL',
                  RESULTAT=RESU,
                  PRECISION=0.0125,
                  VALE=-1.1549,
                  GROUP_NO='O',
                  NOM_CMP='DZ',
                  NUME_ORDRE=1,),
          CHAM_ELEM=(_F(CHAM_GD=SIG_C1_I,
                        MAILLE='M78',
                        VALE=18.99,
                        PRECISION=1.E-2,
                        GROUP_NO='O',
                        NOM_CMP='SIXX',),
                     _F(CHAM_GD=SIG_C1_I,
                        MAILLE='M78',
                        VALE=18.99,
                        PRECISION=1.E-2,
                        GROUP_NO='O',
                        NOM_CMP='SIYY',),
                     _F(CHAM_GD=SIG_C1_I,
                        MAILLE='M78',
                        VALE=0.0,
                        PRECISION=1.E-2,
                        GROUP_NO='O',
                        NOM_CMP='SIXY',
                        CRITERE='ABSOLU',),
                     _F(CHAM_GD=SIG_C1_I,
                        MAILLE='M78',
                        VALE=0.0,
                        PRECISION=1.E-2,
                        GROUP_NO='O',
                        NOM_CMP='SIXZ',
                        CRITERE='ABSOLU',),
                     _F(CHAM_GD=SIG_C1_I,
                        MAILLE='M78',
                        VALE=0.0,
                        PRECISION=1.E-2,
                        GROUP_NO='O',
                        NOM_CMP='SIYZ',
                        CRITERE='ABSOLU',),
                     _F(CHAM_GD=SIG_C1_M,
                        MAILLE='M78',
                        VALE=0.0,
                        PRECISION=1.E-2,
                        GROUP_NO='O',
                        NOM_CMP='SIXX',
                        CRITERE='ABSOLU',),
                     _F(CHAM_GD=SIG_C1_M,
                        MAILLE='M78',
                        VALE=0.0,
                        PRECISION=1.E-2,
                        GROUP_NO='O',
                        NOM_CMP='SIYY',
                        CRITERE='ABSOLU',),
                     _F(CHAM_GD=SIG_C1_M,
                        MAILLE='M78',
                        VALE=0.0,
                        PRECISION=1.E-2,
                        GROUP_NO='O',
                        NOM_CMP='SIXY',
                        CRITERE='ABSOLU',),
                     _F(CHAM_GD=SIG_C1_M,
                        MAILLE='M78',
                        VALE=0.0,
                        PRECISION=0.26,
                        GROUP_NO='O',
                        NOM_CMP='SIXZ',
                        CRITERE='ABSOLU',),
                     _F(CHAM_GD=SIG_C1_M,
                        MAILLE='M78',
                        VALE=0.0,
                        PRECISION=0.26,
                        GROUP_NO='O',
                        NOM_CMP='SIYZ',
                        CRITERE='ABSOLU',),
                     _F(CHAM_GD=SIG_C1_S,
                        MAILLE='M78',
                        VALE=-18.99,
                        PRECISION=1.E-2,
                        GROUP_NO='O',
                        NOM_CMP='SIXX',),
                     _F(CHAM_GD=SIG_C1_S,
                        MAILLE='M78',
                        VALE=-18.99,
                        PRECISION=1.E-2,
                        GROUP_NO='O',
                        NOM_CMP='SIYY',),
                     _F(CHAM_GD=SIG_C1_S,
                        MAILLE='M78',
                        VALE=0.0,
                        PRECISION=1.E-2,
                        GROUP_NO='O',
                        NOM_CMP='SIXY',
                        CRITERE='ABSOLU',),
                     _F(CHAM_GD=SIG_C1_S,
                        MAILLE='M78',
                        VALE=0.0,
                        PRECISION=1.E-2,
                        GROUP_NO='O',
                        NOM_CMP='SIXZ',
                        CRITERE='ABSOLU',),
                     _F(CHAM_GD=SIG_C1_S,
                        MAILLE='M78',
                        VALE=0.0,
                        PRECISION=1.E-2,
                        GROUP_NO='O',
                        NOM_CMP='SIYZ',
                        CRITERE='ABSOLU',),
                     _F(CHAM_GD=SIG_C1_I,
                        MAILLE='M6',
                        VALE=0.0,
                        PRECISION=1.E-2,
                        GROUP_NO='B1',
                        NOM_CMP='SIXX',
                        CRITERE='ABSOLU',),
                     _F(CHAM_GD=SIG_C1_I,
                        MAILLE='M6',
                        VALE=0.0,
                        PRECISION=1.E-2,
                        GROUP_NO='B1',
                        NOM_CMP='SIYY',
                        CRITERE='ABSOLU',),
                     _F(CHAM_GD=SIG_C1_I,
                        MAILLE='M6',
                        VALE=0.0,
                        PRECISION=0.74,
                        GROUP_NO='B1',
                        NOM_CMP='SIXY',
                        CRITERE='ABSOLU',),
                     _F(CHAM_GD=SIG_C1_I,
                        MAILLE='M6',
                        VALE=0.0,
                        PRECISION=1.E-2,
                        GROUP_NO='B1',
                        NOM_CMP='SIXZ',
                        CRITERE='ABSOLU',),
                     _F(CHAM_GD=SIG_C1_I,
                        MAILLE='M6',
                        VALE=0.0,
                        PRECISION=1.E-2,
                        GROUP_NO='B1',
                        NOM_CMP='SIYZ',
                        CRITERE='ABSOLU',),
                     _F(CHAM_GD=SIG_C1_M,
                        MAILLE='M6',
                        VALE=0.0,
                        PRECISION=1.E-2,
                        GROUP_NO='B1',
                        NOM_CMP='SIXX',
                        CRITERE='ABSOLU',),
                     _F(CHAM_GD=SIG_C1_M,
                        MAILLE='M6',
                        VALE=0.0,
                        PRECISION=1.E-2,
                        GROUP_NO='B1',
                        NOM_CMP='SIYY',
                        CRITERE='ABSOLU',),
                     _F(CHAM_GD=SIG_C1_M,
                        MAILLE='M6',
                        VALE=0.0,
                        PRECISION=1.E-2,
                        GROUP_NO='B1',
                        NOM_CMP='SIXY',
                        CRITERE='ABSOLU',),
                     _F(CHAM_GD=SIG_C1_M,
                        MAILLE='M6',
                        VALE=0.0,
                        PRECISION=0.26,
                        GROUP_NO='B1',
                        NOM_CMP='SIXZ',
                        CRITERE='ABSOLU',),
                     _F(CHAM_GD=SIG_C1_M,
                        MAILLE='M6',
                        VALE=-2.39732,
                        PRECISION=0.21,
                        GROUP_NO='B1',
                        NOM_CMP='SIYZ',),
                     _F(CHAM_GD=SIG_C1_S,
                        MAILLE='M6',
                        VALE=0.0,
                        PRECISION=0.26,
                        GROUP_NO='B1',
                        NOM_CMP='SIXX',
                        CRITERE='ABSOLU',),
                     _F(CHAM_GD=SIG_C1_S,
                        MAILLE='M6',
                        VALE=0.0,
                        PRECISION=0.26,
                        GROUP_NO='B1',
                        NOM_CMP='SIYY',
                        CRITERE='ABSOLU',),
                     _F(CHAM_GD=SIG_C1_S,
                        MAILLE='M6',
                        VALE=0.0,
                        PRECISION=0.74,
                        GROUP_NO='B1',
                        NOM_CMP='SIXY',
                        CRITERE='ABSOLU',),
                     _F(CHAM_GD=SIG_C1_S,
                        MAILLE='M6',
                        VALE=0.0,
                        PRECISION=1.E-2,
                        GROUP_NO='B1',
                        NOM_CMP='SIXZ',
                        CRITERE='ABSOLU',),
                     _F(CHAM_GD=SIG_C1_S,
                        MAILLE='M6',
                        VALE=0.0,
                        PRECISION=1.E-2,
                        GROUP_NO='B1',
                        NOM_CMP='SIYZ',
                        CRITERE='ABSOLU',),
                     _F(CHAM_GD=EFF,
                        MAILLE='M78',
                        VALE=0.0,
                        PRECISION=1.E-2,
                        GROUP_NO='O',
                        NOM_CMP='NXX',
                        CRITERE='ABSOLU',),
                     _F(CHAM_GD=EFF,
                        MAILLE='M78',
                        VALE=0.0,
                        PRECISION=1.E-2,
                        GROUP_NO='O',
                        NOM_CMP='NYY',
                        CRITERE='ABSOLU',),
                     _F(CHAM_GD=EFF,
                        MAILLE='M78',
                        VALE=0.0,
                        PRECISION=1.E-2,
                        GROUP_NO='O',
                        NOM_CMP='NXY',
                        CRITERE='ABSOLU',),
                     _F(CHAM_GD=EFF,
                        MAILLE='M78',
                        VALE=-0.0316628,
                        PRECISION=1.E-2,
                        GROUP_NO='O',
                        NOM_CMP='MXX',),
                     _F(CHAM_GD=EFF,
                        MAILLE='M78',
                        VALE=-0.0316628,
                        PRECISION=1.E-2,
                        GROUP_NO='O',
                        NOM_CMP='MYY',),
                     _F(CHAM_GD=EFF,
                        MAILLE='M78',
                        VALE=0.0,
                        PRECISION=1.E-2,
                        GROUP_NO='O',
                        NOM_CMP='MXY',
                        CRITERE='ABSOLU',),
                     _F(CHAM_GD=EFF,
                        MAILLE='M78',
                        VALE=0.0,
                        PRECISION=0.02,
                        GROUP_NO='O',
                        NOM_CMP='QX',
                        CRITERE='ABSOLU',),
                     _F(CHAM_GD=EFF,
                        MAILLE='M78',
                        VALE=0.0,
                        PRECISION=0.02,
                        GROUP_NO='O',
                        NOM_CMP='QY',
                        CRITERE='ABSOLU',),
                     _F(CHAM_GD=EFF,
                        MAILLE='M79',
                        VALE=0.0,
                        PRECISION=0.02,
                        GROUP_NO='O',
                        NOM_CMP='QX',
                        CRITERE='ABSOLU',),
                     _F(CHAM_GD=EFF,
                        MAILLE='M79',
                        VALE=0.0,
                        PRECISION=0.02,
                        GROUP_NO='O',
                        NOM_CMP='QY',
                        CRITERE='ABSOLU',),
                     _F(CHAM_GD=EFF,
                        MAILLE='M66',
                        VALE=0.0,
                        PRECISION=0.02,
                        GROUP_NO='O',
                        NOM_CMP='QX',
                        CRITERE='ABSOLU',),
                     _F(CHAM_GD=EFF,
                        MAILLE='M66',
                        VALE=0.0,
                        PRECISION=0.02,
                        GROUP_NO='O',
                        NOM_CMP='QY',
                        CRITERE='ABSOLU',),
                     _F(CHAM_GD=EFF,
                        MAILLE='M67',
                        VALE=0.0,
                        PRECISION=0.02,
                        GROUP_NO='O',
                        NOM_CMP='QX',
                        CRITERE='ABSOLU',),
                     _F(CHAM_GD=EFF,
                        MAILLE='M67',
                        VALE=0.0,
                        PRECISION=0.02,
                        GROUP_NO='O',
                        NOM_CMP='QY',
                        CRITERE='ABSOLU',),
                     _F(CHAM_GD=EFF,
                        MAILLE='M144',
                        VALE=0.0,
                        PRECISION=1.E-2,
                        GROUP_NO='C',
                        NOM_CMP='NXX',
                        CRITERE='ABSOLU',),
                     _F(CHAM_GD=EFF,
                        MAILLE='M144',
                        VALE=0.0,
                        PRECISION=1.E-2,
                        GROUP_NO='C',
                        NOM_CMP='NYY',
                        CRITERE='ABSOLU',),
                     _F(CHAM_GD=EFF,
                        MAILLE='M144',
                        VALE=0.0,
                        PRECISION=1.E-2,
                        GROUP_NO='C',
                        NOM_CMP='NXY',
                        CRITERE='ABSOLU',),
                     _F(CHAM_GD=EFF,
                        MAILLE='M144',
                        VALE=0.0,
                        PRECISION=1.E-2,
                        GROUP_NO='C',
                        NOM_CMP='MXX',
                        CRITERE='ABSOLU',),
                     _F(CHAM_GD=EFF,
                        MAILLE='M144',
                        VALE=0.0,
                        PRECISION=1.E-2,
                        GROUP_NO='C',
                        NOM_CMP='MYY',
                        CRITERE='ABSOLU',),
                     _F(CHAM_GD=EFF,
                        MAILLE='M144',
                        VALE=0.0189978,
                        PRECISION=0.03,
                        GROUP_NO='C',
                        NOM_CMP='MXY',),
                     _F(CHAM_GD=EFF,
                        MAILLE='M144',
                        VALE=0.0,
                        PRECISION=1.E-2,
                        GROUP_NO='C',
                        NOM_CMP='QX',
                        CRITERE='ABSOLU',),
                     _F(CHAM_GD=EFF,
                        MAILLE='M144',
                        VALE=0.0,
                        PRECISION=1.E-2,
                        GROUP_NO='C',
                        NOM_CMP='QY',
                        CRITERE='ABSOLU',),
                     _F(CHAM_GD=EFF,
                        MAILLE='M133',
                        VALE=0.0,
                        PRECISION=1.E-2,
                        GROUP_NO='D',
                        NOM_CMP='NXX',
                        CRITERE='ABSOLU',),
                     _F(CHAM_GD=EFF,
                        MAILLE='M133',
                        VALE=0.0,
                        PRECISION=1.E-2,
                        GROUP_NO='D',
                        NOM_CMP='NYY',
                        CRITERE='ABSOLU',),
                     _F(CHAM_GD=EFF,
                        MAILLE='M133',
                        VALE=0.0,
                        PRECISION=1.E-2,
                        GROUP_NO='D',
                        NOM_CMP='NXY',
                        CRITERE='ABSOLU',),
                     _F(CHAM_GD=EFF,
                        MAILLE='M133',
                        VALE=0.0,
                        PRECISION=1.E-2,
                        GROUP_NO='D',
                        NOM_CMP='MXX',
                        CRITERE='ABSOLU',),
                     _F(CHAM_GD=EFF,
                        MAILLE='M133',
                        VALE=0.0,
                        PRECISION=1.E-2,
                        GROUP_NO='D',
                        NOM_CMP='MYY',
                        CRITERE='ABSOLU',),
                     _F(CHAM_GD=EFF,
                        MAILLE='M133',
                        VALE=-0.0189978,
                        PRECISION=0.03,
                        GROUP_NO='D',
                        NOM_CMP='MXY',),
                     _F(CHAM_GD=EFF,
                        MAILLE='M133',
                        VALE=0.0,
                        PRECISION=1.E-2,
                        GROUP_NO='D',
                        NOM_CMP='QX',
                        CRITERE='ABSOLU',),
                     _F(CHAM_GD=EFF,
                        MAILLE='M133',
                        VALE=0.0,
                        PRECISION=1.E-2,
                        GROUP_NO='D',
                        NOM_CMP='QY',
                        CRITERE='ABSOLU',),
                     _F(CHAM_GD=EFF,
                        MAILLE='M73',
                        VALE=0.0,
                        PRECISION=1.E-2,
                        GROUP_NO='D1',
                        NOM_CMP='NXX',
                        CRITERE='ABSOLU',),
                     _F(CHAM_GD=EFF,
                        MAILLE='M73',
                        VALE=0.0,
                        PRECISION=1.E-2,
                        GROUP_NO='D1',
                        NOM_CMP='NYY',
                        CRITERE='ABSOLU',),
                     _F(CHAM_GD=EFF,
                        MAILLE='M73',
                        VALE=0.0,
                        PRECISION=1.E-2,
                        GROUP_NO='D1',
                        NOM_CMP='NXY',
                        CRITERE='ABSOLU',),
                     _F(CHAM_GD=EFF,
                        MAILLE='M73',
                        VALE=0.0,
                        PRECISION=1.E-2,
                        GROUP_NO='D1',
                        NOM_CMP='MXX',
                        CRITERE='ABSOLU',),
                     _F(CHAM_GD=EFF,
                        MAILLE='M73',
                        VALE=0.0,
                        PRECISION=1.E-2,
                        GROUP_NO='D1',
                        NOM_CMP='MYY',
                        CRITERE='ABSOLU',),
                     _F(CHAM_GD=EFF,
                        MAILLE='M73',
                        VALE=0.0,
                        PRECISION=1.E-2,
                        GROUP_NO='D1',
                        NOM_CMP='MXY',
                        CRITERE='ABSOLU',),
                     _F(CHAM_GD=EFF,
                        MAILLE='M73',
                        VALE=-0.159155,
                        PRECISION=0.21,
                        GROUP_NO='D1',
                        NOM_CMP='QX',),
                     _F(CHAM_GD=EFF,
                        MAILLE='M73',
                        VALE=0.0,
                        PRECISION=1.E-2,
                        GROUP_NO='D1',
                        NOM_CMP='QY',
                        CRITERE='ABSOLU',),
                     _F(CHAM_GD=EFF,
                        MAILLE='M61',
                        VALE=-0.159155,
                        PRECISION=0.21,
                        GROUP_NO='D1',
                        NOM_CMP='QX',),
                     _F(CHAM_GD=EFF,
                        MAILLE='M61',
                        VALE=0.0,
                        PRECISION=1.E-2,
                        GROUP_NO='D1',
                        NOM_CMP='QY',
                        CRITERE='ABSOLU',),
                     _F(CHAM_GD=EFF,
                        MAILLE='M1',
                        VALE=0.0,
                        PRECISION=1.E-2,
                        GROUP_NO='A',
                        NOM_CMP='NXX',
                        CRITERE='ABSOLU',),
                     _F(CHAM_GD=EFF,
                        MAILLE='M1',
                        VALE=0.0,
                        PRECISION=1.E-2,
                        GROUP_NO='A',
                        NOM_CMP='NYY',
                        CRITERE='ABSOLU',),
                     _F(CHAM_GD=EFF,
                        MAILLE='M1',
                        VALE=0.0,
                        PRECISION=1.E-2,
                        GROUP_NO='A',
                        NOM_CMP='NXY',
                        CRITERE='ABSOLU',),
                     _F(CHAM_GD=EFF,
                        MAILLE='M1',
                        VALE=0.0,
                        PRECISION=1.E-2,
                        GROUP_NO='A',
                        NOM_CMP='MXX',
                        CRITERE='ABSOLU',),
                     _F(CHAM_GD=EFF,
                        MAILLE='M1',
                        VALE=0.0,
                        PRECISION=1.E-2,
                        GROUP_NO='A',
                        NOM_CMP='MYY',
                        CRITERE='ABSOLU',),
                     _F(CHAM_GD=EFF,
                        MAILLE='M1',
                        VALE=0.0189978,
                        PRECISION=0.03,
                        GROUP_NO='A',
                        NOM_CMP='MXY',),
                     _F(CHAM_GD=EFF,
                        MAILLE='M1',
                        VALE=0.0,
                        PRECISION=1.E-2,
                        GROUP_NO='A',
                        NOM_CMP='QY',
                        CRITERE='ABSOLU',),
                     _F(CHAM_GD=EFF,
                        MAILLE='M1',
                        VALE=0.0,
                        PRECISION=1.E-2,
                        GROUP_NO='A',
                        NOM_CMP='QX',
                        CRITERE='ABSOLU',),
                     _F(CHAM_GD=EFF,
                        MAILLE='M12',
                        VALE=0.0,
                        PRECISION=1.E-2,
                        GROUP_NO='B',
                        NOM_CMP='NXX',
                        CRITERE='ABSOLU',),
                     _F(CHAM_GD=EFF,
                        MAILLE='M12',
                        VALE=0.0,
                        PRECISION=1.E-2,
                        GROUP_NO='B',
                        NOM_CMP='NYY',
                        CRITERE='ABSOLU',),
                     _F(CHAM_GD=EFF,
                        MAILLE='M12',
                        VALE=0.0,
                        PRECISION=1.E-2,
                        GROUP_NO='B',
                        NOM_CMP='NXY',
                        CRITERE='ABSOLU',),
                     _F(CHAM_GD=EFF,
                        MAILLE='M12',
                        VALE=0.0,
                        PRECISION=1.E-2,
                        GROUP_NO='B',
                        NOM_CMP='MXX',
                        CRITERE='ABSOLU',),
                     _F(CHAM_GD=EFF,
                        MAILLE='M12',
                        VALE=0.0,
                        PRECISION=1.E-2,
                        GROUP_NO='B',
                        NOM_CMP='MYY',
                        CRITERE='ABSOLU',),
                     _F(CHAM_GD=EFF,
                        MAILLE='M12',
                        VALE=-0.0189978,
                        PRECISION=0.03,
                        GROUP_NO='B',
                        NOM_CMP='MXY',),
                     _F(CHAM_GD=EFF,
                        MAILLE='M12',
                        VALE=0.0,
                        PRECISION=1.E-2,
                        GROUP_NO='B',
                        NOM_CMP='QY',
                        CRITERE='ABSOLU',),
                     _F(CHAM_GD=EFF,
                        MAILLE='M12',
                        VALE=0.0,
                        PRECISION=1.E-2,
                        GROUP_NO='B',
                        NOM_CMP='QX',
                        CRITERE='ABSOLU',),
                     _F(CHAM_GD=EFF,
                        MAILLE='M6',
                        VALE=0.0,
                        PRECISION=1.E-2,
                        GROUP_NO='B1',
                        NOM_CMP='NXX',
                        CRITERE='ABSOLU',),
                     _F(CHAM_GD=EFF,
                        MAILLE='M6',
                        VALE=0.0,
                        PRECISION=1.E-2,
                        GROUP_NO='B1',
                        NOM_CMP='NYY',
                        CRITERE='ABSOLU',),
                     _F(CHAM_GD=EFF,
                        MAILLE='M6',
                        VALE=0.0,
                        PRECISION=1.E-2,
                        GROUP_NO='B1',
                        NOM_CMP='NXY',
                        CRITERE='ABSOLU',),
                     _F(CHAM_GD=EFF,
                        MAILLE='M6',
                        VALE=0.0,
                        PRECISION=1.E-2,
                        GROUP_NO='B1',
                        NOM_CMP='MXX',
                        CRITERE='ABSOLU',),
                     _F(CHAM_GD=EFF,
                        MAILLE='M6',
                        VALE=0.0,
                        PRECISION=1.E-2,
                        GROUP_NO='B1',
                        NOM_CMP='MYY',
                        CRITERE='ABSOLU',),
                     _F(CHAM_GD=EFF,
                        MAILLE='M6',
                        VALE=0.0,
                        PRECISION=1.E-2,
                        GROUP_NO='B1',
                        NOM_CMP='MXY',
                        CRITERE='ABSOLU',),
                     _F(CHAM_GD=EFF,
                        MAILLE='M6',
                        VALE=-0.159155,
                        PRECISION=0.21,
                        GROUP_NO='B1',
                        NOM_CMP='QY',),
                     _F(CHAM_GD=EFF,
                        MAILLE='M6',
                        VALE=0.0,
                        PRECISION=1.E-2,
                        GROUP_NO='B1',
                        NOM_CMP='QX',
                        CRITERE='ABSOLU',),
                     _F(CHAM_GD=EFF,
                        MAILLE='M7',
                        VALE=0.0,
                        PRECISION=1.E-2,
                        GROUP_NO='B1',
                        NOM_CMP='NXX',
                        CRITERE='ABSOLU',),
                     _F(CHAM_GD=EFF,
                        MAILLE='M7',
                        VALE=0.0,
                        PRECISION=1.E-2,
                        GROUP_NO='B1',
                        NOM_CMP='NYY',
                        CRITERE='ABSOLU',),
                     _F(CHAM_GD=EFF,
                        MAILLE='M7',
                        VALE=0.0,
                        PRECISION=1.E-2,
                        GROUP_NO='B1',
                        NOM_CMP='NXY',
                        CRITERE='ABSOLU',),
                     _F(CHAM_GD=EFF,
                        MAILLE='M7',
                        VALE=0.0,
                        PRECISION=1.E-2,
                        GROUP_NO='B1',
                        NOM_CMP='MXX',
                        CRITERE='ABSOLU',),
                     _F(CHAM_GD=EFF,
                        MAILLE='M7',
                        VALE=0.0,
                        PRECISION=1.E-2,
                        GROUP_NO='B1',
                        NOM_CMP='MYY',
                        CRITERE='ABSOLU',),
                     _F(CHAM_GD=EFF,
                        MAILLE='M7',
                        VALE=0.0,
                        PRECISION=1.E-2,
                        GROUP_NO='B1',
                        NOM_CMP='MXY',
                        CRITERE='ABSOLU',),
                     _F(CHAM_GD=EFF,
                        MAILLE='M7',
                        VALE=-0.159155,
                        PRECISION=0.21,
                        GROUP_NO='B1',
                        NOM_CMP='QY',),
                     _F(CHAM_GD=EFF,
                        MAILLE='M7',
                        VALE=0.0,
                        PRECISION=1.E-2,
                        GROUP_NO='B1',
                        NOM_CMP='QX',
                        CRITERE='ABSOLU',),),);
FIN();
