# AUTEUR : F. LEBOUVIER (DeltaCAD)
#  TITRE  : FLEXION D'UNE DALLE EN BETON ARME (MODELE GLRC) APPUYEE SUR 2 COTES:
# ======================================================================
# COPYRIGHT (C) 1991 - 2013  EDF R&D                  WWW.CODE-ASTER.ORG
# THIS PROGRAM IS FREE SOFTWARE; YOU CAN REDISTRIBUTE IT AND/OR MODIFY
# IT UNDER THE TERMS OF THE GNU GENERAL PUBLIC LICENSE AS PUBLISHED BY
# THE FREE SOFTWARE FOUNDATION; EITHER VERSION 2 OF THE LICENSE, OR
# (AT YOUR OPTION) ANY LATER VERSION.
#
# THIS PROGRAM IS DISTRIBUTED IN THE HOPE THAT IT WILL BE USEFUL, BUT
# WITHOUT ANY WARRANTY; WITHOUT EVEN THE IMPLIED WARRANTY OF
# MERCHANTABILITY OR FITNESS FOR A PARTICULAR PURPOSE. SEE THE GNU
# GENERAL PUBLIC LICENSE FOR MORE DETAILS.
#
# YOU SHOULD HAVE RECEIVED A COPY OF THE GNU GENERAL PUBLIC LICENSE
# ALONG WITH THIS PROGRAM; IF NOT, WRITE TO EDF R&D CODE_ASTER,
#    1 AVENUE DU GENERAL DE GAULLE, 92141 CLAMART CEDEX, FRANCE.
# ======================================================================
#           REGIME DE POUTRE ELASTIQUE
#
#  DETAILS : MODELISATION Q4GG
#            Mailles TRIA3

DEBUT(CODE=_F(NIV_PUB_WEB='INTERNET'),DEBUG=_F(SDVERI='OUI'))

# Carateristiques de la dalle

EP=0.12;         # Epaisseur
AX=7.854E-4;     # Taux de ferraillage
AY=7.854E-4;     # Taux de ferraillage
EZ=0.038;        # Distance grille/surface moyenne de la dalle
EZ=0.5*EP - EZ   # Enrobage
R0=EZ/(0.5*EP)   # Distance normalisee du ferraillage par rapport
                   # au feuillet moyen

# Caracteristiques du beton

EB=35700.E6;    # Module d'Young
NUB=0.22;        # Coefficient de poisson vaut 0.22, mais pour un modele
                   # poutre on impose NUB=0.

# Caracteristiques de l'acier (armatures)

E=210000.E6;    # Module d'Young
NU=0.3;          # Coefficient de poisson

MAIL=LIRE_MAILLAGE(FORMAT='MED',);

MAIL=DEFI_GROUP(reuse=MAIL,
                MAILLAGE=MAIL,
                CREA_GROUP_NO=(_F(GROUP_MA='LCONTY',),
                               _F(GROUP_MA='LCONTX',),
                               _F(GROUP_MA='LSYMY',),
                               _F(GROUP_MA='LSYMX',),),);

MOD=AFFE_MODELE(MAILLAGE=MAIL,
                AFFE=_F(TOUT='OUI',
                        PHENOMENE='MECANIQUE',
                        MODELISATION='Q4GG',),);

MAIL=MODI_MAILLAGE(reuse=MAIL,
                   MAILLAGE=MAIL,
                   ORIE_NORM_COQUE=_F(GROUP_MA='DALLE',
                                      VECT_NORM=(0.,0.,1.),
                                      GROUP_NO='A1',),);

MF=1.0E16
QP=0.15E0

MAT_B=DEFI_MATERIAU(ELAS=_F(E=EB,
                            NU=NUB,
                            RHO=2500.0,),
                    BETON_ECRO_LINE=_F(D_SIGM_EPSI=0.0,
                                       SYT=4.4E6,
                                       SYC=-52.5E6,),);

MAT_A=DEFI_MATERIAU(ELAS=_F(E=E,
                            NU=NU,),
                    ECRO_LINE=_F(D_SIGM_EPSI=0.0,
                                 SY=5.E8,),);

MAT=DEFI_MATERIAU(ELAS=_F(E=36860844810.0362,
                               NU=0.213684859379880,),);

CHMAT=AFFE_MATERIAU(MAILLAGE=MAIL,
                    AFFE=_F(TOUT='OUI',
                            MATER=MAT,),);

CARA_ELE=AFFE_CARA_ELEM(MODELE=MOD,
                        COQUE=_F(GROUP_MA='MESH',
                                 EPAIS=EP,
                                 ANGL_REP=(0.0,0.0,),),);

COND_LIM=AFFE_CHAR_MECA(MODELE=MOD,
                        DDL_IMPO=(_F(GROUP_NO='LCONTY',
                                     DZ=0.0,),
                                  _F(GROUP_NO='LSYMX',
                                     DY=0,
                                     DRX=0,),
                                  _F(GROUP_NO='LSYMY',
                                     DX=0,
                                     DRY=0.0,),),);

PRES=AFFE_CHAR_MECA(MODELE=MOD,
                    FORCE_COQUE=_F(GROUP_MA='DALLE',
                                   PRES=-10000.0,),);

CH_FO=DEFI_FONCTION(NOM_PARA='INST',
                     VALE=(0.0, 0.0,1.0, 1.0),
                     PROL_DROITE='LINEAIRE',
                     PROL_GAUCHE='LINEAIRE',);

INST=DEFI_LIST_REEL(DEBUT=0.0,
                    INTERVALLE=(_F(JUSQU_A=1.,NOMBRE=1),),);

RESU=STAT_NON_LINE(MODELE=MOD,
                   CHAM_MATER=CHMAT,
                   CARA_ELEM=CARA_ELE,
                   COMPORTEMENT=_F(RELATION='ELAS',),
                   CONVERGENCE=_F(ITER_GLOB_MAXI=10),
                   INCREMENT=_F(LIST_INST=INST,
                                PRECISION=1.E-1),
                   EXCIT=(_F(CHARGE=COND_LIM,),
                          _F(CHARGE=PRES,
                             FONC_MULT=CH_FO,),),);

RESU=CALC_CHAMP(reuse=RESU,
                CONTRAINTE=('EFGE_ELNO','EFGE_ELGA'),
                VARI_INTERNE=('VARI_ELNO'),
                DEFORMATION=('DEGE_ELNO','DEGE_ELGA'),
                RESULTAT=RESU,);


TEST_RESU(RESU=_F(NUME_ORDRE=1,
                  GROUP_NO='A1',
                  REFERENCE='ANALYTIQUE',
                  RESULTAT=RESU,
                  NOM_CHAM='DEPL',
                  NOM_CMP='DZ',
                  VALE_CALC=2.46333486E-04,
                  VALE_REFE=2.433E-4,
                  CRITERE='RELATIF',
                  PRECISION=0.02,),);

TEST_RESU(RESU=_F(NUME_ORDRE=1,
                  GROUP_NO='A1',
                  REFERENCE='ANALYTIQUE',
                  RESULTAT=RESU,
                  NOM_CHAM='EFGE_ELNO',
                  NOM_CMP='MXX',
                  VALE_CALC=3.96303856E+03,
                  VALE_REFE=4050.0,
                  CRITERE='RELATIF',
                  PRECISION=0.025,
                  MAILLE='M266',),);

TEST_RESU(RESU=_F(NUME_ORDRE=1,
                  GROUP_NO='A1',
                  REFERENCE='ANALYTIQUE',
                  RESULTAT=RESU,
                  NOM_CHAM='DEGE_ELNO',
                  NOM_CMP='KXX',
                  VALE_CALC=7.22047561E-04,
                  VALE_REFE=7.21E-4,
                  CRITERE='RELATIF',
                  PRECISION=0.025,
                  MAILLE='M266',),);

RESU_INT=MODI_REPERE(RESULTAT=RESU,
                     MODI_CHAM=_F(TYPE_CHAM='COQUE_GENE',
                                  NOM_CHAM='SIEF_ELGA',
                                  NOM_CMP=('NXX','NYY','NXY','MXX','MYY','MXY','QX','QY',),),
                     REPERE='COQUE_UTIL_INTR',);

RESU_UTI=MODI_REPERE(RESULTAT=RESU_INT,
                     MODI_CHAM=_F(TYPE_CHAM='COQUE_GENE',
                                  NOM_CHAM='SIEF_ELGA',
                                  NOM_CMP=('NXX','NYY','NXY','MXX','MYY','MXY','QX','QY',),),
                     REPERE='COQUE_INTR_UTIL',);

TEST_RESU(RESU=_F(NUME_ORDRE=1,
                  POINT=1,
                  RESULTAT=RESU,
                  NOM_CHAM='EFGE_ELGA',
                  NOM_CMP='MXX',
                  VALE_CALC= 3963.0385644587,
                  CRITERE='RELATIF',
                  MAILLE='M266',),);

TEST_RESU(RESU=_F(NUME_ORDRE=1,
                  POINT=1,
                  RESULTAT=RESU,
                  NOM_CHAM='DEGE_ELGA',
                  NOM_CMP='KXX',
                  VALE_CALC= 7.220475609981E-04,
                  CRITERE='RELATIF',
                  MAILLE='M266',),);

TEST_RESU(RESU=_F(NUME_ORDRE=1,
                  POINT=1,
                  RESULTAT=RESU_UTI,
                  NOM_CHAM='SIEF_ELGA',
                  NOM_CMP='MXX',
                  VALE_CALC= 3.96303856E+03,
                  CRITERE='RELATIF',
                  MAILLE='M266',),);

CARA_EL1=AFFE_CARA_ELEM(MODELE=MOD,
                        COQUE=_F(GROUP_MA='MESH',
                                 EPAIS=EP,
                                 ANGL_REP=(33.,12.,),),);

RESU1=STAT_NON_LINE(MODELE=MOD,
                    CHAM_MATER=CHMAT,
                    CARA_ELEM=CARA_EL1,
                    COMPORTEMENT=_F(RELATION='ELAS',),
                    CONVERGENCE=_F(ITER_GLOB_MAXI=10),
                    INCREMENT=_F(LIST_INST=INST,
                                 PRECISION=1.E-1),
                    EXCIT=(_F(CHARGE=COND_LIM,),
                           _F(CHARGE=PRES,
                              FONC_MULT=CH_FO,),),);

RESU1=CALC_CHAMP(reuse=RESU1,
                 CONTRAINTE=('EFGE_ELNO','EFGE_ELGA'),
                 VARI_INTERNE=('VARI_ELNO'),
                 DEFORMATION=('DEGE_ELNO','DEGE_ELGA'),
                 RESULTAT=RESU1);

TEST_RESU(RESU=(
           _F( RESULTAT = RESU1,
               NUME_ORDRE = 1,
               NOM_CHAM = 'DEPL',
               CRITERE = 'RELATIF',
               PRECISION = 0.02,
               GROUP_NO = 'A1',
               NOM_CMP = 'DZ',
               VALE_CALC = 2.4633348611025E-04,
               VALE_REFE = 2.433E-4,
               REFERENCE = 'ANALYTIQUE'),
             ),
          );
TEST_RESU(RESU=(
           _F( RESULTAT = RESU1,
               NUME_ORDRE = 1,
               NOM_CHAM = 'EFGE_ELNO',
               CRITERE = 'RELATIF',
               GROUP_NO = 'A1',
               MAILLE='M266',
               NOM_CMP = 'MXX',
               VALE_CALC = 2968.5460914458,),
           _F( RESULTAT = RESU1,
               NUME_ORDRE = 1,
               NOM_CHAM = 'EFGE_ELNO',
               CRITERE = 'RELATIF',
               GROUP_NO = 'A1',
               MAILLE='M266',
               NOM_CMP = 'MYY',
               VALE_CALC = 1604.9138181345,),
           _F( RESULTAT = RESU1,
               NUME_ORDRE = 1,
               NOM_CHAM = 'EFGE_ELNO',
               CRITERE = 'RELATIF',
               GROUP_NO = 'A1',
               MAILLE='M266',
               NOM_CMP = 'MXY',
               VALE_CALC = -1531.3841159699,),
             ),
           );

TEST_RESU(RESU=(
           _F( RESULTAT = RESU1,
               NUME_ORDRE = 1,
               NOM_CHAM = 'DEGE_ELNO',
               CRITERE = 'RELATIF',
               GROUP_NO = 'A1',
               MAILLE='M266',
               NOM_CMP = 'KXX',
               VALE_CALC = 4.9465321713326E-04,),
           _F( RESULTAT = RESU1,
               NUME_ORDRE = 1,
               NOM_CHAM = 'DEGE_ELNO',
               CRITERE = 'RELATIF',
               GROUP_NO = 'A1',
               MAILLE='M266',
               NOM_CMP = 'KYY',
               VALE_CALC = 1.8285370685328E-04,),
           _F( RESULTAT = RESU1,
               NUME_ORDRE = 1,
               NOM_CHAM = 'DEGE_ELNO',
               CRITERE = 'RELATIF',
               GROUP_NO = 'A1',
               MAILLE='M266',
               NOM_CMP = 'KXY',
               VALE_CALC = -3.5015658308708E-04,),
             ),
        );

TEST_RESU(RESU=(
           _F( RESULTAT = RESU1,
               NUME_ORDRE = 1,
               NOM_CHAM = 'EFGE_ELGA',
               CRITERE = 'RELATIF',
               POINT = 1,
               MAILLE='M266',
               NOM_CMP = 'MXX',
               VALE_CALC = 2968.5460914458,),
           _F( RESULTAT = RESU1,
               NUME_ORDRE = 1,
               NOM_CHAM = 'EFGE_ELGA',
               CRITERE = 'RELATIF',
               POINT = 1,
               MAILLE='M266',
               NOM_CMP = 'MYY',
               VALE_CALC = 1604.9138181345,),
           _F( RESULTAT = RESU1,
               NUME_ORDRE = 1,
               NOM_CHAM = 'EFGE_ELGA',
               CRITERE = 'RELATIF',
               POINT = 1,
               MAILLE='M266',
               NOM_CMP = 'MXY',
               VALE_CALC = -1531.3841159699,),
             ),
           );
TEST_RESU(RESU=(
           _F( RESULTAT = RESU1,
               NUME_ORDRE = 1,
               NOM_CHAM = 'DEGE_ELGA',
               CRITERE = 'RELATIF',
               POINT = 1,
               MAILLE='M266',
               NOM_CMP = 'KXX',
               VALE_CALC = 4.9465321713326E-04,),
           _F( RESULTAT = RESU1,
               NUME_ORDRE = 1,
               NOM_CHAM = 'DEGE_ELGA',
               CRITERE = 'RELATIF',
               POINT = 1,
               MAILLE='M266',
               NOM_CMP = 'KYY',
               VALE_CALC = 1.8285370685328E-04,),
           _F( RESULTAT = RESU1,
               NUME_ORDRE = 1,
               NOM_CHAM = 'DEGE_ELGA',
               CRITERE = 'RELATIF',
               POINT = 1,
               MAILLE='M266',
               NOM_CMP = 'KXY',
               VALE_CALC = -3.5015658308708E-04,),
             ),
        );

TEST_RESU(RESU=(
           _F( RESULTAT = RESU1,
               NUME_ORDRE = 1,
               NOM_CHAM = 'SIEF_ELGA',
               CRITERE = 'RELATIF',
               POINT = 1,
               MAILLE='M266',
               NOM_CMP = 'MXX',
               VALE_CALC = 2968.5460914458,),
           _F( RESULTAT = RESU1,
               NUME_ORDRE = 1,
               NOM_CHAM = 'SIEF_ELGA',
               CRITERE = 'RELATIF',
               POINT = 1,
               MAILLE='M266',
               NOM_CMP = 'MYY',
               VALE_CALC = 1604.9138181345,),
            _F( RESULTAT = RESU1,
               NUME_ORDRE = 1,
               NOM_CHAM = 'SIEF_ELGA',
               CRITERE = 'RELATIF',
               POINT = 1,
               MAILLE='M266',
               NOM_CMP = 'MXY',
               VALE_CALC = -1531.3841159699,),
              ),
           );

# validation de CALC_FERRAILLAGE / Q4GG (non-regression) :
#----------------------------------------------------------
RESU= CALC_FERRAILLAGE( RESULTAT =RESU, reuse=RESU,
         TYPE_COMB    = 'ELU',  INST=(1.,),
         AFFE  = (
            _F( TOUT='OUI', ENROBG=0.04, SIGM_ACIER=500.0E6, SIGM_BETON=21E6, PIVA=10.0E-3, PIVB= 3.5E-3,ES=E,),
         ))

TEST_RESU(RESU=_F(INST=1.0,  POINT=1, RESULTAT=RESU,  NOM_CHAM='FERRAILLAGE',
                   NOM_CMP='DNSXS', VALE_CALC=  7.1411357283314E-05 , MAILLE='M124',))



FIN();
