# MODIF  DATE 10/10/2012   AUTEUR COURTOIS M.COURTOIS 
# TITRE CYLINDRE MINCE SOUS CHARGE AXIALE UNIFORME (AXIS) -ancien SSLP07a
# ssls07a.para = tps_job 60 mem_job 256Mo ncpus 1 liste_test V
#            CONFIGURATION MANAGEMENT OF EDF VERSION
# ======================================================================
# COPYRIGHT (C) 1991 - 2012  EDF R&D                  WWW.CODE-ASTER.ORG
# THIS PROGRAM IS FREE SOFTWARE; YOU CAN REDISTRIBUTE IT AND/OR MODIFY
# IT UNDER THE TERMS OF THE GNU GENERAL PUBLIC LICENSE AS PUBLISHED BY
# THE FREE SOFTWARE FOUNDATION; EITHER VERSION 2 OF THE LICENSE, OR
# (AT YOUR OPTION) ANY LATER VERSION.
#
# THIS PROGRAM IS DISTRIBUTED IN THE HOPE THAT IT WILL BE USEFUL, BUT
# WITHOUT ANY WARRANTY; WITHOUT EVEN THE IMPLIED WARRANTY OF
# MERCHANTABILITY OR FITNESS FOR A PARTICULAR PURPOSE. SEE THE GNU
# GENERAL PUBLIC LICENSE FOR MORE DETAILS.
#
# YOU SHOULD HAVE RECEIVED A COPY OF THE GNU GENERAL PUBLIC LICENSE
# ALONG WITH THIS PROGRAM; IF NOT, WRITE TO EDF R&D CODE_ASTER,
#    1 AVENUE DU GENERAL DE GAULLE, 92141 CLAMART CEDEX, FRANCE.
# ======================================================================
#
# RESPONSABLE  g8bhhxd X.DESROCHES

DEBUT( CODE=_F(  NOM = 'SSLS07A',NIV_PUB_WEB='INTERNET') )

MAIL=LIRE_MAILLAGE(FORMAT='MED',)

#
# DEFINITION DES GROUPES DE NOEUDS
MAIL=DEFI_GROUP( reuse=MAIL,   MAILLAGE=MAIL,CREA_GROUP_NO=(
                       _F(  GROUP_MA = 'APPUI'),
                       _F(  GROUP_MA = 'BORD_CH'),
                       _F(  GROUP_MA = 'LEF'))
                   )

#
# DEFINITION DU MODELE
MODELE=AFFE_MODELE(    MAILLAGE=MAIL,
                         AFFE=_F(  TOUT = 'OUI',
                       PHENOMENE = 'MECANIQUE',
                       MODELISATION = 'AXIS')  )

#
# DEFINITION DU MATERIAU
ACIER=DEFI_MATERIAU(    ELAS=_F(  E = 2.1E11,  NU = 0.3,
                                 ALPHA = 1.E-5,  RHO = 7800.)
                      )

#
# ATTRIBUTION DU MATERIAU
CHMAT=AFFE_MATERIAU(    MAILLAGE=MAIL,
                          AFFE=_F(  TOUT = 'OUI',
                                 MATER = ACIER)  )

#
# DEFINITION DES CONDITIONS AUX LIMITES ET CHARGEMENTS
CHARGT=AFFE_CHAR_MECA(    MODELE=MODELE,
                           DDL_IMPO=_F(  GROUP_NO = 'APPUI',  DY = 0.),
                           FORCE_CONTOUR=_F(  GROUP_MA = 'BORD_CH',
                                           FY = 500000.)
#                                 ...  FY= Q/H  ...
                        )

#
# RESOLUTION
DEF=MECA_STATIQUE(    MODELE=MODELE,
                        CHAM_MATER=CHMAT,
                        EXCIT=_F(  CHARGE = CHARGT)  )

#
# RECUPERATION DU CHAMP DE DEPLACEMENTS
U=CREA_CHAMP(  OPERATION='EXTR', TYPE_CHAM='NOEU_DEPL_R',
NOM_CHAM='DEPL', RESULTAT=DEF,
                 NUME_ORDRE=1
                  )

#
# CALCUL DES CONTRAINTES

DEF=CALC_CHAMP(reuse=DEF,RESULTAT=DEF,CONTRAINTE=('SIGM_ELNO'))


#
# TEST_RESU DEPLACEMENTS
#
TEST_RESU(CHAM_NO=(_F(NOEUD='N452',
                      REFERENCE='ANALYTIQUE',
                      NOM_CMP='DY',
                      PRECISION=1.E-3,
                      CHAM_GD=U,
                      VALE_CALC= 9.52380952E-06,
                      VALE_REFE=9.5200000000000003E-06,),
                   _F(NOEUD='N504',
                      REFERENCE='ANALYTIQUE',
                      NOM_CMP='DY',
                      PRECISION=1.E-3,
                      CHAM_GD=U,
                      VALE_CALC= 9.52380952E-06,
                      VALE_REFE=9.5200000000000003E-06,),
                   _F(NOEUD='N503',
                      REFERENCE='ANALYTIQUE',
                      NOM_CMP='DY',
                      PRECISION=1.E-3,
                      CHAM_GD=U,
                      VALE_CALC= 9.52380952E-06,
                      VALE_REFE=9.5200000000000003E-06,),
                   ),
          )

#
TEST_RESU(CHAM_NO=(_F(NOEUD='N51',
                      REFERENCE='ANALYTIQUE',
                      NOM_CMP='DX',
                      PRECISION=1.E-3,
                      CHAM_GD=U,
                      VALE_CALC=-7.14285714E-07,
                      VALE_REFE=-7.1399999999999996E-07,),
                   _F(NOEUD='N202',
                      REFERENCE='ANALYTIQUE',
                      NOM_CMP='DX',
                      PRECISION=1.E-3,
                      CHAM_GD=U,
                      VALE_CALC=-7.14285714E-07,
                      VALE_REFE=-7.1399999999999996E-07,),
                   _F(NOEUD='N503',
                      REFERENCE='ANALYTIQUE',
                      NOM_CMP='DX',
                      PRECISION=1.E-3,
                      CHAM_GD=U,
                      VALE_CALC=-7.14285714E-07,
                      VALE_REFE=-7.1399999999999996E-07,),
                   ),
          )

#
# TEST_RESU CONTRAINTES
#
TEST_RESU(RESU=(_F(NUME_ORDRE=1,
                   REFERENCE='ANALYTIQUE',
                   RESULTAT=DEF,
                   NOM_CHAM='SIGM_ELNO',
                   NOEUD='N1',
                   NOM_CMP='SIXX',
                   VALE_CALC=-1.18607702E-08,
                   VALE_REFE=0.0,
                   CRITERE='ABSOLU',
                   PRECISION=1.E-4,
                   MAILLE='M4',),
                _F(NUME_ORDRE=1,
                   REFERENCE='ANALYTIQUE',
                   RESULTAT=DEF,
                   NOM_CHAM='SIGM_ELNO',
                   NOEUD='N101',
                   NOM_CMP='SIXX',
                   VALE_CALC= 4.91769844E-09,
                   VALE_REFE=0.0,
                   CRITERE='ABSOLU',
                   PRECISION=1.E-4,
                   MAILLE='M4',),
                _F(NUME_ORDRE=1,
                   REFERENCE='ANALYTIQUE',
                   RESULTAT=DEF,
                   NOM_CHAM='SIGM_ELNO',
                   NOEUD='N452',
                   NOM_CMP='SIXX',
                   VALE_CALC=-1.96014298E-08,
                   VALE_REFE=0.0,
                   CRITERE='ABSOLU',
                   PRECISION=1.E-4,
                   MAILLE='M153',),
                _F(NUME_ORDRE=1,
                   REFERENCE='ANALYTIQUE',
                   RESULTAT=DEF,
                   NOM_CHAM='SIGM_ELNO',
                   NOEUD='N504',
                   NOM_CMP='SIXX',
                   VALE_CALC= 7.36472430E-08,
                   VALE_REFE=0.0,
                   CRITERE='ABSOLU',
                   PRECISION=1.E-4,
                   MAILLE='M153',),
                _F(NUME_ORDRE=1,
                   REFERENCE='ANALYTIQUE',
                   RESULTAT=DEF,
                   NOM_CHAM='SIGM_ELNO',
                   NOEUD='N201',
                   NOM_CMP='SIXX',
                   VALE_CALC=-1.24542790E-08,
                   VALE_REFE=0.0,
                   CRITERE='ABSOLU',
                   PRECISION=1.E-4,
                   MAILLE='M53',),
                _F(NUME_ORDRE=1,
                   REFERENCE='ANALYTIQUE',
                   RESULTAT=DEF,
                   NOM_CHAM='SIGM_ELNO',
                   NOEUD='N203',
                   NOM_CMP='SIXX',
                   VALE_CALC= 7.53115635E-09,
                   VALE_REFE=0.0,
                   CRITERE='ABSOLU',
                   PRECISION=1.E-4,
                   MAILLE='M53',),
                _F(NUME_ORDRE=1,
                   REFERENCE='ANALYTIQUE',
                   RESULTAT=DEF,
                   NOM_CHAM='SIGM_ELNO',
                   NOEUD='N51',
                   NOM_CMP='SIXX',
                   VALE_CALC=-3.47153586E-09,
                   VALE_REFE=0.0,
                   CRITERE='ABSOLU',
                   PRECISION=1.E-4,
                   MAILLE='M4',),
                _F(NUME_ORDRE=1,
                   REFERENCE='ANALYTIQUE',
                   RESULTAT=DEF,
                   NOM_CHAM='SIGM_ELNO',
                   NOEUD='N202',
                   NOM_CMP='SIXX',
                   VALE_CALC=-2.46156131E-09,
                   VALE_REFE=0.0,
                   CRITERE='ABSOLU',
                   PRECISION=1.E-4,
                   MAILLE='M53',),
                _F(NUME_ORDRE=1,
                   REFERENCE='ANALYTIQUE',
                   RESULTAT=DEF,
                   NOM_CHAM='SIGM_ELNO',
                   NOEUD='N503',
                   NOM_CMP='SIXX',
                   VALE_CALC= 2.70229066E-08,
                   VALE_REFE=0.0,
                   CRITERE='ABSOLU',
                   PRECISION=1.E-4,
                   MAILLE='M153',),
                _F(NUME_ORDRE=1,
                   REFERENCE='ANALYTIQUE',
                   RESULTAT=DEF,
                   NOM_CHAM='SIGM_ELNO',
                   NOEUD='N1',
                   NOM_CMP='SIYY',
                   VALE_CALC= 5.00000000E+05,
                   VALE_REFE=5.E5,
                   PRECISION=1.E-4,
                   MAILLE='M4',),
                _F(NUME_ORDRE=1,
                   REFERENCE='ANALYTIQUE',
                   RESULTAT=DEF,
                   NOM_CHAM='SIGM_ELNO',
                   NOEUD='N101',
                   NOM_CMP='SIYY',
                   VALE_CALC= 5.00000000E+05,
                   VALE_REFE=5.E5,
                   PRECISION=1.E-4,
                   MAILLE='M4',),
                _F(NUME_ORDRE=1,
                   REFERENCE='ANALYTIQUE',
                   RESULTAT=DEF,
                   NOM_CHAM='SIGM_ELNO',
                   NOEUD='N452',
                   NOM_CMP='SIYY',
                   VALE_CALC= 5.00000000E+05,
                   VALE_REFE=5.E5,
                   PRECISION=1.E-4,
                   MAILLE='M153',),
                _F(NUME_ORDRE=1,
                   REFERENCE='ANALYTIQUE',
                   RESULTAT=DEF,
                   NOM_CHAM='SIGM_ELNO',
                   NOEUD='N504',
                   NOM_CMP='SIYY',
                   VALE_CALC= 5.00000000E+05,
                   VALE_REFE=5.E5,
                   PRECISION=1.E-4,
                   MAILLE='M153',),
                _F(NUME_ORDRE=1,
                   REFERENCE='ANALYTIQUE',
                   RESULTAT=DEF,
                   NOM_CHAM='SIGM_ELNO',
                   NOEUD='N201',
                   NOM_CMP='SIYY',
                   VALE_CALC= 5.00000000E+05,
                   VALE_REFE=5.E5,
                   PRECISION=1.E-4,
                   MAILLE='M53',),
                _F(NUME_ORDRE=1,
                   REFERENCE='ANALYTIQUE',
                   RESULTAT=DEF,
                   NOM_CHAM='SIGM_ELNO',
                   NOEUD='N203',
                   NOM_CMP='SIYY',
                   VALE_CALC= 5.00000000E+05,
                   VALE_REFE=5.E5,
                   PRECISION=1.E-4,
                   MAILLE='M53',),
                _F(NUME_ORDRE=1,
                   REFERENCE='ANALYTIQUE',
                   RESULTAT=DEF,
                   NOM_CHAM='SIGM_ELNO',
                   NOEUD='N51',
                   NOM_CMP='SIYY',
                   VALE_CALC= 5.00000000E+05,
                   VALE_REFE=5.E5,
                   PRECISION=1.E-4,
                   MAILLE='M4',),
                _F(NUME_ORDRE=1,
                   REFERENCE='ANALYTIQUE',
                   RESULTAT=DEF,
                   NOM_CHAM='SIGM_ELNO',
                   NOEUD='N202',
                   NOM_CMP='SIYY',
                   VALE_CALC= 5.00000000E+05,
                   VALE_REFE=5.E5,
                   PRECISION=1.E-4,
                   MAILLE='M53',),
                _F(NUME_ORDRE=1,
                   REFERENCE='ANALYTIQUE',
                   RESULTAT=DEF,
                   NOM_CHAM='SIGM_ELNO',
                   NOEUD='N503',
                   NOM_CMP='SIYY',
                   VALE_CALC= 5.00000000E+05,
                   VALE_REFE=5.E5,
                   PRECISION=1.E-4,
                   MAILLE='M153',),
                ),
          )

FIN()
#
