# TITRE CYLINDRE MINCE SOUS SON POIDS PROPRE (AXIS)
#            CONFIGURATION MANAGEMENT OF EDF VERSION
# ======================================================================
# COPYRIGHT (C) 1991 - 2012  EDF R&D                  WWW.CODE-ASTER.ORG
# THIS PROGRAM IS FREE SOFTWARE; YOU CAN REDISTRIBUTE IT AND/OR MODIFY
# IT UNDER THE TERMS OF THE GNU GENERAL PUBLIC LICENSE AS PUBLISHED BY
# THE FREE SOFTWARE FOUNDATION; EITHER VERSION 2 OF THE LICENSE, OR
# (AT YOUR OPTION) ANY LATER VERSION.
#
# THIS PROGRAM IS DISTRIBUTED IN THE HOPE THAT IT WILL BE USEFUL, BUT
# WITHOUT ANY WARRANTY; WITHOUT EVEN THE IMPLIED WARRANTY OF
# MERCHANTABILITY OR FITNESS FOR A PARTICULAR PURPOSE. SEE THE GNU
# GENERAL PUBLIC LICENSE FOR MORE DETAILS.
#
# YOU SHOULD HAVE RECEIVED A COPY OF THE GNU GENERAL PUBLIC LICENSE
# ALONG WITH THIS PROGRAM; IF NOT, WRITE TO EDF R&D CODE_ASTER,
#    1 AVENUE DU GENERAL DE GAULLE, 92141 CLAMART CEDEX, FRANCE.
# ======================================================================

DEBUT(CODE=_F(NOM='SSLS09C',
              NIV_PUB_WEB='INTERNET'),
      DEBUG=_F(SDVERI='OUI'));

MAIL=LIRE_MAILLAGE(FORMAT='MED');

#
# DEFINITION DU MODELE

MODELE=AFFE_MODELE(MAILLAGE=MAIL,
                   AFFE=_F(GROUP_MA='SURF',
                           PHENOMENE='MECANIQUE',
                           MODELISATION='AXIS_INCO'));

#
# DEFINITION DU MATERIAU

ACIER=DEFI_MATERIAU(ELAS=_F(E=2.1E11,
                            NU=0.3,
                            RHO=8000.,
                            ALPHA=1.E-5));

#
# ATTRIBUTION DU MATERIAU

CHMAT=AFFE_MATERIAU(MAILLAGE=MAIL,
                    AFFE=_F(TOUT='OUI',
                            MATER=ACIER));

#
# DEFINITION DES CONDITIONS AUX LIMITES ET CHARGEMENTS

CLIM=AFFE_CHAR_MECA(MODELE=MODELE,
                    DDL_IMPO=_F(GROUP_MA='APPUI',
                                DY=0.));

#

F_Y=DEFI_FONCTION(NOM_PARA='Y',VALE=(0.,-78500.,
                        3.,-78500.,
                        6.,-78500.,
                        ));

CHARGT=AFFE_CHAR_MECA_F(MODELE=MODELE,
                        FORCE_INTERNE=_F(TOUT='OUI',
                                         FY=F_Y));

CH_PESA=AFFE_CHAR_MECA(MODELE=MODELE,
                       PESANTEUR=_F(GRAVITE=9.8125,
                                    DIRECTION=(0.,-1.,0.)));

#
# RESOLUTION
#DEF=MECA_STATIQUE(    MODELE=MODELE,
#                        CHAM_MATER=CHMAT,EXCIT=(
#                        _F(  CHARGE = CLIM),
#                              _F(  CHARGE = CHARGT))
#                    )

INSTANTS=DEFI_LIST_REEL(DEBUT=0.0,
                        INTERVALLE=_F(JUSQU_A=1.0,
                                      NOMBRE=1));

RAMPE=DEFI_FONCTION(NOM_PARA='INST',VALE=(0.0,0.0,
                          1.0,1.0,
                          ));

# CALCUL
#========

DEF=STAT_NON_LINE(MODELE=MODELE,
                  CHAM_MATER=CHMAT,
                  EXCIT=(_F(CHARGE=CH_PESA,
                            FONC_MULT=RAMPE),
                         _F(CHARGE=CLIM)),
                  COMP_ELAS=_F(RELATION='ELAS'),
                  INCREMENT=_F(LIST_INST=INSTANTS),
                  NEWTON=_F(REAC_ITER=1),
                  SOLVEUR=_F(METHODE='MUMPS',
   ));

DEF=CALC_ERREUR(reuse =DEF,
                RESULTAT=DEF,
                OPTION=('ERME_ELEM','ERME_ELNO'));

#
# TEST_RESU DEPLACEMENTS

TEST_RESU(RESU=(_F(NUME_ORDRE=1,
                   REFERENCE='ANALYTIQUE',
                   RESULTAT=DEF,
                   NOM_CHAM='DEPL',
                   NOEUD='N452',
                   NOM_CMP='DY',
                   VALE_CALC=-2.98935478E-06,
                   VALE_REFE=-2.9900000000000002E-06,
                   PRECISION=1.E-3,),
                _F(NUME_ORDRE=1,
                   REFERENCE='ANALYTIQUE',
                   RESULTAT=DEF,
                   NOM_CHAM='DEPL',
                   NOEUD='N504',
                   NOM_CMP='DY',
                   VALE_CALC=-2.99159760E-06,
                   VALE_REFE=-2.9900000000000002E-06,
                   PRECISION=1.E-3,),
                _F(NUME_ORDRE=1,
                   REFERENCE='ANALYTIQUE',
                   RESULTAT=DEF,
                   NOM_CHAM='DEPL',
                   NOEUD='N503',
                   NOM_CMP='DY',
                   VALE_CALC=-2.99048180E-06,
                   VALE_REFE=-2.9900000000000002E-06,
                   PRECISION=1.E-3,),
                ),
          )

#

TEST_RESU(RESU=_F(NUME_ORDRE=1,
                  REFERENCE='ANALYTIQUE',
                  RESULTAT=DEF,
                  NOM_CHAM='DEPL',
                  NOEUD='N51',
                  NOM_CMP='DX',
                  VALE_CALC= 4.42435413E-07,
                  VALE_REFE=4.4900000000000001E-07,
                  PRECISION=0.014999999999999999,),
          )

#---------------------------------------------------------------------
#    TEST EN CONTRAINTES

TEST_RESU(RESU=(_F(NUME_ORDRE=1,
                   REFERENCE='ANALYTIQUE',
                   RESULTAT=DEF,
                   NOM_CHAM='SIGM_ELNO',
                   NOEUD='N51',
                   NOM_CMP='SIYY',
                   VALE_CALC=-3.14004012E+05,
                   VALE_REFE=-3.14000E5,
                   PRECISION=1.E-4,
                   MAILLE='M4',),
                _F(NUME_ORDRE=1,
                   REFERENCE='ANALYTIQUE',
                   RESULTAT=DEF,
                   NOM_CHAM='SIGM_ELNO',
                   NOEUD='N1',
                   NOM_CMP='SIXX',
                   VALE_CALC=-35.421273872,
                   VALE_REFE=0.0,
                   CRITERE='ABSOLU',
                   PRECISION=36.0,
                   MAILLE='M4',),
                _F(NUME_ORDRE=1,
                   REFERENCE='ANALYTIQUE',
                   RESULTAT=DEF,
                   NOM_CHAM='SIGM_ELNO',
                   NOEUD='N51',
                   NOM_CMP='SIXX',
                   VALE_CALC=-26.080713717,
                   VALE_REFE=0.0,
                   CRITERE='ABSOLU',
                   PRECISION=30.0,
                   MAILLE='M4',),
                ),
          )

#---------------------------------------------------------------------
#    ESTIMATEUR D'ERREUR EN RESIDU

TEST_RESU(RESU=(_F(NUME_ORDRE=1,
                   POINT=1,
                   RESULTAT=DEF,
                   NOM_CHAM='ERME_ELEM',
                   NOM_CMP='NUEST',
                   VALE_CALC=1.39623148177E-08,
                   TOLE_MACHINE=1.E-3,
                   MAILLE='M4',
                   ),
                _F(NUME_ORDRE=1,
                   RESULTAT=DEF,
                   NOM_CHAM='ERME_ELNO',
                   NOEUD='N51',
                   NOM_CMP='ERREST',
                   VALE_CALC=1.2338367648699999E-06,
                   TOLE_MACHINE=1.E-3,
                   MAILLE='M4',
                   ),
                ),
          )

FIN();

#
