# person_in_charge: jean-michel.proix at edf.fr
# TITRE PLAQUE EN FLEXION AVEC DIVERS ELANCEMENTS. MODELISATION SHB8 MAILLAGE REGULIER
# ======================================================================
# COPYRIGHT (C) 1991 - 2016  EDF R&D                  WWW.CODE-ASTER.ORG
# THIS PROGRAM IS FREE SOFTWARE; YOU CAN REDISTRIBUTE IT AND/OR MODIFY
# IT UNDER THE TERMS OF THE GNU GENERAL PUBLIC LICENSE AS PUBLISHED BY
# THE FREE SOFTWARE FOUNDATION; EITHER VERSION 2 OF THE LICENSE, OR
# (AT YOUR OPTION) ANY LATER VERSION.
#
# THIS PROGRAM IS DISTRIBUTED IN THE HOPE THAT IT WILL BE USEFUL, BUT
# WITHOUT ANY WARRANTY; WITHOUT EVEN THE IMPLIED WARRANTY OF
# MERCHANTABILITY OR FITNESS FOR A PARTICULAR PURPOSE. SEE THE GNU
# GENERAL PUBLIC LICENSE FOR MORE DETAILS.
#
# YOU SHOULD HAVE RECEIVED A COPY OF THE GNU GENERAL PUBLIC LICENSE
# ALONG WITH THIS PROGRAM; IF NOT, WRITE TO EDF R&D CODE_ASTER,
#    1 AVENUE DU GENERAL DE GAULLE, 92141 CLAMART CEDEX, FRANCE.
# ======================================================================
# ELEMENT SHB8PS - A.COMBESCURE - S.BAGUET -INSA LYON 2003

DEBUT(CODE=_F(
              NIV_PUB_WEB='INTERNET',),
      DEBUG=_F(SDVERI='OUI',),);
YG = 200000000000.0;

L = 100.0;

b = 10.0;

F = 1.0;


MAT=DEFI_MATERIAU(ELAS=_F(E=YG,
                          NU=0.0,),);

# CAS 1 :
h = 10.0;

MAIL31=LIRE_MAILLAGE(FORMAT='MED',UNITE=21,);

MAIL31=MODI_MAILLAGE(reuse =MAIL31,
                     MAILLAGE=MAIL31,
                     ORIE_SHB=_F(GROUP_MA='GEOTOT',),);

MAIL31=DEFI_GROUP(reuse =MAIL31,
                  MAILLAGE=MAIL31,
                  CREA_GROUP_NO=(_F(GROUP_MA='SUENCAS',),
                                 _F(GROUP_MA='SUDEPIM',),
                                 _F(GROUP_MA='LI15',),
                                 _F(GROUP_MA='LI21',),
                                 _F(GROUP_MA='LI87',),),);

CHMAT31=AFFE_MATERIAU(MAILLAGE=MAIL31,
                      AFFE=_F(TOUT='OUI',
                              MATER=MAT,),);

MODMEC31=AFFE_MODELE(MAILLAGE=MAIL31,
                     AFFE=_F(TOUT='OUI',
                             PHENOMENE='MECANIQUE',
                             MODELISATION='SHB',),);

CHARG31=AFFE_CHAR_MECA(MODELE=MODMEC31,
                       DDL_IMPO=(_F(GROUP_MA='SUENCAS',
                                    DX=0.0,),
                                 _F(GROUP_MA='LI15',
                                    DY=0.0,),
                                 _F(GROUP_MA='LI21',
                                    DZ=0.0,),),
                       FORCE_ARETE=_F(GROUP_MA='LI87',
                                      FZ=(F / b),),);

RESU31=MECA_STATIQUE(MODELE=MODMEC31,
                     CHAM_MATER=CHMAT31,
                     EXCIT=_F(CHARGE=CHARG31,),);

RESU31=CALC_CHAMP(reuse=RESU31,
                  RESULTAT=RESU31,
                  CRITERES=('SIEQ_ELGA','SIEQ_ELNO'),
                  CONTRAINTE=('SIEF_ELNO','SIGM_ELNO'),);

ENGENDRE_TEST(CO=RESU31,TYPE_TEST='SOMM_ABS')

TEST_RESU(RESU=(_F(NUME_ORDRE=1,
                   TYPE_TEST='SOMM_ABS',
                   RESULTAT=RESU31,
                   NOM_CHAM='DEPL',
                   VALE_CALC=21.0000000385,
                   ),
                _F(NUME_ORDRE=1,
                   TYPE_TEST='SOMM_ABS',
                   RESULTAT=RESU31,
                   NOM_CHAM='SIEF_ELGA',
                   VALE_CALC=9.28720186696,
                   ),
                _F(NUME_ORDRE=1,
                   TYPE_TEST='SOMM_ABS',
                   RESULTAT=RESU31,
                   NOM_CHAM='SIEF_ELNO',
                   VALE_CALC=22.7392073916,
                   ),
                _F(NUME_ORDRE=1,
                   TYPE_TEST='SOMM_ABS',
                   RESULTAT=RESU31,
                   NOM_CHAM='SIGM_ELNO',
                   VALE_CALC=22.7392073916,
                   ),
                _F(NUME_ORDRE=1,
                   TYPE_TEST='SOMM_ABS',
                   RESULTAT=RESU31,
                   NOM_CHAM='SIEQ_ELGA',
                   VALE_CALC=249.167454905,
                   ),
                _F(NUME_ORDRE=1,
                   TYPE_TEST='SOMM_ABS',
                   RESULTAT=RESU31,
                   NOM_CHAM='SIEQ_ELNO',
                   VALE_CALC=440.787672612,
                   ),
                ),
          )

Iy = ((((b * h) * h) * h) / 12.0);

Uz = ((((((F * L) * L) * L) / 3.0) / YG) / Iy);


# point de gauss maille m1 situe a x=5
moment1 = ((L - 5.0) * F);


# coordonnees des points de Gauss
z1 = (0.45309 * h);

z2 = (0.26925 * h);

z3 = 0.0;

z4 = (-0.26925 * h);

z5 = (-0.45309 * h);

Sig1 = ((moment1 * z1) / Iy);

Sig2 = ((moment1 * z2) / Iy);

Sig3 = ((moment1 * z3) / Iy);

Sig4 = ((moment1 * z4) / Iy);

Sig5 = ((moment1 * z5) / Iy);


TEST_RESU(RESU=(_F(NUME_ORDRE=1,
                   GROUP_NO='P7',
                   REFERENCE='ANALYTIQUE',
                   RESULTAT=RESU31,
                   NOM_CHAM='DEPL',
                   NOM_CMP='DZ',
                   VALE_CALC=2.00622516536E-09,
                   VALE_REFE=1.9999999999999997E-09,
                   PRECISION=1.E-2,),
                _F(NUME_ORDRE=1,
                   GROUP_NO='P8',
                   REFERENCE='ANALYTIQUE',
                   RESULTAT=RESU31,
                   NOM_CHAM='DEPL',
                   NOM_CMP='DZ',
                   VALE_CALC=2.00622516536E-09,
                   VALE_REFE=1.9999999999999997E-09,
                   PRECISION=1.E-2,),
                ),
          )

#CONTRAINTES REPERE LOCAL

TEST_RESU(RESU=(_F(NUME_ORDRE=1,
                   REFERENCE='ANALYTIQUE',
                   POINT=1,
                   RESULTAT=RESU31,
                   NOM_CHAM='SIEF_ELGA',
                   NOM_CMP='SIYY',
                   VALE_CALC=0.516522512185,
                   VALE_REFE=Sig1,
                   PRECISION=1.E-3,
                   MAILLE='M1',),
                _F(NUME_ORDRE=1,
                   REFERENCE='ANALYTIQUE',
                   POINT=2,
                   RESULTAT=RESU31,
                   NOM_CHAM='SIEF_ELGA',
                   NOM_CMP='SIYY',
                   VALE_CALC=0.30692750676,
                   VALE_REFE=Sig2,
                   PRECISION=1.E-3,
                   MAILLE='M1',),
                _F(NUME_ORDRE=1,
                   REFERENCE='ANALYTIQUE',
                   POINT=3,
                   RESULTAT=RESU31,
                   NOM_CHAM='SIEF_ELGA',
                   NOM_CMP='SIYY',
                   VALE_CALC=-4.0015405611E-16,
                   VALE_REFE=Sig3,
                   CRITERE='ABSOLU',
                   PRECISION=1.0E-09,
                   MAILLE='M1',),
                _F(NUME_ORDRE=1,
                   REFERENCE='ANALYTIQUE',
                   POINT=4,
                   RESULTAT=RESU31,
                   NOM_CHAM='SIEF_ELGA',
                   NOM_CMP='SIYY',
                   VALE_CALC=-0.30692750676,
                   VALE_REFE=Sig4,
                   PRECISION=1.E-3,
                   MAILLE='M1',),
                _F(NUME_ORDRE=1,
                   REFERENCE='ANALYTIQUE',
                   POINT=5,
                   RESULTAT=RESU31,
                   NOM_CHAM='SIEF_ELGA',
                   NOM_CMP='SIYY',
                   VALE_CALC=-0.516522512185,
                   VALE_REFE=Sig5,
                   PRECISION=1.E-3,
                   MAILLE='M1',),
                ),
          )

TEST_RESU(RESU=(_F(NUME_ORDRE=1,
                   REFERENCE='ANALYTIQUE',
                   RESULTAT=RESU31,
                   NOM_CHAM='SIGM_ELNO',
                   NOEUD='N43',
                   NOM_CMP='SIYY',
                   VALE_CALC=0.516522512185,
                   VALE_REFE=Sig1,
                   PRECISION=1.E-3,
                   MAILLE='M1',),
                _F(NUME_ORDRE=1,
                   REFERENCE='ANALYTIQUE',
                   RESULTAT=RESU31,
                   NOM_CHAM='SIGM_ELNO',
                   NOEUD='N39',
                   NOM_CMP='SIYY',
                   VALE_CALC=-0.516522512185,
                   VALE_REFE=Sig5,
                   PRECISION=1.E-3,
                   MAILLE='M1',),
                ),
          )

#

TEST_RESU(RESU=(_F(NUME_ORDRE=1,
                   REFERENCE='ANALYTIQUE',
                   POINT=1,
                   RESULTAT=RESU31,
                   NOM_CHAM='SIEQ_ELGA',
                   NOM_CMP='VMIS_SG',
                   VALE_CALC=0.513944177982,
                   VALE_REFE=Sig1,
                   PRECISION=0.02,
                   MAILLE='M1',),
                _F(NUME_ORDRE=1,
                   REFERENCE='ANALYTIQUE',
                   POINT=2,
                   RESULTAT=RESU31,
                   NOM_CHAM='SIEQ_ELGA',
                   NOM_CMP='VMIS_SG',
                   VALE_CALC=0.304504395073,
                   VALE_REFE=Sig2,
                   PRECISION=0.02,
                   MAILLE='M1',),
                _F(NUME_ORDRE=1,
                   REFERENCE='ANALYTIQUE',
                   POINT=3,
                   RESULTAT=RESU31,
                   NOM_CHAM='SIEQ_ELGA',
                   NOM_CMP='VMIS_SG',
                   VALE_CALC=0.0187189905725,
                   VALE_REFE=Sig3,
                   CRITERE='ABSOLU',
                   PRECISION=0.02,
                   MAILLE='M1',),
                _F(NUME_ORDRE=1,
                   REFERENCE='ANALYTIQUE',
                   POINT=4,
                   RESULTAT=RESU31,
                   NOM_CHAM='SIEQ_ELGA',
                   NOM_CMP='VMIS_SG',
                   VALE_CALC=-0.310674429284,
                   VALE_REFE=Sig4,
                   PRECISION=0.02,
                   MAILLE='M1',),
                _F(NUME_ORDRE=1,
                   REFERENCE='ANALYTIQUE',
                   POINT=5,
                   RESULTAT=RESU31,
                   NOM_CHAM='SIEQ_ELGA',
                   NOM_CMP='VMIS_SG',
                   VALE_CALC=-0.520121415562,
                   VALE_REFE=Sig5,
                   PRECISION=0.02,
                   MAILLE='M1',),
                ),
          )

#

TEST_RESU(RESU=(_F(NUME_ORDRE=1,
                   REFERENCE='ANALYTIQUE',
                   RESULTAT=RESU31,
                   NOM_CHAM='SIEQ_ELNO',
                   NOEUD='N43',
                   NOM_CMP='VMIS_SG',
                   VALE_CALC=0.513944177982,
                   VALE_REFE=Sig1,
                   PRECISION=1.E-2,
                   MAILLE='M1',),
                _F(NUME_ORDRE=1,
                   REFERENCE='ANALYTIQUE',
                   RESULTAT=RESU31,
                   NOM_CHAM='SIEQ_ELNO',
                   NOEUD='N39',
                   NOM_CMP='VMIS_SG',
                   VALE_CALC=-0.520121415562,
                   VALE_REFE=Sig5,
                   PRECISION=1.E-2,
                   MAILLE='M1',),
                ),
          )

# CAS 2 :
h = 1.0;

MAIL32=LIRE_MAILLAGE(FORMAT='MED',UNITE=22,);

MAIL32=MODI_MAILLAGE(reuse =MAIL32,
                     MAILLAGE=MAIL32,
                     ORIE_SHB=_F(GROUP_MA='GEOTOT',),);

MAIL32=DEFI_GROUP(reuse =MAIL32,
                  MAILLAGE=MAIL32,
                  CREA_GROUP_NO=(_F(GROUP_MA='SUENCAS',),
                                 _F(GROUP_MA='SUDEPIM',),
                                 _F(GROUP_MA='LI15',),
                                 _F(GROUP_MA='LI21',),
                                 _F(GROUP_MA='LI87',),),);

CHMAT32=AFFE_MATERIAU(MAILLAGE=MAIL32,
                      AFFE=_F(TOUT='OUI',
                              MATER=MAT,),);

MODMEC32=AFFE_MODELE(MAILLAGE=MAIL32,
                     AFFE=_F(TOUT='OUI',
                             PHENOMENE='MECANIQUE',
                             MODELISATION='SHB',),);

CHARG32=AFFE_CHAR_MECA(MODELE=MODMEC32,
                       DDL_IMPO=(_F(GROUP_MA='SUENCAS',
                                    DX=0.0,),
                                 _F(GROUP_MA='LI15',
                                    DY=0.0,),
                                 _F(GROUP_MA='LI21',
                                    DZ=0.0,),),
                       FORCE_ARETE=_F(GROUP_MA='LI87',
                                      FZ=(F / b),),);

RESU32=MECA_STATIQUE(MODELE=MODMEC32,
                     CHAM_MATER=CHMAT32,
                     EXCIT=_F(CHARGE=CHARG32,),);
Iy = ((((b * h) * h) * h) / 12.0);

Uz = ((((((F * L) * L) * L) / 3.0) / YG) / Iy);


TEST_RESU(RESU=(_F(NUME_ORDRE=1,
                   GROUP_NO='P7',
                   REFERENCE='ANALYTIQUE',
                   RESULTAT=RESU32,
                   NOM_CHAM='DEPL',
                   NOM_CMP='DZ',
                   VALE_CALC=1.99510312205E-06,
                   VALE_REFE=Uz,
                   PRECISION=1.E-2,),
                _F(NUME_ORDRE=1,
                   GROUP_NO='P8',
                   REFERENCE='ANALYTIQUE',
                   RESULTAT=RESU32,
                   NOM_CHAM='DEPL',
                   NOM_CMP='DZ',
                   VALE_CALC=1.99510316086E-06,
                   VALE_REFE=Uz,
                   PRECISION=1.E-2,),
                ),
          )

# CAS 3 :
h = 0.1;

MAIL33=LIRE_MAILLAGE(FORMAT='MED',UNITE=23,);

MAIL33=MODI_MAILLAGE(reuse =MAIL33,
                     MAILLAGE=MAIL33,
                     ORIE_SHB=_F(GROUP_MA='GEOTOT',),);

MAIL33=DEFI_GROUP(reuse =MAIL33,
                  MAILLAGE=MAIL33,
                  CREA_GROUP_NO=(_F(GROUP_MA='SUENCAS',),
                                 _F(GROUP_MA='SUDEPIM',),
                                 _F(GROUP_MA='LI15',),
                                 _F(GROUP_MA='LI21',),
                                 _F(GROUP_MA='LI87',),),);

CHMAT33=AFFE_MATERIAU(MAILLAGE=MAIL33,
                      AFFE=_F(TOUT='OUI',
                              MATER=MAT,),);

MODMEC33=AFFE_MODELE(MAILLAGE=MAIL33,
                     AFFE=_F(TOUT='OUI',
                             PHENOMENE='MECANIQUE',
                             MODELISATION='SHB',),);

CHARG33=AFFE_CHAR_MECA(MODELE=MODMEC33,
                       DDL_IMPO=(_F(GROUP_MA='SUENCAS',
                                    DX=0.0,),
                                 _F(GROUP_MA='LI15',
                                    DY=0.0,),
                                 _F(GROUP_MA='LI21',
                                    DZ=0.0,),),
                       FORCE_ARETE=_F(GROUP_MA='LI87',
                                      FZ=(F / b),),);

LIST=DEFI_LIST_REEL(DEBUT=0.0,
                    INTERVALLE=_F(JUSQU_A=1.,
                                  NOMBRE=1,),);

RESU33=STAT_NON_LINE(MODELE=MODMEC33,
                     CHAM_MATER=CHMAT33,
                     EXCIT=_F(CHARGE=CHARG33,),
                     COMPORTEMENT=(_F(RELATION='ELAS',),),
                     INCREMENT=_F(LIST_INST=LIST,),
                     SOLVEUR=_F(RENUM='MD',
                                METHODE='MULT_FRONT',
                                NPREC=11,),
                                );

Iy = ((((b * h) * h) * h) / 12.0);

Uz = ((((((F * L) * L) * L) / 3.0) / YG) / Iy);


TEST_RESU(RESU=(_F(NUME_ORDRE=1,
                   GROUP_NO='P7',
                   REFERENCE='ANALYTIQUE',
                   RESULTAT=RESU33,
                   NOM_CHAM='DEPL',
                   NOM_CMP='DZ',
                   VALE_CALC=0.00199500122746,
                   VALE_REFE=Uz,
                   PRECISION=1.E-2,),
                _F(NUME_ORDRE=1,
                   GROUP_NO='P8',
                   REFERENCE='ANALYTIQUE',
                   RESULTAT=RESU33,
                   NOM_CHAM='DEPL',
                   NOM_CMP='DZ',
                   VALE_CALC=0.0019950008334,
                   VALE_REFE=Uz,
                   PRECISION=1.E-2,),
                ),
          )

# CAS 4 :
h = 0.05;

MAIL34=LIRE_MAILLAGE(FORMAT='MED',UNITE=24,);

MAIL34=MODI_MAILLAGE(reuse =MAIL34,
                     MAILLAGE=MAIL34,
                     ORIE_SHB=_F(GROUP_MA='GEOTOT',),);

MAIL34=DEFI_GROUP(reuse =MAIL34,
                  MAILLAGE=MAIL34,
                  CREA_GROUP_NO=(_F(GROUP_MA='SUENCAS',),
                                 _F(GROUP_MA='SUDEPIM',),
                                 _F(GROUP_MA='LI15',),
                                 _F(GROUP_MA='LI21',),
                                 _F(GROUP_MA='LI87',),),);

CHMAT34=AFFE_MATERIAU(MAILLAGE=MAIL34,
                      AFFE=_F(TOUT='OUI',
                              MATER=MAT,),);

MODMEC34=AFFE_MODELE(MAILLAGE=MAIL34,
                     AFFE=_F(TOUT='OUI',
                             PHENOMENE='MECANIQUE',
                             MODELISATION='SHB',),);

CHARG34=AFFE_CHAR_MECA(MODELE=MODMEC34,
                       DDL_IMPO=(_F(GROUP_MA='SUENCAS',
                                    LIAISON='ENCASTRE',),),
                       FORCE_ARETE=_F(GROUP_MA='LI87',
                                      FZ=(F / b),),);



RESU34=STAT_NON_LINE(MODELE=MODMEC34,
                     CHAM_MATER=CHMAT34,
                     EXCIT=_F(CHARGE=CHARG34,),
                     COMPORTEMENT=(_F(RELATION='ELAS',),),
                     INCREMENT=_F(LIST_INST=LIST,),
                     SOLVEUR=_F(METHODE='MULT_FRONT',
                                NPREC=18,),);

Iy = ((((b * h) * h) * h) / 12.0);

Uz = ((((((F * L) * L) * L) / 3.0) / YG) / Iy);


TEST_RESU(RESU=(_F(NUME_ORDRE=1,
                   GROUP_NO='P7',
                   REFERENCE='ANALYTIQUE',
                   RESULTAT=RESU34,
                   NOM_CHAM='DEPL',
                   NOM_CMP='DZ',
                   VALE_CALC=0.0159974952055,
                   VALE_REFE=Uz,),
                _F(NUME_ORDRE=1,
                   GROUP_NO='P8',
                   REFERENCE='ANALYTIQUE',
                   RESULTAT=RESU34,
                   NOM_CHAM='DEPL',
                   NOM_CMP='DZ',
                   VALE_CALC=0.0159974952177,
                   VALE_REFE=Uz,),
                ),
          )

# CAS 5 :
h = 0.02;

MAIL35=LIRE_MAILLAGE(FORMAT='MED',UNITE=25,);

MAIL35=MODI_MAILLAGE(reuse =MAIL35,
                     MAILLAGE=MAIL35,
                     ORIE_SHB=_F(GROUP_MA='GEOTOT',),);

MAIL35=DEFI_GROUP(reuse =MAIL35,
                  MAILLAGE=MAIL35,
                  CREA_GROUP_NO=(_F(GROUP_MA='SUENCAS',),
                                 _F(GROUP_MA='SUDEPIM',),
                                 _F(GROUP_MA='LI15',),
                                 _F(GROUP_MA='LI21',),
                                 _F(GROUP_MA='LI87',),),);

CHMAT35=AFFE_MATERIAU(MAILLAGE=MAIL35,
                      AFFE=_F(TOUT='OUI',
                              MATER=MAT,),);

MODMEC35=AFFE_MODELE(MAILLAGE=MAIL35,
                     AFFE=_F(TOUT='OUI',
                             PHENOMENE='MECANIQUE',
                             MODELISATION='SHB',),);

CHARG35=AFFE_CHAR_MECA(MODELE=MODMEC35,
                       DDL_IMPO=(_F(GROUP_MA='SUENCAS',
                                    LIAISON='ENCASTRE',),),
                       FORCE_ARETE=_F(GROUP_MA='LI87',
                                      FZ=(F / b),),);

# DANS CETTE CONFIGURATION LE PROBLEME DEVIENT TRES MAL CONDITIONNE (1.0E+15)
# L/h=5000 ==> POUR TESTER LE VERROUILLAGE EN CISAILLEMENT
# ON UTILISE MUMPS ET ON DESACTIVE LA DETECTION DE SINGULARITE
RESU35=STAT_NON_LINE(MODELE=MODMEC35,
                     CHAM_MATER=CHMAT35,
                     EXCIT=_F(CHARGE=CHARG35,),
                     COMPORTEMENT=(_F(RELATION='ELAS',),),
                     INCREMENT=_F(LIST_INST=LIST,),
                     SOLVEUR=_F(METHODE='MUMPS',
                                NPREC=-1,
                                ),
                     NEWTON=_F(MATRICE='ELASTIQUE'),
                     CONVERGENCE=_F(),
                     );

Iy = b * h**3 / 12.

Uz = F * L**3 / (3.0 * YG * Iy)

# La solution obtenue presente une certaine variabilite entre machines qui decoule
# du mauvais conditionnement du probleme quand l'epaisseur est trop petite.
# => l'usage du mot cle TOLE_MACHINE.
TEST_RESU(RESU=(_F(NUME_ORDRE=1,
                   GROUP_NO='P7',
                   REFERENCE='ANALYTIQUE',
                   RESULTAT=RESU35,
                   NOM_CHAM='DEPL',
                   NOM_CMP='DZ',
                   VALE_CALC=0.249975815454,
                   TOLE_MACHINE=1.e-4, # Voir commentaire plus haut
                   VALE_REFE=Uz,),
                _F(NUME_ORDRE=1,
                   GROUP_NO='P8',
                   REFERENCE='ANALYTIQUE',
                   RESULTAT=RESU35,
                   NOM_CHAM='DEPL',
                   NOM_CMP='DZ',
                   VALE_CALC=0.249975815549,
                   TOLE_MACHINE=1.e-4, # Voir commentaire plus haut
                   VALE_REFE=Uz,),
                ),
          )

FIN();
