# person_in_charge: jean-michel.proix at edf.fr
# TITRE SPHERE SOUS PRESSION EXTERNE MODELISATION 3D
# ======================================================================
# COPYRIGHT (C) 1991 - 2012  EDF R&D                  WWW.CODE-ASTER.ORG
# THIS PROGRAM IS FREE SOFTWARE; YOU CAN REDISTRIBUTE IT AND/OR MODIFY
# IT UNDER THE TERMS OF THE GNU GENERAL PUBLIC LICENSE AS PUBLISHED BY
# THE FREE SOFTWARE FOUNDATION; EITHER VERSION 2 OF THE LICENSE, OR
# (AT YOUR OPTION) ANY LATER VERSION.
#
# THIS PROGRAM IS DISTRIBUTED IN THE HOPE THAT IT WILL BE USEFUL, BUT
# WITHOUT ANY WARRANTY; WITHOUT EVEN THE IMPLIED WARRANTY OF
# MERCHANTABILITY OR FITNESS FOR A PARTICULAR PURPOSE. SEE THE GNU
# GENERAL PUBLIC LICENSE FOR MORE DETAILS.
#
# YOU SHOULD HAVE RECEIVED A COPY OF THE GNU GENERAL PUBLIC LICENSE
# ALONG WITH THIS PROGRAM; IF NOT, WRITE TO EDF R&D CODE_ASTER,
#    1 AVENUE DU GENERAL DE GAULLE, 92141 CLAMART CEDEX, FRANCE.
# ======================================================================
# ELEMENT SHB8PS - A.COMBESCURE - S.BAGUET -INSA LYON 2003
#
#


DEBUT(CODE=_F(NIV_PUB_WEB='INTERNET'),DEBUG=_F(SDVERI='OUI'))

MAIL=LIRE_MAILLAGE(FORMAT='MED',);

MAIL=MODI_MAILLAGE(reuse=MAIL,MAILLAGE=MAIL,
ORIE_SHB=_F(GROUP_MA='VOLTOT'),)

MAIL=DEFI_GROUP(reuse =MAIL,
                MAILLAGE=MAIL,
                CREA_GROUP_NO=(_F(GROUP_MA='SUD1',),
                               _F(GROUP_MA='SUG1',),
                               _F(GROUP_MA='SUB1',),),);

MODMECA=AFFE_MODELE(MAILLAGE=MAIL,
                    AFFE=_F(TOUT='OUI',
                            PHENOMENE='MECANIQUE',
                            MODELISATION='SHB',),);

MAIL=MODI_MAILLAGE(MAILLAGE=MAIL,reuse=MAIL,
                   ORIE_PEAU_3D=_F(GROUP_MA='SEXT',),
                   );

MAT=DEFI_MATERIAU(ELAS=_F(E=6.825E7,
                          NU=0.3,),);

CHM=AFFE_MATERIAU(MAILLAGE=MAIL,
                  AFFE=_F(TOUT='OUI',
                          MATER=MAT,),);


CHARGT=AFFE_CHAR_MECA(MODELE=MODMECA,
                      DDL_IMPO=(_F(GROUP_MA=('SUD1'),
                                   DY=0.0,),
                                _F(GROUP_MA='SUG1',
                                   DX=0.0,),
                                _F(GROUP_MA='SUB1',
                                   DZ=0.0,),),
                      PRES_REP=_F(GROUP_MA='SEXT',
                                   PRES=1.,));

RESUT=MECA_STATIQUE(MODELE=MODMECA,
                    CHAM_MATER=CHM,
                    EXCIT=_F(CHARGE=CHARGT,),);

RESUT=CALC_CHAMP(reuse =RESUT,
                 CONTRAINTE=('SIGM_ELNO'),
                RESULTAT=RESUT,);


TEST_RESU(RESU=(_F(NUME_ORDRE=1,
                   GROUP_NO='PAE',
                   REFERENCE='ANALYTIQUE',
                   RESULTAT=RESUT,
                   NOM_CHAM='DEPL',
                   NOM_CMP='DX',
                   VALE_CALC=-1.28618782E-05,
                   VALE_REFE=-1.28279E-05,
                   PRECISION=0.013,),
                _F(NUME_ORDRE=1,
                   GROUP_NO='PBE',
                   REFERENCE='ANALYTIQUE',
                   RESULTAT=RESUT,
                   NOM_CHAM='DEPL',
                   NOM_CMP='DY',
                   VALE_CALC=-1.28618785E-05,
                   VALE_REFE=-1.28279E-05,
                   PRECISION=0.013,),
                _F(NUME_ORDRE=1,
                   GROUP_NO='PCE',
                   REFERENCE='ANALYTIQUE',
                   RESULTAT=RESUT,
                   NOM_CHAM='DEPL',
                   NOM_CMP='DZ',
                   VALE_CALC=-1.28901944E-05,
                   VALE_REFE=-1.28279E-05,
                   PRECISION=0.017,),
                ),
          )

FIN()
