# MODIF  DATE 10/10/2012   AUTEUR COURTOIS M.COURTOIS 
# TITRE PLAQUE CIRCULAIRE POSEE SOUS PRESSION  147 SHB8
# ssls101c.para = tps_job 60 mem_job 256Mo ncpus 1 liste_test R
#            CONFIGURATION MANAGEMENT OF EDF VERSION
# ======================================================================
# COPYRIGHT (C) 1991 - 2012  EDF R&D                  WWW.CODE-ASTER.ORG
# THIS PROGRAM IS FREE SOFTWARE; YOU CAN REDISTRIBUTE IT AND/OR MODIFY
# IT UNDER THE TERMS OF THE GNU GENERAL PUBLIC LICENSE AS PUBLISHED BY
# THE FREE SOFTWARE FOUNDATION; EITHER VERSION 2 OF THE LICENSE, OR
# (AT YOUR OPTION) ANY LATER VERSION.
#
# THIS PROGRAM IS DISTRIBUTED IN THE HOPE THAT IT WILL BE USEFUL, BUT
# WITHOUT ANY WARRANTY; WITHOUT EVEN THE IMPLIED WARRANTY OF
# MERCHANTABILITY OR FITNESS FOR A PARTICULAR PURPOSE. SEE THE GNU
# GENERAL PUBLIC LICENSE FOR MORE DETAILS.
#
# YOU SHOULD HAVE RECEIVED A COPY OF THE GNU GENERAL PUBLIC LICENSE
# ALONG WITH THIS PROGRAM; IF NOT, WRITE TO EDF R&D CODE_ASTER,
#    1 AVENUE DU GENERAL DE GAULLE, 92141 CLAMART CEDEX, FRANCE.
# ======================================================================

DEBUT(CODE=_F(NOM='SSLS101C', NIV_PUB_WEB='INTERNET'), DEBUG=_F(SDVERI='OUI'))
#----------------------------------------------------------------------
#                        ! y
#                        !
# POINTS: O            C **
#         A              *   *
#         B              *     * B
#         C            E *   F   *
#         D              *        *
#         E              *         *
#         F              O ___D____A  ----> x
#----------------------------------------------------------------------
T = 0.05;

R = 1.0;

P = 1.0;


MATER=DEFI_MATERIAU(ELAS=_F(E=1.0,
                            NU=0.3,
                            RHO=1.0,),);

MAIL1=LIRE_MAILLAGE(FORMAT='MED',);

MODKT=AFFE_MODELE(MAILLAGE=MAIL1,
                  AFFE=_F(GROUP_MA='QUAD',
                          PHENOMENE='MECANIQUE',
                          MODELISATION='DKT',),);

MAIL1=MODI_MAILLAGE(reuse =MAIL1,
                    MAILLAGE=MAIL1,
                    ORIE_NORM_COQUE=_F(GROUP_MA='QUAD',
                                       VECT_NORM=(0.0,0.0,1.0,),
                                       NOEUD='O',),
                    );

MAIL2=CREA_MAILLAGE(MAILLAGE=MAIL1,
                    COQU_VOLU=_F(NOM='VOLUH',
                                 GROUP_MA='QUAD',
                                 EPAIS=T,
                                 PREF_MAILLE='MH',
                                 PREF_NOEUD='NH',
                                 PLAN='INF',),
                    INFO=2,);

MAILL=CREA_MAILLAGE(MAILLAGE=MAIL2,
                    COQU_VOLU=_F(NOM='VOLUB',
                                 GROUP_MA='QUAD',
                                 EPAIS=T,
                                 PREF_MAILLE='MB',
                                 PREF_NOEUD='NB',
                                 PLAN='SUP',),
                    INFO=2,);

MAILL=DEFI_GROUP(reuse =MAILL,
                 MAILLAGE=MAILL,
                 CREA_GROUP_NO=(_F(OPTION='PLAN',
                                   NOM='PLANY0',
                                   NOEUD_CENTRE='O',
                                   VECT_NORMALE=(0.0,1.0,0.0,),
                                   PRECISION=0.001,),
                                _F(OPTION='PLAN',
                                   NOM='PLANX0',
                                   NOEUD_CENTRE='O',
                                   VECT_NORMALE=(1.0,0.0,0.0,),
                                   PRECISION=0.001,),),);


MAILL=MODI_MAILLAGE(reuse =MAILL,
                    MAILLAGE=MAILL,
#                    ORIE_SHB8=_F(GROUP_MA=('VOLUH','VOLUB',),),);
                    ORIE_SHB=_F(GROUP_MA=('VOLUH','VOLUB',),),);

CHMAT=AFFE_MATERIAU(MAILLAGE=MAILL,
                    AFFE=_F(TOUT='OUI',
                            MATER=MATER,),);

MODEL=AFFE_MODELE(MAILLAGE=MAILL,
                  VERIF='MAILLE',
                  AFFE=_F(TOUT='OUI',
                          PHENOMENE='MECANIQUE',
                          MODELISATION='SHB',),);

CINE=AFFE_CHAR_MECA(MODELE=MODEL,
                    DDL_IMPO=(_F(GROUP_NO='GRNO_ABC',
                                 DX=0.0,
                                 DY=0.0,
                                 DZ=0.0,),
                            #  _F(GROUP_NO='GRNO_OA',
                              _F(GROUP_NO='PLANY0',
                                 DY=0.0,),
                            #  _F(GROUP_NO='GRNO_OC',
                              _F(GROUP_NO='PLANX0',
                                 DX=0.0,),
                            #  _F(NOEUD='O',
                            #     DX=0.0,
                            #     DY=0.0,),
                                 ),);

PRES=AFFE_CHAR_MECA(MODELE=MODEL,
                    FORCE_FACE=_F(GROUP_MA='QUAD',
                                  FZ=-1.0,),);

CHF3=AFFE_CHAR_MECA(MODELE=MODEL,
                    FORCE_INTERNE=_F(TOUT='OUI',
                                     FZ=-10.0,),);

EPSI=AFFE_CHAR_MECA(MODELE=MODEL,
                    PRE_EPSI=_F(TOUT='OUI',
                                     EPZZ=-1.E-5,),);

FZC=DEFI_CONSTANTE(VALE=-10.0)

CHFC=AFFE_CHAR_MECA_F(MODELE=MODEL,
                    FORCE_INTERNE=_F(TOUT='OUI',
                                     FZ=FZC,),);


CHPE=AFFE_CHAR_MECA(MODELE=MODEL,
                      PESANTEUR=_F(GRAVITE= 10.,
                                   DIRECTION=(0., 0., -10., ), ),)

MATELEM=CALC_MATR_ELEM(OPTION='RIGI_MECA',
                       MODELE=MODEL,
                       CHAM_MATER=CHMAT,
                       CHARGE=CINE,);

VEPR=CALC_VECT_ELEM(OPTION='CHAR_MECA',
                    CHARGE=(CINE,PRES,),
                    CHAM_MATER=CHMAT,);

VEF3=CALC_VECT_ELEM(OPTION='CHAR_MECA',
                    CHARGE=(CINE,CHF3,),
                    CHAM_MATER=CHMAT,);

VEFC=CALC_VECT_ELEM(OPTION='CHAR_MECA',
                    CHARGE=(CINE,CHFC,),
                    CHAM_MATER=CHMAT,);

VEPE=CALC_VECT_ELEM(OPTION='CHAR_MECA',
                    CHARGE=(CINE,CHPE,),
                    CHAM_MATER=CHMAT,);

VEEP=CALC_VECT_ELEM(OPTION='CHAR_MECA',
                    CHARGE=(CINE,EPSI,),
                    CHAM_MATER=CHMAT,);

NU=NUME_DDL(MATR_RIGI=MATELEM,);

MATASS=ASSE_MATRICE(MATR_ELEM=MATELEM,
                    NUME_DDL=NU,);

VEPRAS=ASSE_VECTEUR(VECT_ELEM=VEPR,
                    NUME_DDL=NU,);

VEF3AS=ASSE_VECTEUR(VECT_ELEM=VEF3,
                    NUME_DDL=NU,);

VEFCAS=ASSE_VECTEUR(VECT_ELEM=VEFC,
                    NUME_DDL=NU,);

VEPEAS=ASSE_VECTEUR(VECT_ELEM=VEPE,
                    NUME_DDL=NU,);

VEEPAS=ASSE_VECTEUR(VECT_ELEM=VEEP,
                    NUME_DDL=NU,);

MATASS=FACTORISER(reuse =MATASS,
                 MATR_ASSE=MATASS,);

DEPR=RESOUDRE(MATR=MATASS,
               CHAM_NO=VEPRAS,);

DEF3=RESOUDRE(MATR=MATASS,
               CHAM_NO=VEF3AS,);

DEFC=RESOUDRE(MATR=MATASS,
               CHAM_NO=VEFCAS,);

DEPE=RESOUDRE(MATR=MATASS,
               CHAM_NO=VEPEAS,);

DEEP=RESOUDRE(MATR=MATASS,
               CHAM_NO=VEEPAS,);
#IMPR_RESU(RESU=_F(MAILLAGE=MAIL1,CHAM_GD=DEEP,),);
#--------------------------------------------------------------------

TEST_RESU(CHAM_NO=(_F(NOEUD='O',
                      CRITERE='RELATIF',
                      REFERENCE='ANALYTIQUE',
                      NOM_CMP='DZ',
                      PRECISION=5.0000000000000001E-3,
                      CHAM_GD=DEPR,
                      VALE_CALC=-698.556927560,
                      VALE_REFE=-695.62559999999996,),
                   _F(NOEUD='A',
                      CRITERE='ABSOLU',
                      REFERENCE='ANALYTIQUE',
                      NOM_CMP='DZ',
                      PRECISION=1.E-10,
                      CHAM_GD=DEPR,
                      VALE_CALC=-1.8977874827E-15,
                      VALE_REFE=0.0,
                      TOLE_MACHINE=1.E-10,),
                   _F(NOEUD='B',
                      CRITERE='ABSOLU',
                      REFERENCE='ANALYTIQUE',
                      NOM_CMP='DZ',
                      PRECISION=1.E-10,
                      CHAM_GD=DEPR,
                      VALE_CALC=-2.6645352591E-15,
                      VALE_REFE=0.0,
                      TOLE_MACHINE=1.E-10,),
                   _F(NOEUD='C',
                      CRITERE='ABSOLU',
                      REFERENCE='ANALYTIQUE',
                      NOM_CMP='DZ',
                      PRECISION=1.E-10,
                      CHAM_GD=DEPR,
                      VALE_CALC= 4.4200754168E-15,
                      VALE_REFE=0.0,
                      TOLE_MACHINE=1.E-10,),
                   _F(NOEUD='D',
                      CRITERE='RELATIF',
                      REFERENCE='ANALYTIQUE',
                      NOM_CMP='DZ',
                      PRECISION=5.0000000000000001E-3,
                      CHAM_GD=DEPR,
                      VALE_CALC=-491.359503058,
                      VALE_REFE=-489.72699999999998,),
                   _F(NOEUD='E',
                      CRITERE='RELATIF',
                      REFERENCE='ANALYTIQUE',
                      NOM_CMP='DZ',
                      PRECISION=5.0000000000000001E-3,
                      CHAM_GD=DEPR,
                      VALE_CALC=-491.358830043,
                      VALE_REFE=-489.72699999999998,),
                   _F(NOEUD='F',
                      CRITERE='RELATIF',
                      REFERENCE='ANALYTIQUE',
                      NOM_CMP='DZ',
                      PRECISION=5.0000000000000001E-3,
                      CHAM_GD=DEPR,
                      VALE_CALC=-436.603667354,
                      VALE_REFE=-435.8974,),
                   _F(NOEUD='O',
                      CRITERE='RELATIF',
                      REFERENCE='ANALYTIQUE',
                      NOM_CMP='DZ',
                      PRECISION=6.0000000000000001E-3,
                      CHAM_GD=DEF3,
                      VALE_CALC=-699.290265984,
                      VALE_REFE=-695.62559999999996,),
                   _F(NOEUD='A',
                      CRITERE='ABSOLU',
                      REFERENCE='ANALYTIQUE',
                      NOM_CMP='DZ',
                      PRECISION=1.E-10,
                      CHAM_GD=DEF3,
                      VALE_CALC=-1.3877787808E-16,
                      VALE_REFE=0.0,
                      TOLE_MACHINE=1.E-10,),
                   _F(NOEUD='B',
                      CRITERE='ABSOLU',
                      REFERENCE='ANALYTIQUE',
                      NOM_CMP='DZ',
                      PRECISION=1.E-10,
                      CHAM_GD=DEF3,
                      VALE_CALC= 2.7061686225E-16,
                      VALE_REFE=0.0,
                      TOLE_MACHINE=1.E-10,),
                   _F(NOEUD='C',
                      CRITERE='ABSOLU',
                      REFERENCE='ANALYTIQUE',
                      NOM_CMP='DZ',
                      PRECISION=1.E-10,
                      CHAM_GD=DEF3,
                      VALE_CALC=-4.5102810375E-17,
                      VALE_REFE=0.0,
                      TOLE_MACHINE=1.E-10,),
                   _F(NOEUD='D',
                      CRITERE='RELATIF',
                      REFERENCE='ANALYTIQUE',
                      NOM_CMP='DZ',
                      PRECISION=5.0000000000000001E-3,
                      CHAM_GD=DEF3,
                      VALE_CALC=-491.901683063,
                      VALE_REFE=-489.72699999999998,),
                   _F(NOEUD='E',
                      CRITERE='RELATIF',
                      REFERENCE='ANALYTIQUE',
                      NOM_CMP='DZ',
                      PRECISION=5.0000000000000001E-3,
                      CHAM_GD=DEF3,
                      VALE_CALC=-491.900772647,
                      VALE_REFE=-489.72699999999998,),
                   _F(NOEUD='F',
                      CRITERE='RELATIF',
                      REFERENCE='ANALYTIQUE',
                      NOM_CMP='DZ',
                      PRECISION=5.0000000000000001E-3,
                      CHAM_GD=DEF3,
                      VALE_CALC=-437.106507101,
                      VALE_REFE=-435.8974,),
                   _F(NOEUD='O',
                      CRITERE='RELATIF',
                      REFERENCE='ANALYTIQUE',
                      NOM_CMP='DZ',
                      PRECISION=6.0000000000000001E-3,
                      CHAM_GD=DEFC,
                      VALE_CALC=-699.290265984,
                      VALE_REFE=-695.62559999999996,),
                   _F(NOEUD='A',
                      CRITERE='ABSOLU',
                      REFERENCE='ANALYTIQUE',
                      NOM_CMP='DZ',
                      PRECISION=1.E-10,
                      CHAM_GD=DEFC,
                      VALE_CALC=-1.3877787808E-16,
                      VALE_REFE=0.0,
                      TOLE_MACHINE=1.E-10,),
                   _F(NOEUD='B',
                      CRITERE='ABSOLU',
                      REFERENCE='ANALYTIQUE',
                      NOM_CMP='DZ',
                      PRECISION=1.E-10,
                      CHAM_GD=DEFC,
                      VALE_CALC= 2.7061686225E-16,
                      VALE_REFE=0.0,
                      TOLE_MACHINE=1.E-10,),
                   _F(NOEUD='C',
                      CRITERE='ABSOLU',
                      REFERENCE='ANALYTIQUE',
                      NOM_CMP='DZ',
                      PRECISION=1.E-10,
                      CHAM_GD=DEFC,
                      VALE_CALC=-4.5102810375E-17,
                      VALE_REFE=0.0,
                      TOLE_MACHINE=1.E-10,),
                   _F(NOEUD='D',
                      CRITERE='RELATIF',
                      REFERENCE='ANALYTIQUE',
                      NOM_CMP='DZ',
                      PRECISION=5.0000000000000001E-3,
                      CHAM_GD=DEFC,
                      VALE_CALC=-491.901683063,
                      VALE_REFE=-489.72699999999998,),
                   _F(NOEUD='E',
                      CRITERE='RELATIF',
                      REFERENCE='ANALYTIQUE',
                      NOM_CMP='DZ',
                      PRECISION=5.0000000000000001E-3,
                      CHAM_GD=DEFC,
                      VALE_CALC=-491.900772647,
                      VALE_REFE=-489.72699999999998,),
                   _F(NOEUD='F',
                      CRITERE='RELATIF',
                      REFERENCE='ANALYTIQUE',
                      NOM_CMP='DZ',
                      PRECISION=5.0000000000000001E-3,
                      CHAM_GD=DEFC,
                      VALE_CALC=-437.106507101,
                      VALE_REFE=-435.8974,),
                   _F(NOEUD='O',
                      CRITERE='RELATIF',
                      REFERENCE='ANALYTIQUE',
                      NOM_CMP='DZ',
                      PRECISION=6.0000000000000001E-3,
                      CHAM_GD=DEPE,
                      VALE_CALC=-699.290265984,
                      VALE_REFE=-695.62559999999996,),
                   _F(NOEUD='A',
                      CRITERE='ABSOLU',
                      REFERENCE='ANALYTIQUE',
                      NOM_CMP='DZ',
                      PRECISION=1.E-10,
                      CHAM_GD=DEPE,
                      VALE_CALC=-1.3877787808E-16,
                      VALE_REFE=0.0,
                      TOLE_MACHINE=1.E-10,),
                   _F(NOEUD='B',
                      CRITERE='ABSOLU',
                      REFERENCE='ANALYTIQUE',
                      NOM_CMP='DZ',
                      PRECISION=1.E-10,
                      CHAM_GD=DEPE,
                      VALE_CALC= 2.7061686225E-16,
                      VALE_REFE=0.0,
                      TOLE_MACHINE=1.E-10,),
                   _F(NOEUD='C',
                      CRITERE='ABSOLU',
                      REFERENCE='ANALYTIQUE',
                      NOM_CMP='DZ',
                      PRECISION=1.E-10,
                      CHAM_GD=DEPE,
                      VALE_CALC=-4.5102810375E-17,
                      VALE_REFE=0.0,
                      TOLE_MACHINE=1.E-10,),
                   _F(NOEUD='D',
                      CRITERE='RELATIF',
                      REFERENCE='ANALYTIQUE',
                      NOM_CMP='DZ',
                      PRECISION=5.0000000000000001E-3,
                      CHAM_GD=DEPE,
                      VALE_CALC=-491.901683063,
                      VALE_REFE=-489.72699999999998,),
                   _F(NOEUD='E',
                      CRITERE='RELATIF',
                      REFERENCE='ANALYTIQUE',
                      NOM_CMP='DZ',
                      PRECISION=5.0000000000000001E-3,
                      CHAM_GD=DEPE,
                      VALE_CALC=-491.900772647,
                      VALE_REFE=-489.72699999999998,),
                   _F(NOEUD='F',
                      CRITERE='RELATIF',
                      REFERENCE='ANALYTIQUE',
                      NOM_CMP='DZ',
                      PRECISION=5.0000000000000001E-3,
                      CHAM_GD=DEPE,
                      VALE_CALC=-437.106507101,
                      VALE_REFE=-435.8974,),
                   _F(NOEUD='N2',
                      CRITERE='RELATIF',
                      NOM_CMP='DY',
                      CHAM_GD=DEEP,
                      VALE_CALC=-3.4414900000000002E-08,
                      TOLE_MACHINE=1.E-3,),
                   _F(NOEUD='N3',
                      CRITERE='RELATIF',
                      NOM_CMP='DY',
                      CHAM_GD=DEEP,
                      VALE_CALC=-6.8823200000000004E-08,
                      TOLE_MACHINE=1.E-3,),
                   ),
          )

CHAMELG=CALC_CHAM_ELEM(    MODELE=MODEL,
                             OPTION='COOR_ELGA' )

Z1=-0.906179845938664*T/2+T/2
Z2=0.538469310105683*T/2+T/2
TEST_RESU(CHAM_ELEM=_F(REFERENCE='ANALYTIQUE',
                       POINT=1,
                       NOM_CMP='Z',
                       PRECISION=1.0000000000000001E-09,
                       MAILLE='MH1',
                       CHAM_GD=CHAMELG,
                       VALE_CALC= 2.345503852E-03,
                       VALE_REFE=2.3455038515334016E-3,
                       TOLE_MACHINE=1.0000000000000001E-09,),
          )

TEST_RESU(CHAM_ELEM=_F(REFERENCE='ANALYTIQUE',
                       POINT=4,
                       NOM_CMP='Z',
                       PRECISION=1.0000000000000001E-09,
                       MAILLE='MH1',
                       CHAM_GD=CHAMELG,
                       VALE_CALC=0.038461732752642,
                       VALE_REFE=0.038461732752642079,
                       TOLE_MACHINE=1.0000000000000001E-09,),
          )

#--------------------------------------------------------------------

RESU=CREA_RESU(OPERATION='AFFE',
                TYPE_RESU='EVOL_ELAS',
                NOM_CHAM='DEPL',
                AFFE=_F(CHAM_GD=DEPR,
                        INST=0.,
                        MODELE=MODEL,
                        CHAM_MATER=CHMAT,
                        ),
                );

RESU=CALC_CHAMP(reuse=RESU,RESULTAT=RESU,CONTRAINTE=('SIEF_ELGA'))


#--------------------------------------------------------------------
# expression des contraintes a partir du moment SIXX=MXX*12*z/(h*h*h)
# COORDONNEE DU POINT DE GAUSS EXTREME
ZH=0.906179845938664*T/2+T/2

MXX_O=-0.20625
SIG_O=MXX_O*12*ZH/0.001

TEST_RESU(RESU=_F(INST=0.0,
                  REFERENCE='ANALYTIQUE',
                  POINT=5,
                  RESULTAT=RESU,
                  NOM_CHAM='SIEF_ELGA',
                  NOM_CMP='SIXX',
                  VALE_CALC=-117.375024554,
                  VALE_REFE=-117.94487796745483,
                  PRECISION=5.0000000000000001E-3,
                  MAILLE='MH1',),
          )

FIN()
