# MODIF  DATE 31/08/2004   AUTEUR JMBHH01 J.M.PROIX 
#-----------------------------------------------------------------------
# TITRE VALIDATION DU MODELE GRILLE EN ELASTICITE LINEAIRE
#            CONFIGURATION MANAGEMENT OF EDF VERSION
# ======================================================================
# COPYRIGHT (C) 1991 - 2004  EDF R&D                  WWW.CODE-ASTER.ORG
# THIS PROGRAM IS FREE SOFTWARE; YOU CAN REDISTRIBUTE IT AND/OR MODIFY  
# IT UNDER THE TERMS OF THE GNU GENERAL PUBLIC LICENSE AS PUBLISHED BY  
# THE FREE SOFTWARE FOUNDATION; EITHER VERSION 2 OF THE LICENSE, OR     
# (AT YOUR OPTION) ANY LATER VERSION.                                                    
#                                                                       
# THIS PROGRAM IS DISTRIBUTED IN THE HOPE THAT IT WILL BE USEFUL, BUT   
# WITHOUT ANY WARRANTY; WITHOUT EVEN THE IMPLIED WARRANTY OF            
# MERCHANTABILITY OR FITNESS FOR A PARTICULAR PURPOSE. SEE THE GNU      
# GENERAL PUBLIC LICENSE FOR MORE DETAILS.                              
#                                                                       
# YOU SHOULD HAVE RECEIVED A COPY OF THE GNU GENERAL PUBLIC LICENSE     
# ALONG WITH THIS PROGRAM; IF NOT, WRITE TO EDF R&D CODE_ASTER,         
#    1 AVENUE DU GENERAL DE GAULLE, 92141 CLAMART CEDEX, FRANCE.        
# ======================================================================
# PLAQUE D BETON AVEC DEUX NAPPES D'ARMATURE
#-----------------------------------------------------------------------
DEBUT(    CODE=_F(  NOM = 'SSLS109C',NIV_PUB_WEB='INTERNET') )


MAILL1=LIRE_MAILLAGE(   )



MAILL2=CREA_MAILLAGE( 
               MAILLAGE=MAILL1,
               CREA_GROUP_MA=_F( 
                   NOM = 'GEOB1',  
                   GROUP_MA = 'GEOB',  
                   PREF_MAILLE = 'B',  
                              )
                           )


MAILTOT=CREA_MAILLAGE( 
               MAILLAGE=MAILL2,
               CREA_GROUP_MA=_F( 
                   NOM = 'GEOB2',  
                   GROUP_MA = 'GEOB',  
                   PREF_MAILLE = 'C',  
                              )
                           )




#
# -----------------------------------------------------
# DEFINITION DES MATERIAUX
# -----------------------------------------------------
#


ACIER=DEFI_MATERIAU(  ELAS=_F(  E = 1.E11,       NU = 0., ) ,
                          )

BETON=DEFI_MATERIAU(  ELAS=_F(  E = 1.E9,       NU = 0., ) ,
                          )

#
# -------------------------------------------------
# AFFECTATION DES MATERIAUX 
# -------------------------------------------------
#
MATAF=AFFE_MATERIAU(    MAILLAGE=MAILTOT,AFFE=(
                          _F(  GROUP_MA = ('GEOB'),    
                                 MATER = BETON,  
                               ),
                          _F(  GROUP_MA = ('GEOB1','GEOB2'),    
                                 MATER = ACIER,  
                               ),
                               ) 
                      )

#
# -------------------------------------------------
# AFFECTATION DES MODELES 
# -------------------------------------------------
#
MODGRIL=AFFE_MODELE(    MAILLAGE=MAILTOT,     VERIF='MAILLE',
               AFFE=( 
                        _F(  GROUP_MA = ('GEOB1','GEOB2'),     
                               MODELISATION = 'GRILLE',  
                               PHENOMENE = 'MECANIQUE',   
                             ),
                         _F(  GROUP_MA = ('GEOB','BORD1'),     
                               MODELISATION = 'DKT',  
                               PHENOMENE = 'MECANIQUE',   
                             ),
                             )
                      )
                      
MODDKT=AFFE_MODELE(    MAILLAGE=MAILTOT,     VERIF='MAILLE',AFFE=( 
                        _F(  GROUP_MA = ('GEOB','GEOB1','GEOB2'),     
                               MODELISATION = 'DKT',  
                               PHENOMENE = 'MECANIQUE',
                               ),   
                         _F(  GROUP_MA = ('BORD1'),     
                               MODELISATION = 'DKT',  
                               PHENOMENE = 'MECANIQUE',   
                             ),
                             )
                      )

EP=0.001
EPB=0.2

# -------------------------------------------------
# AFFECTATION DES CARACTERISTIQUES 
# -------------------------------------------------
#
CARAGRIL=AFFE_CARA_ELEM(    MODELE=MODGRIL,
                COQUE=(
                       _F( GROUP_MA = ('GEOB', 'BORD1',),  
                                EPAIS = EPB,    
                                ANGL_REP = (0.0, 0.0,),    
                             ),
                             ),
               GRILLE=(
                       _F( GROUP_MA = 'GEOB1',
                                SECTION = EP,    
                                ANGL_REP = (0.0, 0.0,),     
                                EXCENTREMENT = -.09,
                                ),
                       _F( GROUP_MA = 'GEOB2',
                                SECTION = EP,    
                                ANGL_REP = (0.0, 0.0,),    
                                EXCENTREMENT = .09,
                             ), 
                        ))

CARADKT=AFFE_CARA_ELEM(    MODELE=MODDKT,
                COQUE=(
                       _F( GROUP_MA = ('GEOB', 'BORD1',),  
                                EPAIS = EPB,    
                                ANGL_REP = (0.0, 0.0,),     
                                ),
                       _F( GROUP_MA = 'GEOB1',   
                                EPAIS = EP,    
                                ANGL_REP = (0.0, 0.0,),    
                                EXCENTREMENT = -.09,
                                INER_ROTA='OUI'
                             ),
                       _F( GROUP_MA = 'GEOB2',
                                EPAIS = EP,    
                                ANGL_REP = (0.0, 0.0,),    
                                EXCENTREMENT = .09,
                                INER_ROTA='OUI'
                             ), 
                        ))

#
# -------------------------------------------------
# AFFECTATION DU CHARGEMENT 
# -------------------------------------------------

CHARGRIL=AFFE_CHAR_MECA(    MODELE=MODGRIL,DDL_IMPO=(
              _F( NOEUD = ('NO1','NO4'),   
                  DX = 0.,    DY = 0.,    DZ = 0.,
                  DRX = 0.,   DRY = 0.,   DRZ = 0., 
                       ),
                       # jmp
               _F( NOEUD = ('NO3','NO5','NO2'),  DRZ = 0., DRX=0., DY=0.,
                       ),
                       ),
              FORCE_ARETE=_F(GROUP_MA='BORD1',FZ=1)
                         )

#
CHARDKT=AFFE_CHAR_MECA(    MODELE=MODDKT,DDL_IMPO=(
              _F( NOEUD = ('NO1','NO4'),   
                  DX = 0.,    DY = 0.,    DZ = 0.,
                  DRX = 0.,   DRY = 0.,   DRZ = 0., 
                       ),
                       # jmp
               _F( NOEUD = ('NO3','NO5','NO2'),  DRZ = 0., DRX=0., DY=0.,
                       ),
                       ),
              FORCE_ARETE=_F(GROUP_MA='BORD1',FZ=1)
                         )

#
# -------------------------------------------------
# CALCUL MECANIQUE STATIQUE LINEAIRE  GRILLES
# -------------------------------------------------
#

RESGRIL1=MECA_STATIQUE(    MODELE=MODGRIL,       CHAM_MATER=MATAF,
                               CARA_ELEM=CARAGRIL,
                               EXCIT=_F(  CHARGE = CHARGRIL,    )       )

RESGRIL1=CALC_ELEM(reuse=RESGRIL1,     RESULTAT=RESGRIL1,        
                             OPTION='EFGE_ELNO_DEPL' )

RESGRIL1=CALC_ELEM(reuse=RESGRIL1,     RESULTAT=RESGRIL1,       
                             OPTION='SIGM_ELNO_DEPL' )


RESGRIL1=CALC_NO(  reuse=RESGRIL1,   RESULTAT=RESGRIL1,
                               TOUT='OUI',
                               OPTION='FORC_NODA',)


RESGRIL1=CALC_ELEM(reuse=RESGRIL1,     RESULTAT=RESGRIL1,        
                             OPTION='EPSI_ELNO_DEPL' )

RESGRIL1=CALC_ELEM(reuse=RESGRIL1,     RESULTAT=RESGRIL1,        
                             OPTION='DEGE_ELNO_DEPL' )

RESGRIL1=CALC_ELEM(reuse=RESGRIL1,     RESULTAT=RESGRIL1,        
                             OPTION='SIEF_ELNO_ELGA' )

#

# --------------------------------------------------------
# CALCUL MECANIQUE STATIQUE LINEAIRE STAT_NON_LINE GRILLES
# --------------------------------------------------------
#

LINST=DEFI_LIST_REEL(   DEBUT=0.,INTERVALLE=(
                             _F( JUSQU_A = 1.00,   NOMBRE = 1,   ),))
                         
RESGRIL2=STAT_NON_LINE(    MODELE=MODGRIL,       CHAM_MATER=MATAF,
                               CARA_ELEM=CARAGRIL,
                               EXCIT=_F(  CHARGE = CHARGRIL   ) ,
                          NEWTON=_F(REAC_ITER=1,
                       #   PREDICTION='ELASTIQUE'
                          ),
                               INCREMENT=_F(LIST_INST = LINST),
                               COMP_INCR=_F(RELATION = 'ELAS' ,
                               ALGO_1D='DEBORST'),)

RESGRIL2=CALC_NO(  reuse=RESGRIL2,   RESULTAT=RESGRIL2,
                               TOUT='OUI',
                               OPTION='FORC_NODA', )

RESGRIL2=CALC_ELEM(reuse=RESGRIL2,     RESULTAT=RESGRIL2,        
                             OPTION='SIEF_ELNO_ELGA' )

RESGRIL2=CALC_ELEM(reuse=RESGRIL2,     RESULTAT=RESGRIL2,        
                             OPTION='SIGM_ELNO_COQU' )


RESGRIL2=CALC_ELEM(reuse=RESGRIL2,     RESULTAT=RESGRIL2,        
                             OPTION='EPSI_ELNO_DEPL' )

RESGRIL2=CALC_ELEM(reuse=RESGRIL2,     RESULTAT=RESGRIL2,        
                             OPTION='DEGE_ELNO_DEPL' )

#
# -------------------------------------------------
# CALCUL MECANIQUE STATIQUE LINEAIRE DKT
# -------------------------------------------------
#

RESUDKT=MECA_STATIQUE(    MODELE=MODDKT,       CHAM_MATER=MATAF,
                               CARA_ELEM=CARADKT,
                               EXCIT=_F(  CHARGE = CHARDKT,    )       )

RESUDKT=CALC_ELEM(reuse=RESUDKT,     RESULTAT=RESUDKT,        
                             OPTION='EFGE_ELNO_DEPL' )

RESUDKT=CALC_ELEM(reuse=RESUDKT,     RESULTAT=RESUDKT,       
                             OPTION='SIGM_ELNO_DEPL' )


#RESUDKT=CALC_NO(  reuse=RESUDKT,   RESULTAT=RESUDKT,
#                               TOUT='OUI',
#                               OPTION='FORC_NODA',)


RESUDKT=CALC_ELEM(reuse=RESUDKT,     RESULTAT=RESUDKT,        
                             OPTION='DEGE_ELNO_DEPL' )

#RESUDKT=CALC_ELEM(reuse=RESUDKT,     RESULTAT=RESUDKT,        
#                             OPTION='SIEF_ELNO_ELGA' )

#


IMPR_RESU(RESU=_F(RESULTAT=RESGRIL1))
#
IMPR_RESU(RESU=_F(RESULTAT=RESGRIL2))
#
IMPR_RESU(RESU=_F(RESULTAT=RESUDKT))


TEST_RESU(RESU=(

# -- TEST SUR LES DEPLACEMENTS ET LES ROTATIONS
             
                _F( 
                RESULTAT = RESGRIL1,   
                NUME_ORDRE = 1,
                NOM_CHAM = 'DEPL',  
                NOEUD = 'NO2',      
                NOM_CMP = 'DZ',   
                REFERENCE='NON_REGRESSION',VALE= 1.56354E-07,       
                ),
                _F( 
                RESULTAT = RESGRIL1,   
                NUME_ORDRE = 1,
                NOM_CHAM = 'DEPL',  
                NOEUD = 'NO3',      
                NOM_CMP = 'DZ',   
                REFERENCE='NON_REGRESSION',VALE= 1.56354E-07,       
                ),
                _F( 
                RESULTAT = RESGRIL1,   
                NUME_ORDRE = 1,
                NOM_CHAM = 'DEPL',  
                NOEUD = 'NO2',      
                NOM_CMP = 'DRY',   
                REFERENCE='NON_REGRESSION',VALE= -2.18657E-07,       
                ),
                _F( 
                RESULTAT = RESGRIL1,   
                NUME_ORDRE = 1,
                NOM_CHAM = 'DEPL',  
                NOEUD = 'NO3',      
                NOM_CMP = 'DRY',   
                REFERENCE='NON_REGRESSION',VALE= -2.18657E-07,       
                ),


# -- TEST SUR LES FORCES NODALES

                _F( 
                RESULTAT = RESGRIL1,   
                NUME_ORDRE = 1,
                NOM_CHAM = 'FORC_NODA',  
                 NOEUD = 'NO1',      
                NOM_CMP = 'DZ',   
                REFERENCE='ANALYTIQUE',VALE= -0.5,       
                ),
                _F( 
                RESULTAT = RESGRIL1,   
                NUME_ORDRE = 1,
                NOM_CHAM = 'FORC_NODA',  
                  NOEUD = 'NO2',      
                NOM_CMP = 'DZ',   
                REFERENCE='ANALYTIQUE',VALE=0.5,       
                ),
                _F( 
                RESULTAT = RESGRIL1,   
                NUME_ORDRE = 1,
                NOM_CHAM = 'FORC_NODA',  
                NOEUD = 'NO3',      
                NOM_CMP = 'DZ',   
                REFERENCE='ANALYTIQUE',VALE=0.5,       
                ),
                _F( 
                RESULTAT = RESGRIL1,   
                NUME_ORDRE = 1,
                NOM_CHAM = 'FORC_NODA',  
                NOEUD = 'NO4',      
                NOM_CMP = 'DZ',   
                REFERENCE='ANALYTIQUE',VALE=-0.5,       
                ),
                _F( 
                RESULTAT = RESGRIL1,   
                NUME_ORDRE = 1,
                NOM_CHAM = 'FORC_NODA',  
                NOEUD = 'NO1',      
                NOM_CMP = 'DRY',   
                REFERENCE='ANALYTIQUE',VALE=0.5,       
                ),
                _F( 
                RESULTAT = RESGRIL1,   
                NUME_ORDRE = 1,
                NOM_CHAM = 'FORC_NODA',  
                NOEUD = 'NO4',      
                NOM_CMP = 'DRY',   
                REFERENCE='ANALYTIQUE',VALE=0.5,       
                ),
                
# -- TEST SUR LES EFFORTS 
#               MAILLE DKT  
                _F( 
                RESULTAT = RESGRIL1,   
                NUME_ORDRE = 1,
                NOM_CHAM = 'SIEF_ELNO_ELGA',MAILLE='MA4',
                NOEUD = 'NO1',      
                NOM_CMP = 'MXX',   
                REFERENCE='NON_REGRESSION',VALE= -0.297,       
                ),
                _F( 
                RESULTAT = RESGRIL1,   
                NUME_ORDRE = 1,
                NOM_CHAM = 'SIEF_ELNO_ELGA',MAILLE='MA4',
                NOEUD = 'NO4',      
                NOM_CMP = 'MXX',   
                REFERENCE='NON_REGRESSION',VALE=-0.297,       
                ),
                
                _F( 
                RESULTAT = RESGRIL1,   
                NUME_ORDRE = 1,
                NOM_CHAM = 'SIEF_ELNO_ELGA',MAILLE='MA1',
                NOEUD = 'NO1',      
                NOM_CMP = 'MXX',   
                REFERENCE='NON_REGRESSION',VALE= -3.33876E-01,       
                ),
                _F( 
                RESULTAT = RESGRIL1,   
                NUME_ORDRE = 1,
                NOM_CHAM = 'SIEF_ELNO_ELGA',MAILLE='MA3',
                NOEUD = 'NO4',      
                NOM_CMP = 'MXX',   
                REFERENCE='NON_REGRESSION',VALE=-3.33876E-01,       
                ),
                
                # GRILLES
                _F( 
                RESULTAT = RESGRIL1,   
                NUME_ORDRE = 1,
                NOM_CHAM = 'SIEF_ELNO_ELGA',MAILLE='BMA4',
                NOEUD = 'NO1',      
                NOM_CMP = 'NXX',   
                REFERENCE='NON_REGRESSION',VALE=4.01305E+00,       
                ),
                _F( 
                RESULTAT = RESGRIL1,   
                NUME_ORDRE = 1,
                NOM_CHAM = 'SIEF_ELNO_ELGA',MAILLE='BMA4',
                NOEUD = 'NO4',      
                NOM_CMP = 'NXX',   
                REFERENCE='NON_REGRESSION',VALE=4.01305E+00,       
                ),
                _F( 
                RESULTAT = RESGRIL1,   
                NUME_ORDRE = 1,
                NOM_CHAM = 'SIEF_ELNO_ELGA',MAILLE='CMA4',
                NOEUD = 'NO1',      
                NOM_CMP = 'NXX',   
                REFERENCE='NON_REGRESSION',VALE=-4.01305E+00,       
                ),
                _F( 
                RESULTAT = RESGRIL1,   
                NUME_ORDRE = 1,
                NOM_CHAM = 'SIEF_ELNO_ELGA',MAILLE='CMA4',
                NOEUD = 'NO4',     
                NOM_CMP = 'NXX',   
                REFERENCE='NON_REGRESSION',VALE=-4.01305E+00,       
                ),

                _F( 
                RESULTAT = RESGRIL1,   
                NUME_ORDRE = 1,
                NOM_CHAM = 'SIEF_ELNO_ELGA',MAILLE='BMA1',
                NOEUD = 'NO1',      
                NOM_CMP = 'NXX',   
                REFERENCE='NON_REGRESSION',VALE=4.50733E+00,       
                ),
                _F( 
                RESULTAT = RESGRIL1,   
                NUME_ORDRE = 1,
                NOM_CHAM = 'SIEF_ELNO_ELGA',MAILLE='BMA3',
                NOEUD = 'NO4',      
                NOM_CMP = 'NXX',   
                REFERENCE='NON_REGRESSION',VALE=4.50733E+00,       
                ),
                _F( 
                RESULTAT = RESGRIL1,   
                NUME_ORDRE = 1,
                NOM_CHAM = 'SIEF_ELNO_ELGA',MAILLE='CMA1',
                NOEUD = 'NO1',      
                NOM_CMP = 'NXX',   
                REFERENCE='NON_REGRESSION',VALE=-4.50733E+00,       
                ),
                _F( 
                RESULTAT = RESGRIL1,   
                NUME_ORDRE = 1,
                NOM_CHAM = 'SIEF_ELNO_ELGA',MAILLE='CMA3',
                NOEUD = 'NO4',      
                NOM_CMP = 'NXX',   
                REFERENCE='NON_REGRESSION',VALE=-4.50733E+00,       
                ),

                )
              )







# TEST STAT_NON_LINE

TEST_RESU(RESU=(

# -- TEST SUR LES DEPLACEMENTS ET LES ROTATIONS
             
                _F( 
                RESULTAT = RESGRIL2,   
                NUME_ORDRE = 1,
                NOM_CHAM = 'DEPL',  
                NOEUD = 'NO2',      
                NOM_CMP = 'DZ',   
                REFERENCE='NON_REGRESSION',VALE= 1.56354E-07,       
                ),
                _F( 
                RESULTAT = RESGRIL2,   
                NUME_ORDRE = 1,
                NOM_CHAM = 'DEPL',  
                NOEUD = 'NO3',      
                NOM_CMP = 'DZ',   
                REFERENCE='NON_REGRESSION',VALE= 1.56354E-07,       
                ),
                _F( 
                RESULTAT = RESGRIL2,   
                NUME_ORDRE = 1,
                NOM_CHAM = 'DEPL',  
                NOEUD = 'NO2',      
                NOM_CMP = 'DRY',   
                REFERENCE='NON_REGRESSION',VALE= -2.18657E-07,       
                ),
                _F( 
                RESULTAT = RESGRIL2,   
                NUME_ORDRE = 1,
                NOM_CHAM = 'DEPL',  
                NOEUD = 'NO3',      
                NOM_CMP = 'DRY',   
                REFERENCE='NON_REGRESSION',VALE= -2.18657E-07,       
                ),


# -- TEST SUR LES FORCES NODALES

                _F( 
                RESULTAT = RESGRIL2,   
                NUME_ORDRE = 1,
                NOM_CHAM = 'FORC_NODA',  
                 NOEUD = 'NO1',      
                NOM_CMP = 'DZ',   
                REFERENCE='ANALYTIQUE',VALE= -0.5,       
                ),
                _F( 
                RESULTAT = RESGRIL2,   
                NUME_ORDRE = 1,
                NOM_CHAM = 'FORC_NODA',  
                  NOEUD = 'NO2',      
                NOM_CMP = 'DZ',   
                REFERENCE='ANALYTIQUE',VALE=0.5,       
                ),
                _F( 
                RESULTAT = RESGRIL2,   
                NUME_ORDRE = 1,
                NOM_CHAM = 'FORC_NODA',  
                NOEUD = 'NO3',      
                NOM_CMP = 'DZ',   
                REFERENCE='ANALYTIQUE',VALE=0.5,       
                ),
                _F( 
                RESULTAT = RESGRIL2,   
                NUME_ORDRE = 1,
                NOM_CHAM = 'FORC_NODA',  
                NOEUD = 'NO4',      
                NOM_CMP = 'DZ',   
                REFERENCE='ANALYTIQUE',VALE=-0.5,       
                ),
                _F( 
                RESULTAT = RESGRIL2,   
                NUME_ORDRE = 1,
                NOM_CHAM = 'FORC_NODA',  
                NOEUD = 'NO1',      
                NOM_CMP = 'DRY',   
                REFERENCE='ANALYTIQUE',VALE=0.5,       
                ),
                _F( 
                RESULTAT = RESGRIL2,   
                NUME_ORDRE = 1,
                NOM_CHAM = 'FORC_NODA',  
                NOEUD = 'NO4',      
                NOM_CMP = 'DRY',   
                REFERENCE='ANALYTIQUE',VALE=0.5,       
                ),
                
# -- TEST SUR LES EFFORTS 
#               MAILLE DKT  
                _F( 
                RESULTAT = RESGRIL2,   
                NUME_ORDRE = 1,
                NOM_CHAM = 'SIEF_ELNO_ELGA',MAILLE='MA4',
                NOEUD = 'NO1',      
                NOM_CMP = 'MXX',   
                REFERENCE='NON_REGRESSION',VALE= -0.297,       
                ),
                _F( 
                RESULTAT = RESGRIL2,   
                NUME_ORDRE = 1,
                NOM_CHAM = 'SIEF_ELNO_ELGA',MAILLE='MA4',
                NOEUD = 'NO4',      
                NOM_CMP = 'MXX',   
                REFERENCE='NON_REGRESSION',VALE=-0.297,       
                ),
                
                _F( 
                RESULTAT = RESGRIL2,   
                NUME_ORDRE = 1,
                NOM_CHAM = 'SIEF_ELNO_ELGA',MAILLE='MA1',
                NOEUD = 'NO1',      
                NOM_CMP = 'MXX',   
                REFERENCE='NON_REGRESSION',VALE= -3.33876E-01,       
                ),
                _F( 
                RESULTAT = RESGRIL2,   
                NUME_ORDRE = 1,
                NOM_CHAM = 'SIEF_ELNO_ELGA',MAILLE='MA3',
                NOEUD = 'NO4',      
                NOM_CMP = 'MXX',   
                REFERENCE='NON_REGRESSION',VALE=-3.33876E-01,       
                ),
                
                # GRILLES
                _F( 
                RESULTAT = RESGRIL2,   
                NUME_ORDRE = 1,
                NOM_CHAM = 'SIEF_ELNO_ELGA',MAILLE='BMA4',
                NOEUD = 'NO1',      
                NOM_CMP = 'NXX',   
                REFERENCE='NON_REGRESSION',VALE=4.01305E+00,       
                ),
                _F( 
                RESULTAT = RESGRIL2,   
                NUME_ORDRE = 1,
                NOM_CHAM = 'SIEF_ELNO_ELGA',MAILLE='BMA4',
                NOEUD = 'NO4',      
                NOM_CMP = 'NXX',   
                REFERENCE='NON_REGRESSION',VALE=4.01305E+00,       
                ),
                _F( 
                RESULTAT = RESGRIL2,   
                NUME_ORDRE = 1,
                NOM_CHAM = 'SIEF_ELNO_ELGA',MAILLE='CMA4',
                NOEUD = 'NO1',      
                NOM_CMP = 'NXX',   
                REFERENCE='NON_REGRESSION',VALE=-4.01305E+00,       
                ),
                _F( 
                RESULTAT = RESGRIL2,   
                NUME_ORDRE = 1,
                NOM_CHAM = 'SIEF_ELNO_ELGA',MAILLE='CMA4',
                NOEUD = 'NO4',     
                NOM_CMP = 'NXX',   
                REFERENCE='NON_REGRESSION',VALE=-4.01305E+00,       
                ),

                _F( 
                RESULTAT = RESGRIL2,   
                NUME_ORDRE = 1,
                NOM_CHAM = 'SIEF_ELNO_ELGA',MAILLE='BMA1',
                NOEUD = 'NO1',      
                NOM_CMP = 'NXX',   
                REFERENCE='NON_REGRESSION',VALE=4.50733E+00,       
                ),
                _F( 
                RESULTAT = RESGRIL2,   
                NUME_ORDRE = 1,
                NOM_CHAM = 'SIEF_ELNO_ELGA',MAILLE='BMA3',
                NOEUD = 'NO4',      
                NOM_CMP = 'NXX',   
                REFERENCE='NON_REGRESSION',VALE=4.50733E+00,       
                ),
                _F( 
                RESULTAT = RESGRIL2,   
                NUME_ORDRE = 1,
                NOM_CHAM = 'SIEF_ELNO_ELGA',MAILLE='CMA1',
                NOEUD = 'NO1',      
                NOM_CMP = 'NXX',   
                REFERENCE='NON_REGRESSION',VALE=-4.50733E+00,       
                ),
                _F( 
                RESULTAT = RESGRIL2,   
                NUME_ORDRE = 1,
                NOM_CHAM = 'SIEF_ELNO_ELGA',MAILLE='CMA3',
                NOEUD = 'NO4',      
                NOM_CMP = 'NXX',   
                REFERENCE='NON_REGRESSION',VALE=-4.50733E+00,       
                ),

                )
              )




# TEST DKT + EXCENTREMENT


TEST_RESU(RESU=(

# -- TEST SUR LES DEPLACEMENTS ET LES ROTATIONS
# --  LA DIFFERENCE SUR LES DEPLACEMENTS VIENT DE LA ROTATION
# --  PROPRE, PRISE EN COMPTE POUR DKT MAIS PAS POUR GRILLE
             
                _F( 
                RESULTAT = RESUDKT,   
                NUME_ORDRE = 1,
                NOM_CHAM = 'DEPL',  
                NOEUD = 'NO2',      
                NOM_CMP = 'DZ',   PRECISION=0.03,
                REFERENCE='AUTRE_ASTER',VALE= 1.56354E-07,       
                ),
                _F( 
                RESULTAT = RESUDKT,   
                NUME_ORDRE = 1,
                NOM_CHAM = 'DEPL',  
                NOEUD = 'NO3',      
                NOM_CMP = 'DZ',   PRECISION=0.03,
                REFERENCE='AUTRE_ASTER',VALE= 1.56354E-07,       
                ),
                _F( 
                RESULTAT = RESUDKT,   
                NUME_ORDRE = 1,
                NOM_CHAM = 'DEPL',  
                NOEUD = 'NO2',      
                NOM_CMP = 'DRY',   
                REFERENCE='AUTRE_ASTER',VALE= -2.18657E-07,       
                ),
                _F( 
                RESULTAT = RESUDKT,   
                NUME_ORDRE = 1,
                NOM_CHAM = 'DEPL',  
                NOEUD = 'NO3',      
                NOM_CMP = 'DRY',   
                REFERENCE='AUTRE_ASTER',VALE= -2.18657E-07,       
                ),

# -- TEST SUR LES EFFORTS 
#               MAILLE DKT  
                _F( 
                RESULTAT = RESUDKT,   
                NUME_ORDRE = 1,
                NOM_CHAM = 'EFGE_ELNO_DEPL',MAILLE='MA4',
                NOEUD = 'NO1',      
                NOM_CMP = 'MXX',   
                REFERENCE='NON_REGRESSION',VALE= -0.297, PRECISION=0.08,     
                ),
                _F( 
                RESULTAT = RESUDKT,   
                NUME_ORDRE = 1,
                NOM_CHAM = 'EFGE_ELNO_DEPL',MAILLE='MA4',
                NOEUD = 'NO4',      
                NOM_CMP = 'MXX',   
                REFERENCE='NON_REGRESSION',VALE=-0.297,  PRECISION=0.08,           
                ),
                
                _F( 
                RESULTAT = RESUDKT,   
                NUME_ORDRE = 1,
                NOM_CHAM = 'EFGE_ELNO_DEPL',MAILLE='MA1',
                NOEUD = 'NO1',      
                NOM_CMP = 'MXX',   
                REFERENCE='NON_REGRESSION',VALE= -3.33876E-01, PRECISION=0.05, 
                ),
                _F( 
                RESULTAT = RESUDKT,   
                NUME_ORDRE = 1,
                NOM_CHAM = 'EFGE_ELNO_DEPL',MAILLE='MA3',
                NOEUD = 'NO4',      
                NOM_CMP = 'MXX',   
                REFERENCE='NON_REGRESSION',VALE=-3.33876E-01,PRECISION=0.05,        
                ),
                


                ),)




FIN()
#
#
# -- TEST SUR LES FORCES NODALES : FAUSSES EN DKT + EXCENTREMENT
#    70% D'ECART, EQUILIBRE NON VERIFIE

TEST_RESU(RESU=(

                _F( 
                RESULTAT = RESUDKT,   
                NUME_ORDRE = 1,
                NOM_CHAM = 'FORC_NODA',  
                 NOEUD = 'NO1',      
                NOM_CMP = 'DZ',   
                REFERENCE='ANALYTIQUE',VALE= -0.5,       
                ),
                _F( 
                RESULTAT = RESUDKT,   
                NUME_ORDRE = 1,
                NOM_CHAM = 'FORC_NODA',  
                  NOEUD = 'NO2',      
                NOM_CMP = 'DZ',   
                REFERENCE='ANALYTIQUE',VALE=0.5,       
                ),
                _F( 
                RESULTAT = RESUDKT,   
                NUME_ORDRE = 1,
                NOM_CHAM = 'FORC_NODA',  
                NOEUD = 'NO3',      
                NOM_CMP = 'DZ',   
                REFERENCE='ANALYTIQUE',VALE=0.5,       
                ),
                _F( 
                RESULTAT = RESUDKT,   
                NUME_ORDRE = 1,
                NOM_CHAM = 'FORC_NODA',  
                NOEUD = 'NO4',      
                NOM_CMP = 'DZ',   
                REFERENCE='ANALYTIQUE',VALE=-0.5,       
                ),
                _F( 
                RESULTAT = RESUDKT,   
                NUME_ORDRE = 1,
                NOM_CHAM = 'FORC_NODA',  
                NOEUD = 'NO1',      
                NOM_CMP = 'DRY',   
                REFERENCE='ANALYTIQUE',VALE=0.5,       
                ),
                _F( 
                RESULTAT = RESUDKT,   
                NUME_ORDRE = 1,
                NOM_CHAM = 'FORC_NODA',  
                NOEUD = 'NO4',      
                NOM_CMP = 'DRY',   
                REFERENCE='ANALYTIQUE',VALE=0.5,       
                ),
                )
              )
