# person_in_charge: sebastien.fayolle at edf.fr
#  DATE   : 27/10/03
#  AUTEUR : F. LEBOUVIER (DeltaCAD)
#  TITRE  : FLEXION D'UNE DALLE EN BETON ARME (MODELE GLRC) APPUYEE SUR 2 COTES:
# ======================================================================
# COPYRIGHT (C) 1991 - 2015  EDF R&D                  WWW.CODE-ASTER.ORG
# THIS PROGRAM IS FREE SOFTWARE; YOU CAN REDISTRIBUTE IT AND/OR MODIFY
# IT UNDER THE TERMS OF THE GNU GENERAL PUBLIC LICENSE AS PUBLISHED BY
# THE FREE SOFTWARE FOUNDATION; EITHER VERSION 2 OF THE LICENSE, OR
# (AT YOUR OPTION) ANY LATER VERSION.
#
# THIS PROGRAM IS DISTRIBUTED IN THE HOPE THAT IT WILL BE USEFUL, BUT
# WITHOUT ANY WARRANTY; WITHOUT EVEN THE IMPLIED WARRANTY OF
# MERCHANTABILITY OR FITNESS FOR A PARTICULAR PURPOSE. SEE THE GNU
# GENERAL PUBLIC LICENSE FOR MORE DETAILS.
#
# YOU SHOULD HAVE RECEIVED A COPY OF THE GNU GENERAL PUBLIC LICENSE
# ALONG WITH THIS PROGRAM; IF NOT, WRITE TO EDF R&D CODE_ASTER,
#    1 AVENUE DU GENERAL DE GAULLE, 92141 CLAMART CEDEX, FRANCE.
# ======================================================================
#           REGIME DE POUTRE ELASTIQUE
#
#  DETAILS : MODELISATION DKTG
#            Mailles TRIA3

DEBUT(CODE=_F(NIV_PUB_WEB='INTERNET',),
      DEBUG=_F(SDVERI='OUI',),);

# Carateristiques de la dalle

# Epaisseur
EP = 0.12;

# Taux de ferraillage
AX = 0.0007854;

# Taux de ferraillage
AY = 0.0007854;

# Distance grille/surface moyenne de la dalle
EZ = 0.038;

# Distance normalisee du ferraillage par rapport
# au feuillet moyen
R0 = (EZ / (0.5 * EP));

# Caracteristiques du beton

# Module d'Young
EB = 35700000000.0;

# Coefficient de poisson vaut 0.22
NUB = 0.0;

# Caracteristiques de l'acier (armatures)

# Module d'Young
E = 2.1e+11;

# Coefficient de poisson
NU = 0.0;

MAIL=LIRE_MAILLAGE(FORMAT='MED',);

MAIL=DEFI_GROUP(reuse=MAIL,
                MAILLAGE=MAIL,
                CREA_GROUP_NO=(_F(GROUP_MA='LCONTY',),
                               _F(GROUP_MA='LCONTX',),
                               _F(GROUP_MA='LSYMY',),
                               _F(GROUP_MA='LSYMX',),),);

MOD=AFFE_MODELE(MAILLAGE=MAIL,
                AFFE=_F(TOUT='OUI',
                        PHENOMENE='MECANIQUE',
                        MODELISATION='DKTG',),);

MAIL=MODI_MAILLAGE(reuse=MAIL,
                   MAILLAGE=MAIL,
                   ORIE_NORM_COQUE=_F(GROUP_MA='DALLE',
                                      VECT_NORM=(0.0,0.0,1.0,),
                                      GROUP_NO='A1',),);
CPRAG = 0.0;
GAM = 0.0;
CPRG = CPRAG;
QP = 0.15;

MAT_B=DEFI_MATERIAU(ELAS=_F(E=EB,
                            NU=NUB,
                            RHO=2500.0,),
                    BETON_ECRO_LINE=_F(D_SIGM_EPSI=0.0,
                                       SYT=4400000.0,
                                       SYC=-52500000.0,),);

MAT_A=DEFI_MATERIAU(ELAS=_F(E=E,
                            NU=NU,),
                    ECRO_LINE=_F(D_SIGM_EPSI=0.0,
                                 SY=500000000.0,),);

MAT=DEFI_GLRC(RELATION='GLRC_DAMAGE',
              BETON=_F(MATER=MAT_B,
                       EPAIS=EP,
                       GAMMA=GAM,
                       QP1=QP,
                       QP2=QP,
                       C1N1=CPRG,
                       C1N2=CPRG,
                       C1N3=CPRG,
                       C2N1=CPRG,
                       C2N2=CPRG,
                       C2N3=CPRG,
                       C1M1=CPRG,
                       C1M2=CPRG,
                       C1M3=CPRG,
                       C2M1=CPRG,
                       C2M2=CPRG,
                       C2M3=CPRG,),
              NAPPE=(_F(MATER=MAT_A,
                        OMX=AX,
                        OMY=AY,
                        RX=R0,
                        RY=R0,),
                     _F(MATER=MAT_A,
                        OMX=AX,
                        OMY=AY,
                        RX=-R0,
                        RY=-R0,),),
              INFO=2,);

CHMAT=AFFE_MATERIAU(MAILLAGE=MAIL,
                    AFFE=_F(TOUT='OUI',
                            MATER=MAT,),);

CARA_ELE=AFFE_CARA_ELEM(MODELE=MOD,
                        COQUE=_F(GROUP_MA='MESH',
                                 EPAIS=EP,
                                 ANGL_REP=(0.0,0.0,),),);

COND_LIM=AFFE_CHAR_MECA(MODELE=MOD,
                        DDL_IMPO=(_F(GROUP_NO='LCONTY',
                                     DZ=0.0,),
                                  _F(GROUP_NO='LSYMX',
                                     DY=0.0,
                                     DRX=0.0,),
                                  _F(GROUP_NO='LSYMY',
                                     DX=0.0,
                                     DRY=0.0,),),);

PRES=AFFE_CHAR_MECA(MODELE=MOD,
                    FORCE_COQUE=_F(GROUP_MA='DALLE',
                                   PRES=-10000.0,),);

CH_FO=DEFI_FONCTION(
                    NOM_PARA='INST',
                    VALE=(0.0 ,0.0 ,
                          1.0 ,1.0 ,),
                    PROL_DROITE='LINEAIRE',
                    PROL_GAUCHE='LINEAIRE',);

INST=DEFI_LIST_REEL(DEBUT=0.0,
                    INTERVALLE=_F(JUSQU_A=1.0,
                                  NOMBRE=2,),);

RESU=STAT_NON_LINE(MODELE=MOD,
                   CHAM_MATER=CHMAT,
                   CARA_ELEM=CARA_ELE,
                   EXCIT=(_F(CHARGE=COND_LIM,),
                          _F(CHARGE=PRES,
                             FONC_MULT=CH_FO,),),
                   COMPORTEMENT=_F(RELATION='GLRC_DAMAGE',),
                   INCREMENT=_F(LIST_INST=INST,),);

RESU=CALC_CHAMP(reuse=RESU,
                RESULTAT=RESU,
                CONTRAINTE=('EFGE_ELNO','EFGE_ELGA',),
                DEFORMATION=('DEGE_ELNO','DEGE_ELGA',),
                VARI_INTERNE='VARI_ELNO',);

TEST_RESU(RESU=_F(RESULTAT=RESU,
                  NUME_ORDRE=2,
                  NOM_CHAM='DEPL',
                  NOM_CMP='DZ',
                  GROUP_NO='A1',
                  CRITERE='RELATIF',
                  VALE_REFE=0.0002433,
                  PRECISION=0.06,
                  REFERENCE='ANALYTIQUE',
                  VALE_CALC=0.000243043415134,),);

TEST_RESU(RESU=_F(RESULTAT=RESU,
                  NUME_ORDRE=2,
                  NOM_CHAM='EFGE_ELNO',
                  NOM_CMP='MXX',
                  MAILLE='M266',
                  GROUP_NO='A1',
                  CRITERE='RELATIF',
                  VALE_REFE=4050.0,
                  PRECISION=0.02,
                  REFERENCE='ANALYTIQUE',
                  VALE_CALC=4050.30942909,),);

TEST_RESU(RESU=_F(RESULTAT=RESU,
                  NUME_ORDRE=2,
                  NOM_CHAM='DEGE_ELNO',
                  NOM_CMP='KXX',
                  MAILLE='M266',
                  GROUP_NO='A1',
                  CRITERE='RELATIF',
                  VALE_REFE=0.000721,
                  PRECISION=0.05,
                  REFERENCE='ANALYTIQUE',
                  VALE_CALC=0.00072106393612,),);

TEST_RESU(RESU=_F(RESULTAT=RESU,
                  NUME_ORDRE=2,
                  NOM_CHAM='SIEF_ELGA',
                  NOM_CMP='MXX',
                  MAILLE='M266',
                  POINT=3,
                  CRITERE='RELATIF',
                  VALE_CALC=4044.16364358,),);

TEST_RESU(RESU=_F(RESULTAT=RESU,
                  NUME_ORDRE=2,
                  NOM_CHAM='DEGE_ELGA',
                  NOM_CMP='KXX',
                  MAILLE='M266',
                  POINT=3,
                  CRITERE='RELATIF',
                  VALE_CALC=0.000719969821123,),);

#
# VERIFICATION AVEC UN AUTRE REPERE UTILISATEUR
#

CARA_EL1=AFFE_CARA_ELEM(MODELE=MOD,
                        COQUE=_F(GROUP_MA='MESH',
                                 EPAIS=EP,
                                 ANGL_REP=(33.0,12.0,),),);

RESU1=STAT_NON_LINE(MODELE=MOD,
                    CHAM_MATER=CHMAT,
                    CARA_ELEM=CARA_EL1,
                    EXCIT=(_F(CHARGE=COND_LIM,),
                           _F(CHARGE=PRES,
                              FONC_MULT=CH_FO,),),
                    COMPORTEMENT=_F(RELATION='GLRC_DAMAGE',),
                    INCREMENT=_F(LIST_INST=INST,),);

RESU1=CALC_CHAMP(reuse=RESU1,
                 RESULTAT=RESU1,
                 CONTRAINTE=('EFGE_ELNO','EFGE_ELGA',),
                 DEFORMATION=('DEGE_ELNO','DEGE_ELGA',),
                 VARI_INTERNE='VARI_ELNO',);

TEST_RESU(RESU=_F(RESULTAT=RESU1,
                  NUME_ORDRE=2,
                  NOM_CHAM='DEPL',
                  NOM_CMP='DZ',
                  GROUP_NO='A1',
                  CRITERE='RELATIF',
                  VALE_REFE=2.433E-4,
                  PRECISION=0.06,
                  REFERENCE='ANALYTIQUE',
                  VALE_CALC=0.000243043415133,),);

TEST_RESU(RESU=_F(RESULTAT=RESU1,
                  NUME_ORDRE=2,
                  NOM_CHAM='EFGE_ELNO',
                  NOM_CMP='MXX',
                  MAILLE='M266',
                  GROUP_NO='A1',
                  CRITERE='RELATIF',
                  VALE_CALC=2847.4701029,),);

TEST_RESU(RESU=_F(RESULTAT=RESU1,
                  NUME_ORDRE=2,
                  NOM_CHAM='EFGE_ELNO',
                  NOM_CMP='MYY',
                  MAILLE='M266',
                  GROUP_NO='A1',
                  CRITERE='RELATIF',
                  VALE_CALC=1198.15593582,),);

TEST_RESU(RESU=_F(RESULTAT=RESU1,
                  NUME_ORDRE=2,
                  NOM_CHAM='EFGE_ELNO',
                  NOM_CMP='MXY',
                  MAILLE='M266',
                  GROUP_NO='A1',
                  CRITERE='RELATIF',
                  VALE_CALC=-1852.2101355,),);

TEST_RESU(RESU=_F(RESULTAT=RESU1,
                  NUME_ORDRE=2,
                  NOM_CHAM='DEGE_ELNO',
                  NOM_CMP='KXX',
                  MAILLE='M266',
                  GROUP_NO='A1',
                  CRITERE='RELATIF',
                  VALE_CALC=0.000506926208065,),);

TEST_RESU(RESU=_F(RESULTAT=RESU1,
                  NUME_ORDRE=2,
                  NOM_CHAM='DEGE_ELNO',
                  NOM_CMP='KYY',
                  MAILLE='M266',
                  GROUP_NO='A1',
                  CRITERE='RELATIF',
                  VALE_CALC=0.000213303958695,),);

TEST_RESU(RESU=_F(RESULTAT=RESU1,
                  NUME_ORDRE=2,
                  NOM_CHAM='DEGE_ELNO',
                  NOM_CMP='KXY',
                  MAILLE='M266',
                  GROUP_NO='A1',
                  CRITERE='RELATIF',
                  VALE_CALC=-0.000329743184861,),);

TEST_RESU(RESU=_F(RESULTAT=RESU1,
                  NUME_ORDRE=2,
                  NOM_CHAM='EFGE_ELGA',
                  NOM_CMP='MXX',
                  MAILLE='M266',
                  POINT=3,
                  CRITERE='RELATIF',
                  VALE_CALC=2842.56562263,),);

TEST_RESU(RESU=_F(RESULTAT=RESU1,
                  NUME_ORDRE=2,
                  NOM_CHAM='EFGE_ELGA',
                  NOM_CMP='MYY',
                  MAILLE='M266',
                  POINT=3,
                  CRITERE='RELATIF',
                  VALE_CALC=1197.7032727,),);

TEST_RESU(RESU=_F(RESULTAT=RESU1,
                  NUME_ORDRE=2,
                  NOM_CHAM='EFGE_ELGA',
                  NOM_CMP='MXY',
                  MAILLE='M266',
                  POINT=3,
                  CRITERE='RELATIF',
                  VALE_CALC=-1849.40583581,),);

TEST_RESU(RESU=_F(RESULTAT=RESU1,
                  NUME_ORDRE=2,
                  NOM_CHAM='DEGE_ELGA',
                  NOM_CMP='KXX',
                  MAILLE='M266',
                  POINT=3,
                  CRITERE='RELATIF',
                  VALE_CALC=0.000506053078763,),);

TEST_RESU(RESU=_F(RESULTAT=RESU1,
                  NUME_ORDRE=2,
                  NOM_CHAM='DEGE_ELGA',
                  NOM_CMP='KYY',
                  MAILLE='M266',
                  POINT=3,
                  CRITERE='RELATIF',
                  VALE_CALC=0.000213223372494,),);

TEST_RESU(RESU=_F(RESULTAT=RESU1,
                  NUME_ORDRE=2,
                  NOM_CHAM='DEGE_ELGA',
                  NOM_CMP='KXY',
                  MAILLE='M266',
                  POINT=3,
                  CRITERE='RELATIF',
                  VALE_CALC=-0.000329243944149,),);

TEST_RESU(RESU=_F(RESULTAT=RESU1,
                  NUME_ORDRE=2,
                  NOM_CHAM='SIEF_ELGA',
                  NOM_CMP='MXX',
                  MAILLE='M266',
                  POINT=3,
                  CRITERE='RELATIF',
                  VALE_CALC=2842.56562263,),);

TEST_RESU(RESU=_F(RESULTAT=RESU1,
                  NUME_ORDRE=2,
                  NOM_CHAM='SIEF_ELGA',
                  NOM_CMP='MYY',
                  MAILLE='M266',
                  POINT=3,
                  CRITERE='RELATIF',
                  VALE_CALC=1197.7032727,),);

TEST_RESU(RESU=_F(RESULTAT=RESU1,
                  NUME_ORDRE=2,
                  NOM_CHAM='SIEF_ELGA',
                  NOM_CMP='MXY',
                  MAILLE='M266',
                  POINT=3,
                  CRITERE='RELATIF',
                  VALE_CALC=-1849.40583581,),);

FIN();
