# MODIF  DATE 09/01/2012   AUTEUR PELLET J.PELLET 
# TITRE  PLAQUE CARREE EN APPUI SIMPLE SOUS PRESSION SINUSOIDALE
# ssls118o.para = tps_job 60 mem_job 100Mo ncpus 1 liste_test S
#            CONFIGURATION MANAGEMENT OF EDF VERSION
# ======================================================================
# COPYRIGHT (C) 1991 - 2012  EDF R&D                  WWW.CODE-ASTER.ORG
# THIS PROGRAM IS FREE SOFTWARE; YOU CAN REDISTRIBUTE IT AND/OR MODIFY
# IT UNDER THE TERMS OF THE GNU GENERAL PUBLIC LICENSE AS PUBLISHED BY
# THE FREE SOFTWARE FOUNDATION; EITHER VERSION 2 OF THE LICENSE, OR
# (AT YOUR OPTION) ANY LATER VERSION.
#
# THIS PROGRAM IS DISTRIBUTED IN THE HOPE THAT IT WILL BE USEFUL, BUT
# WITHOUT ANY WARRANTY; WITHOUT EVEN THE IMPLIED WARRANTY OF
# MERCHANTABILITY OR FITNESS FOR A PARTICULAR PURPOSE. SEE THE GNU
# GENERAL PUBLIC LICENSE FOR MORE DETAILS.
#
# YOU SHOULD HAVE RECEIVED A COPY OF THE GNU GENERAL PUBLIC LICENSE
# ALONG WITH THIS PROGRAM; IF NOT, WRITE TO EDF R&D CODE_ASTER,
#    1 AVENUE DU GENERAL DE GAULLE, 92141 CLAMART CEDEX, FRANCE.
# ======================================================================
#---------------------------------------------------------------------
#         - MODELISATION AVEC DES ELEMENTS 'Q4G'(QUA4)
#---------------------------------------------------------------------

DEBUT(CODE=_F(NOM='SSLS118O',NIV_PUB_WEB='INTERNET'),DEBUG=_F(SDVERI='OUI'))

MA=LIRE_MAILLAGE(FORMAT='MED',);

MA=DEFI_GROUP(reuse =MA,
              MAILLAGE=MA,
              CREA_GROUP_MA=_F(NOM='TOUT',
                               TOUT='OUI',),
              CREA_GROUP_NO=(_F(GROUP_MA='AB',),
                             _F(GROUP_MA='BC',),
                             _F(GROUP_MA='CD',),
                             _F(GROUP_MA='DA',),),);

MO=AFFE_MODELE(MAILLAGE=MA,
               AFFE=_F(TOUT='OUI',
                       PHENOMENE='MECANIQUE',
                       MODELISATION='Q4G',),);

CAR_ELE=AFFE_CARA_ELEM(MODELE=MO,
                       COQUE=_F(GROUP_MA='TOUT',
                                EPAIS=0.1,
                                ANGL_REP=(0.0,0.0,),),);

MAT=DEFI_MATERIAU(ELAS=_F(E=25.0,
                          NU=0.25,),);

CHAM_MAT=AFFE_MATERIAU(MAILLAGE=MA,
                       AFFE=_F(TOUT='OUI',
                               MATER=MAT,),);
PO = 1.0;


P = FORMULE(NOM_PARA=('X','Y'),VALE='PO*sin(pi*X)*sin(pi*Y)''');

CHA_1=AFFE_CHAR_MECA(MODELE=MO,
                     DDL_IMPO=(_F(GROUP_NO='AB',
                                  DZ=0.0,
                                  DRY=0.0,),
                               _F(GROUP_NO='BC',
                                  DX=0.0,
                                  DRY=0.0,),
                               _F(GROUP_NO='CD',
                                  DY=0.0,
                                  DRX=0.0,),
                               _F(GROUP_NO='DA',
                                  DZ=0.0,
                                  DRX=0.0,),),
                     FORCE_ARETE=(_F(GROUP_MA='AB',
                                     MY=0.0,),
                                  _F(GROUP_MA='CD',
                                     MY=0.0,),
                                  _F(GROUP_MA='BC',
                                     MX=0.0,),
                                  _F(GROUP_MA='DA',
                                     MX=0.0,),),);

CHA=AFFE_CHAR_MECA(MODELE=MO,
                   DDL_IMPO=(_F(GROUP_NO='O',
                                DX=0.0,
                                DY=0.0,
                                DRX=0.0,
                                DRY=0.0,
                                DRZ=0.0,),
                             _F(GROUP_NO='AB',
                                DX=0.0,
                                DZ=0.0,
                                DRY=0.0,),
                             _F(GROUP_NO='BC',
                                DY=0.0,
                                DZ=0.0,
                                DRX=0.0,),
                             _F(GROUP_NO='CD',
                                DX=0.0,
                                DZ=0.0,
                                DRY=0.0,),
                             _F(GROUP_NO='DA',
                                DY=0.0,
                                DZ=0.0,
                                DRX=0.0,),),
                   FORCE_ARETE=(_F(GROUP_MA='AB',
                                   MY=0.0,),
                                _F(GROUP_MA='CD',
                                   MY=0.0,),
                                _F(GROUP_MA='BC',
                                   MX=0.0,),
                                _F(GROUP_MA='DA',
                                   MX=0.0,),),);

CHA_P=AFFE_CHAR_MECA_F(MODELE=MO,
                       FORCE_COQUE=_F(GROUP_MA='MAIL1',
                                      PRES=P,),);

RESU=MECA_STATIQUE(MODELE=MO,
                   CHAM_MATER=CHAM_MAT,
                   CARA_ELEM=CAR_ELE,
                   EXCIT=(_F(CHARGE=CHA,),
                          _F(CHARGE=CHA_P,),),);

RESU=CALC_ELEM(reuse =RESU,
               RESULTAT=RESU,
               OPTION='SIGM_ELNO',);

SIG_C1_S=POST_CHAMP(RESULTAT=RESU,
                     EXTR_COQUE=_F(NOM_CHAM='SIGM_ELNO',
                                   NUME_COUCHE=1,
                                   NIVE_COUCHE='SUP',),);
SIG_C1_M=POST_CHAMP(RESULTAT=RESU,
                     EXTR_COQUE=_F(NOM_CHAM='SIGM_ELNO',
                                   NUME_COUCHE=1,
                                   NIVE_COUCHE='MOY',),);
SIG_C1_I=POST_CHAMP(RESULTAT=RESU,
                     EXTR_COQUE=_F(NOM_CHAM='SIGM_ELNO',
                                   NUME_COUCHE=1,
                                   NIVE_COUCHE='INF',),);
EFF=CALC_ELEM(RESULTAT=RESU,
              OPTION='EFGE_ELNO',
              );

TEST_RESU(RESU=(_F(RESULTAT=RESU,
                   NUME_ORDRE=1,
                   NOM_CHAM='DEPL',
                   NOM_CMP='DZ',
                   GROUP_NO='O',
                   VALE=-1.1549,
                   PRECISION=0.041,
                   REFERENCE='ANALYTIQUE',),
                _F(RESULTAT=SIG_C1_I,
                   NUME_ORDRE=1,
                   NOM_CHAM='SIGM_ELNO',
                   NOM_CMP='SIXX',
                   MAILLE='M78',
                   GROUP_NO='O',
                   VALE=18.99,
                   PRECISION=0.021,
                   REFERENCE='ANALYTIQUE',),
                _F(RESULTAT=SIG_C1_I,
                   NUME_ORDRE=1,
                   NOM_CHAM='SIGM_ELNO',
                   NOM_CMP='SIYY',
                   MAILLE='M78',
                   GROUP_NO='O',
                   VALE=18.99,
                   PRECISION=0.021,
                   REFERENCE='ANALYTIQUE',),
                _F(RESULTAT=SIG_C1_I,
                   NUME_ORDRE=1,
                   NOM_CHAM='SIGM_ELNO',
                   NOM_CMP='SIXY',
                   MAILLE='M78',
                   GROUP_NO='O',
                   VALE=0.0,
                   CRITERE='ABSOLU',
                   PRECISION=0.01,
                   REFERENCE='ANALYTIQUE',),
                _F(RESULTAT=SIG_C1_I,
                   NUME_ORDRE=1,
                   NOM_CHAM='SIGM_ELNO',
                   NOM_CMP='SIXZ',
                   MAILLE='M78',
                   GROUP_NO='O',
                   VALE=0.0,
                   CRITERE='ABSOLU',
                   PRECISION=0.01,
                   REFERENCE='ANALYTIQUE',),
                _F(RESULTAT=SIG_C1_I,
                   NUME_ORDRE=1,
                   NOM_CHAM='SIGM_ELNO',
                   NOM_CMP='SIYZ',
                   MAILLE='M78',
                   GROUP_NO='O',
                   VALE=0.0,
                   CRITERE='ABSOLU',
                   PRECISION=0.01,
                   REFERENCE='ANALYTIQUE',),
                _F(RESULTAT=SIG_C1_M,
                   NUME_ORDRE=1,
                   NOM_CHAM='SIGM_ELNO',
                   NOM_CMP='SIXX',
                   MAILLE='M78',
                   GROUP_NO='O',
                   VALE=0.0,
                   CRITERE='ABSOLU',
                   PRECISION=0.01,
                   REFERENCE='ANALYTIQUE',),
                _F(RESULTAT=SIG_C1_M,
                   NUME_ORDRE=1,
                   NOM_CHAM='SIGM_ELNO',
                   NOM_CMP='SIYY',
                   MAILLE='M78',
                   GROUP_NO='O',
                   VALE=0.0,
                   CRITERE='ABSOLU',
                   PRECISION=0.01,
                   REFERENCE='ANALYTIQUE',),
                _F(RESULTAT=SIG_C1_M,
                   NUME_ORDRE=1,
                   NOM_CHAM='SIGM_ELNO',
                   NOM_CMP='SIXY',
                   MAILLE='M78',
                   GROUP_NO='O',
                   VALE=0.0,
                   CRITERE='ABSOLU',
                   PRECISION=0.01,
                   REFERENCE='ANALYTIQUE',),
                _F(RESULTAT=SIG_C1_M,
                   NUME_ORDRE=1,
                   NOM_CHAM='SIGM_ELNO',
                   NOM_CMP='SIXZ',
                   MAILLE='M78',
                   GROUP_NO='O',
                   VALE=0.0,
                   CRITERE='ABSOLU',
                   PRECISION=0.31,
                   REFERENCE='ANALYTIQUE',),
                _F(RESULTAT=SIG_C1_M,
                   NUME_ORDRE=1,
                   NOM_CHAM='SIGM_ELNO',
                   NOM_CMP='SIYZ',
                   MAILLE='M78',
                   GROUP_NO='O',
                   VALE=0.0,
                   CRITERE='ABSOLU',
                   PRECISION=0.31,
                   REFERENCE='ANALYTIQUE',),
                _F(RESULTAT=SIG_C1_S,
                   NUME_ORDRE=1,
                   NOM_CHAM='SIGM_ELNO',
                   NOM_CMP='SIXX',
                   MAILLE='M78',
                   GROUP_NO='O',
                   VALE=-18.99,
                   PRECISION=0.021,
                   REFERENCE='ANALYTIQUE',),
                _F(RESULTAT=SIG_C1_S,
                   NUME_ORDRE=1,
                   NOM_CHAM='SIGM_ELNO',
                   NOM_CMP='SIYY',
                   MAILLE='M78',
                   GROUP_NO='O',
                   VALE=-18.99,
                   PRECISION=0.021,
                   REFERENCE='ANALYTIQUE',),
                _F(RESULTAT=SIG_C1_S,
                   NUME_ORDRE=1,
                   NOM_CHAM='SIGM_ELNO',
                   NOM_CMP='SIXY',
                   MAILLE='M78',
                   GROUP_NO='O',
                   VALE=0.0,
                   CRITERE='ABSOLU',
                   PRECISION=0.01,
                   REFERENCE='ANALYTIQUE',),
                _F(RESULTAT=SIG_C1_S,
                   NUME_ORDRE=1,
                   NOM_CHAM='SIGM_ELNO',
                   NOM_CMP='SIXZ',
                   MAILLE='M78',
                   GROUP_NO='O',
                   VALE=0.0,
                   CRITERE='ABSOLU',
                   PRECISION=0.01,
                   REFERENCE='ANALYTIQUE',),
                _F(RESULTAT=SIG_C1_S,
                   NUME_ORDRE=1,
                   NOM_CHAM='SIGM_ELNO',
                   NOM_CMP='SIYZ',
                   MAILLE='M78',
                   GROUP_NO='O',
                   VALE=0.0,
                   CRITERE='ABSOLU',
                   PRECISION=0.01,
                   REFERENCE='ANALYTIQUE',),
                _F(RESULTAT=SIG_C1_I,
                   NUME_ORDRE=1,
                   NOM_CHAM='SIGM_ELNO',
                   NOM_CMP='SIXX',
                   MAILLE='M6',
                   GROUP_NO='B1',
                   VALE=0.0,
                   CRITERE='ABSOLU',
                   PRECISION=0.7,
                   REFERENCE='ANALYTIQUE',),
                _F(RESULTAT=SIG_C1_I,
                   NUME_ORDRE=1,
                   NOM_CHAM='SIGM_ELNO',
                   NOM_CMP='SIYY',
                   MAILLE='M6',
                   GROUP_NO='B1',
                   VALE=0.0,
                   CRITERE='ABSOLU',
                   PRECISION=2.1,
                   REFERENCE='ANALYTIQUE',),
                _F(RESULTAT=SIG_C1_I,
                   NUME_ORDRE=1,
                   NOM_CHAM='SIGM_ELNO',
                   NOM_CMP='SIXY',
                   MAILLE='M6',
                   GROUP_NO='B1',
                   VALE=0.0,
                   CRITERE='ABSOLU',
                   PRECISION=0.74,
                   REFERENCE='ANALYTIQUE',),
                _F(RESULTAT=SIG_C1_I,
                   NUME_ORDRE=1,
                   NOM_CHAM='SIGM_ELNO',
                   NOM_CMP='SIXZ',
                   MAILLE='M6',
                   GROUP_NO='B1',
                   VALE=0.0,
                   CRITERE='ABSOLU',
                   PRECISION=0.01,
                   REFERENCE='ANALYTIQUE',),
                _F(RESULTAT=SIG_C1_I,
                   NUME_ORDRE=1,
                   NOM_CHAM='SIGM_ELNO',
                   NOM_CMP='SIYZ',
                   MAILLE='M6',
                   GROUP_NO='B1',
                   VALE=0.0,
                   CRITERE='ABSOLU',
                   PRECISION=0.01,
                   REFERENCE='ANALYTIQUE',),
                _F(RESULTAT=SIG_C1_M,
                   NUME_ORDRE=1,
                   NOM_CHAM='SIGM_ELNO',
                   NOM_CMP='SIXX',
                   MAILLE='M6',
                   GROUP_NO='B1',
                   VALE=0.0,
                   CRITERE='ABSOLU',
                   PRECISION=0.01,
                   REFERENCE='ANALYTIQUE',),
                _F(RESULTAT=SIG_C1_M,
                   NUME_ORDRE=1,
                   NOM_CHAM='SIGM_ELNO',
                   NOM_CMP='SIYY',
                   MAILLE='M6',
                   GROUP_NO='B1',
                   VALE=0.0,
                   CRITERE='ABSOLU',
                   PRECISION=0.01,
                   REFERENCE='ANALYTIQUE',),
                _F(RESULTAT=SIG_C1_M,
                   NUME_ORDRE=1,
                   NOM_CHAM='SIGM_ELNO',
                   NOM_CMP='SIXY',
                   MAILLE='M6',
                   GROUP_NO='B1',
                   VALE=0.0,
                   CRITERE='ABSOLU',
                   PRECISION=0.01,
                   REFERENCE='ANALYTIQUE',),
                _F(RESULTAT=SIG_C1_M,
                   NUME_ORDRE=1,
                   NOM_CHAM='SIGM_ELNO',
                   NOM_CMP='SIXZ',
                   MAILLE='M6',
                   GROUP_NO='B1',
                   VALE=0.0,
                   CRITERE='ABSOLU',
                   PRECISION=0.26,
                   REFERENCE='ANALYTIQUE',),
                _F(RESULTAT=SIG_C1_M,
                   NUME_ORDRE=1,
                   NOM_CHAM='SIGM_ELNO',
                   NOM_CMP='SIYZ',
                   MAILLE='M6',
                   GROUP_NO='B1',
                   VALE=-2.39732,
                   PRECISION=0.032,
                   REFERENCE='ANALYTIQUE',),
                _F(RESULTAT=SIG_C1_S,
                   NUME_ORDRE=1,
                   NOM_CHAM='SIGM_ELNO',
                   NOM_CMP='SIXX',
                   MAILLE='M6',
                   GROUP_NO='B1',
                   VALE=0.0,
                   CRITERE='ABSOLU',
                   PRECISION=0.7,
                   REFERENCE='ANALYTIQUE',),
                _F(RESULTAT=SIG_C1_S,
                   NUME_ORDRE=1,
                   NOM_CHAM='SIGM_ELNO',
                   NOM_CMP='SIYY',
                   MAILLE='M6',
                   GROUP_NO='B1',
                   VALE=0.0,
                   CRITERE='ABSOLU',
                   PRECISION=2.1,
                   REFERENCE='ANALYTIQUE',),
                _F(RESULTAT=SIG_C1_S,
                   NUME_ORDRE=1,
                   NOM_CHAM='SIGM_ELNO',
                   NOM_CMP='SIXY',
                   MAILLE='M6',
                   GROUP_NO='B1',
                   VALE=0.0,
                   CRITERE='ABSOLU',
                   PRECISION=0.74,
                   REFERENCE='ANALYTIQUE',),
                _F(RESULTAT=SIG_C1_S,
                   NUME_ORDRE=1,
                   NOM_CHAM='SIGM_ELNO',
                   NOM_CMP='SIXZ',
                   MAILLE='M6',
                   GROUP_NO='B1',
                   VALE=0.0,
                   CRITERE='ABSOLU',
                   PRECISION=0.01,
                   REFERENCE='ANALYTIQUE',),
                _F(RESULTAT=SIG_C1_S,
                   NUME_ORDRE=1,
                   NOM_CHAM='SIGM_ELNO',
                   NOM_CMP='SIYZ',
                   MAILLE='M6',
                   GROUP_NO='B1',
                   VALE=0.0,
                   CRITERE='ABSOLU',
                   PRECISION=0.01,
                   REFERENCE='ANALYTIQUE',),
                _F(RESULTAT=EFF,
                   NUME_ORDRE=1,
                   NOM_CHAM='EFGE_ELNO',
                   NOM_CMP='NXX',
                   MAILLE='M78',
                   GROUP_NO='O',
                   VALE=0.0,
                   CRITERE='ABSOLU',
                   PRECISION=0.01,
                   REFERENCE='ANALYTIQUE',),
                _F(RESULTAT=EFF,
                   NUME_ORDRE=1,
                   NOM_CHAM='EFGE_ELNO',
                   NOM_CMP='NYY',
                   MAILLE='M78',
                   GROUP_NO='O',
                   VALE=0.0,
                   CRITERE='ABSOLU',
                   PRECISION=0.01,
                   REFERENCE='ANALYTIQUE',),
                _F(RESULTAT=EFF,
                   NUME_ORDRE=1,
                   NOM_CHAM='EFGE_ELNO',
                   NOM_CMP='NXY',
                   MAILLE='M78',
                   GROUP_NO='O',
                   VALE=0.0,
                   CRITERE='ABSOLU',
                   PRECISION=0.01,
                   REFERENCE='ANALYTIQUE',),
                _F(RESULTAT=EFF,
                   NUME_ORDRE=1,
                   NOM_CHAM='EFGE_ELNO',
                   NOM_CMP='MXX',
                   MAILLE='M78',
                   GROUP_NO='O',
                   VALE=-0.0316628,
                   PRECISION=0.022,
                   REFERENCE='ANALYTIQUE',),
                _F(RESULTAT=EFF,
                   NUME_ORDRE=1,
                   NOM_CHAM='EFGE_ELNO',
                   NOM_CMP='MYY',
                   MAILLE='M78',
                   GROUP_NO='O',
                   VALE=-0.0316628,
                   PRECISION=0.022,
                   REFERENCE='ANALYTIQUE',),
                _F(RESULTAT=EFF,
                   NUME_ORDRE=1,
                   NOM_CHAM='EFGE_ELNO',
                   NOM_CMP='MXY',
                   MAILLE='M78',
                   GROUP_NO='O',
                   VALE=0.0,
                   CRITERE='ABSOLU',
                   PRECISION=0.01,
                   REFERENCE='ANALYTIQUE',),
                _F(RESULTAT=EFF,
                   NUME_ORDRE=1,
                   NOM_CHAM='EFGE_ELNO',
                   NOM_CMP='QX',
                   MAILLE='M78',
                   GROUP_NO='O',
                   VALE=0.0,
                   CRITERE='ABSOLU',
                   PRECISION=0.021,
                   REFERENCE='ANALYTIQUE',),
                _F(RESULTAT=EFF,
                   NUME_ORDRE=1,
                   NOM_CHAM='EFGE_ELNO',
                   NOM_CMP='QY',
                   MAILLE='M78',
                   GROUP_NO='O',
                   VALE=0.0,
                   CRITERE='ABSOLU',
                   PRECISION=0.021,
                   REFERENCE='ANALYTIQUE',),
                _F(RESULTAT=EFF,
                   NUME_ORDRE=1,
                   NOM_CHAM='EFGE_ELNO',
                   NOM_CMP='QX',
                   MAILLE='M79',
                   GROUP_NO='O',
                   VALE=0.0,
                   CRITERE='ABSOLU',
                   PRECISION=0.021,
                   REFERENCE='ANALYTIQUE',),
                _F(RESULTAT=EFF,
                   NUME_ORDRE=1,
                   NOM_CHAM='EFGE_ELNO',
                   NOM_CMP='QY',
                   MAILLE='M79',
                   GROUP_NO='O',
                   VALE=0.0,
                   CRITERE='ABSOLU',
                   PRECISION=0.021,
                   REFERENCE='ANALYTIQUE',),
                _F(RESULTAT=EFF,
                   NUME_ORDRE=1,
                   NOM_CHAM='EFGE_ELNO',
                   NOM_CMP='QX',
                   MAILLE='M79',
                   GROUP_NO='O',
                   VALE=0.0,
                   CRITERE='ABSOLU',
                   PRECISION=0.021,
                   REFERENCE='ANALYTIQUE',),
                _F(RESULTAT=EFF,
                   NUME_ORDRE=1,
                   NOM_CHAM='EFGE_ELNO',
                   NOM_CMP='QY',
                   MAILLE='M66',
                   GROUP_NO='O',
                   VALE=0.0,
                   CRITERE='ABSOLU',
                   PRECISION=0.021,
                   REFERENCE='ANALYTIQUE',),
                _F(RESULTAT=EFF,
                   NUME_ORDRE=1,
                   NOM_CHAM='EFGE_ELNO',
                   NOM_CMP='QX',
                   MAILLE='M67',
                   GROUP_NO='O',
                   VALE=0.0,
                   CRITERE='ABSOLU',
                   PRECISION=0.021,
                   REFERENCE='ANALYTIQUE',),
                _F(RESULTAT=EFF,
                   NUME_ORDRE=1,
                   NOM_CHAM='EFGE_ELNO',
                   NOM_CMP='QY',
                   MAILLE='M67',
                   GROUP_NO='O',
                   VALE=0.0,
                   CRITERE='ABSOLU',
                   PRECISION=0.021,
                   REFERENCE='ANALYTIQUE',),
                _F(RESULTAT=EFF,
                   NUME_ORDRE=1,
                   NOM_CHAM='EFGE_ELNO',
                   NOM_CMP='NXX',
                   MAILLE='M144',
                   GROUP_NO='C',
                   VALE=0.0,
                   CRITERE='ABSOLU',
                   PRECISION=0.01,
                   REFERENCE='ANALYTIQUE',),
                _F(RESULTAT=EFF,
                   NUME_ORDRE=1,
                   NOM_CHAM='EFGE_ELNO',
                   NOM_CMP='NYY',
                   MAILLE='M144',
                   GROUP_NO='C',
                   VALE=0.0,
                   CRITERE='ABSOLU',
                   PRECISION=0.01,
                   REFERENCE='ANALYTIQUE',),
                _F(RESULTAT=EFF,
                   NUME_ORDRE=1,
                   NOM_CHAM='EFGE_ELNO',
                   NOM_CMP='NXY',
                   MAILLE='M144',
                   GROUP_NO='C',
                   VALE=0.0,
                   CRITERE='ABSOLU',
                   PRECISION=0.01,
                   REFERENCE='ANALYTIQUE',),
                _F(RESULTAT=EFF,
                   NUME_ORDRE=1,
                   NOM_CHAM='EFGE_ELNO',
                   NOM_CMP='MXX',
                   MAILLE='M144',
                   GROUP_NO='C',
                   VALE=0.0,
                   CRITERE='ABSOLU',
                   PRECISION=0.01,
                   REFERENCE='ANALYTIQUE',),
                _F(RESULTAT=EFF,
                   NUME_ORDRE=1,
                   NOM_CHAM='EFGE_ELNO',
                   NOM_CMP='MYY',
                   MAILLE='M144',
                   GROUP_NO='C',
                   VALE=0.0,
                   CRITERE='ABSOLU',
                   PRECISION=0.01,
                   REFERENCE='ANALYTIQUE',),
                _F(RESULTAT=EFF,
                   NUME_ORDRE=1,
                   NOM_CHAM='EFGE_ELNO',
                   NOM_CMP='MXY',
                   MAILLE='M144',
                   GROUP_NO='C',
                   VALE=0.0189978,
                   PRECISION=0.03,
                   REFERENCE='ANALYTIQUE',),
                _F(RESULTAT=EFF,
                   NUME_ORDRE=1,
                   NOM_CHAM='EFGE_ELNO',
                   NOM_CMP='QX',
                   MAILLE='M144',
                   GROUP_NO='C',
                   VALE=0.0,
                   CRITERE='ABSOLU',
                   PRECISION=0.01,
                   REFERENCE='ANALYTIQUE',),
                _F(RESULTAT=EFF,
                   NUME_ORDRE=1,
                   NOM_CHAM='EFGE_ELNO',
                   NOM_CMP='QY',
                   MAILLE='M144',
                   GROUP_NO='C',
                   VALE=0.0,
                   CRITERE='ABSOLU',
                   PRECISION=0.01,
                   REFERENCE='ANALYTIQUE',),
                _F(RESULTAT=EFF,
                   NUME_ORDRE=1,
                   NOM_CHAM='EFGE_ELNO',
                   NOM_CMP='NXX',
                   MAILLE='M133',
                   GROUP_NO='D',
                   VALE=0.0,
                   CRITERE='ABSOLU',
                   PRECISION=0.01,
                   REFERENCE='ANALYTIQUE',),
                _F(RESULTAT=EFF,
                   NUME_ORDRE=1,
                   NOM_CHAM='EFGE_ELNO',
                   NOM_CMP='NYY',
                   MAILLE='M133',
                   GROUP_NO='D',
                   VALE=0.0,
                   CRITERE='ABSOLU',
                   PRECISION=0.01,
                   REFERENCE='ANALYTIQUE',),
                _F(RESULTAT=EFF,
                   NUME_ORDRE=1,
                   NOM_CHAM='EFGE_ELNO',
                   NOM_CMP='NXY',
                   MAILLE='M133',
                   GROUP_NO='D',
                   VALE=0.0,
                   CRITERE='ABSOLU',
                   PRECISION=0.01,
                   REFERENCE='ANALYTIQUE',),
                _F(RESULTAT=EFF,
                   NUME_ORDRE=1,
                   NOM_CHAM='EFGE_ELNO',
                   NOM_CMP='MXX',
                   MAILLE='M133',
                   GROUP_NO='D',
                   VALE=0.0,
                   CRITERE='ABSOLU',
                   PRECISION=0.01,
                   REFERENCE='ANALYTIQUE',),
                _F(RESULTAT=EFF,
                   NUME_ORDRE=1,
                   NOM_CHAM='EFGE_ELNO',
                   NOM_CMP='MYY',
                   MAILLE='M133',
                   GROUP_NO='D',
                   VALE=0.0,
                   CRITERE='ABSOLU',
                   PRECISION=0.01,
                   REFERENCE='ANALYTIQUE',),
                _F(RESULTAT=EFF,
                   NUME_ORDRE=1,
                   NOM_CHAM='EFGE_ELNO',
                   NOM_CMP='MXY',
                   MAILLE='M133',
                   GROUP_NO='D',
                   VALE=-0.0189978,
                   PRECISION=0.03,
                   REFERENCE='ANALYTIQUE',),
                _F(RESULTAT=EFF,
                   NUME_ORDRE=1,
                   NOM_CHAM='EFGE_ELNO',
                   NOM_CMP='QX',
                   MAILLE='M133',
                   GROUP_NO='D',
                   VALE=0.0,
                   CRITERE='ABSOLU',
                   PRECISION=0.01,
                   REFERENCE='ANALYTIQUE',),
                _F(RESULTAT=EFF,
                   NUME_ORDRE=1,
                   NOM_CHAM='EFGE_ELNO',
                   NOM_CMP='QY',
                   MAILLE='M133',
                   GROUP_NO='D',
                   VALE=0.0,
                   CRITERE='ABSOLU',
                   PRECISION=0.01,
                   REFERENCE='ANALYTIQUE',),
                _F(RESULTAT=EFF,
                   NUME_ORDRE=1,
                   NOM_CHAM='EFGE_ELNO',
                   NOM_CMP='NXX',
                   MAILLE='M73',
                   GROUP_NO='D1',
                   VALE=0.0,
                   CRITERE='ABSOLU',
                   PRECISION=0.01,
                   REFERENCE='ANALYTIQUE',),
                _F(RESULTAT=EFF,
                   NUME_ORDRE=1,
                   NOM_CHAM='EFGE_ELNO',
                   NOM_CMP='NYY',
                   MAILLE='M73',
                   GROUP_NO='D1',
                   VALE=0.0,
                   CRITERE='ABSOLU',
                   PRECISION=0.01,
                   REFERENCE='ANALYTIQUE',),
                _F(RESULTAT=EFF,
                   NUME_ORDRE=1,
                   NOM_CHAM='EFGE_ELNO',
                   NOM_CMP='NXY',
                   MAILLE='M73',
                   GROUP_NO='D1',
                   VALE=0.0,
                   CRITERE='ABSOLU',
                   PRECISION=0.01,
                   REFERENCE='ANALYTIQUE',),
                _F(RESULTAT=EFF,
                   NUME_ORDRE=1,
                   NOM_CHAM='EFGE_ELNO',
                   NOM_CMP='MXX',
                   MAILLE='M73',
                   GROUP_NO='D1',
                   VALE=0.0,
                   CRITERE='ABSOLU',
                   PRECISION=0.01,
                   REFERENCE='ANALYTIQUE',),
                _F(RESULTAT=EFF,
                   NUME_ORDRE=1,
                   NOM_CHAM='EFGE_ELNO',
                   NOM_CMP='MYY',
                   MAILLE='M73',
                   GROUP_NO='D1',
                   VALE=0.0,
                   CRITERE='ABSOLU',
                   PRECISION=0.01,
                   REFERENCE='ANALYTIQUE',),
                _F(RESULTAT=EFF,
                   NUME_ORDRE=1,
                   NOM_CHAM='EFGE_ELNO',
                   NOM_CMP='MXY',
                   MAILLE='M73',
                   GROUP_NO='D1',
                   VALE=0.0,
                   CRITERE='ABSOLU',
                   PRECISION=0.01,
                   REFERENCE='ANALYTIQUE',),
                _F(RESULTAT=EFF,
                   NUME_ORDRE=1,
                   NOM_CHAM='EFGE_ELNO',
                   NOM_CMP='QX',
                   MAILLE='M73',
                   GROUP_NO='D1',
                   VALE=-0.159155,
                   PRECISION=0.03,
                   REFERENCE='ANALYTIQUE',),
                _F(RESULTAT=EFF,
                   NUME_ORDRE=1,
                   NOM_CHAM='EFGE_ELNO',
                   NOM_CMP='QY',
                   MAILLE='M73',
                   GROUP_NO='D1',
                   VALE=0.0,
                   CRITERE='ABSOLU',
                   PRECISION=0.01,
                   REFERENCE='ANALYTIQUE',),
                _F(RESULTAT=EFF,
                   NUME_ORDRE=1,
                   NOM_CHAM='EFGE_ELNO',
                   NOM_CMP='QX',
                   MAILLE='M61',
                   GROUP_NO='D1',
                   VALE=-0.159155,
                   PRECISION=0.03,
                   REFERENCE='ANALYTIQUE',),
                _F(RESULTAT=EFF,
                   NUME_ORDRE=1,
                   NOM_CHAM='EFGE_ELNO',
                   NOM_CMP='QY',
                   MAILLE='M61',
                   GROUP_NO='D1',
                   VALE=0.0,
                   CRITERE='ABSOLU',
                   PRECISION=0.01,
                   REFERENCE='ANALYTIQUE',),
                _F(RESULTAT=EFF,
                   NUME_ORDRE=1,
                   NOM_CHAM='EFGE_ELNO',
                   NOM_CMP='NXX',
                   MAILLE='M1',
                   GROUP_NO='A',
                   VALE=0.0,
                   CRITERE='ABSOLU',
                   PRECISION=0.01,
                   REFERENCE='ANALYTIQUE',),
                _F(RESULTAT=EFF,
                   NUME_ORDRE=1,
                   NOM_CHAM='EFGE_ELNO',
                   NOM_CMP='NYY',
                   MAILLE='M1',
                   GROUP_NO='A',
                   VALE=0.0,
                   CRITERE='ABSOLU',
                   PRECISION=0.01,
                   REFERENCE='ANALYTIQUE',),
                _F(RESULTAT=EFF,
                   NUME_ORDRE=1,
                   NOM_CHAM='EFGE_ELNO',
                   NOM_CMP='NXY',
                   MAILLE='M1',
                   GROUP_NO='A',
                   VALE=0.0,
                   CRITERE='ABSOLU',
                   PRECISION=0.01,
                   REFERENCE='ANALYTIQUE',),
                _F(RESULTAT=EFF,
                   NUME_ORDRE=1,
                   NOM_CHAM='EFGE_ELNO',
                   NOM_CMP='MXX',
                   MAILLE='M1',
                   GROUP_NO='A',
                   VALE=0.0,
                   CRITERE='ABSOLU',
                   PRECISION=0.01,
                   REFERENCE='ANALYTIQUE',),
                _F(RESULTAT=EFF,
                   NUME_ORDRE=1,
                   NOM_CHAM='EFGE_ELNO',
                   NOM_CMP='MYY',
                   MAILLE='M1',
                   GROUP_NO='A',
                   VALE=0.0,
                   CRITERE='ABSOLU',
                   PRECISION=0.01,
                   REFERENCE='ANALYTIQUE',),
                _F(RESULTAT=EFF,
                   NUME_ORDRE=1,
                   NOM_CHAM='EFGE_ELNO',
                   NOM_CMP='MXY',
                   MAILLE='M1',
                   GROUP_NO='A',
                   VALE=0.0189978,
                   PRECISION=0.03,
                   REFERENCE='ANALYTIQUE',),
                _F(RESULTAT=EFF,
                   NUME_ORDRE=1,
                   NOM_CHAM='EFGE_ELNO',
                   NOM_CMP='QY',
                   MAILLE='M1',
                   GROUP_NO='A',
                   VALE=0.0,
                   CRITERE='ABSOLU',
                   PRECISION=0.01,
                   REFERENCE='ANALYTIQUE',),
                _F(RESULTAT=EFF,
                   NUME_ORDRE=1,
                   NOM_CHAM='EFGE_ELNO',
                   NOM_CMP='QX',
                   MAILLE='M1',
                   GROUP_NO='A',
                   VALE=0.0,
                   CRITERE='ABSOLU',
                   PRECISION=0.01,
                   REFERENCE='ANALYTIQUE',),
                _F(RESULTAT=EFF,
                   NUME_ORDRE=1,
                   NOM_CHAM='EFGE_ELNO',
                   NOM_CMP='NXX',
                   MAILLE='M12',
                   GROUP_NO='B',
                   VALE=0.0,
                   CRITERE='ABSOLU',
                   PRECISION=0.01,
                   REFERENCE='ANALYTIQUE',),
                _F(RESULTAT=EFF,
                   NUME_ORDRE=1,
                   NOM_CHAM='EFGE_ELNO',
                   NOM_CMP='NYY',
                   MAILLE='M12',
                   GROUP_NO='B',
                   VALE=0.0,
                   CRITERE='ABSOLU',
                   PRECISION=0.01,
                   REFERENCE='ANALYTIQUE',),
                _F(RESULTAT=EFF,
                   NUME_ORDRE=1,
                   NOM_CHAM='EFGE_ELNO',
                   NOM_CMP='NXY',
                   MAILLE='M12',
                   GROUP_NO='B',
                   VALE=0.0,
                   CRITERE='ABSOLU',
                   PRECISION=0.01,
                   REFERENCE='ANALYTIQUE',),
                _F(RESULTAT=EFF,
                   NUME_ORDRE=1,
                   NOM_CHAM='EFGE_ELNO',
                   NOM_CMP='MXX',
                   MAILLE='M12',
                   GROUP_NO='B',
                   VALE=0.0,
                   CRITERE='ABSOLU',
                   PRECISION=0.01,
                   REFERENCE='ANALYTIQUE',),
                _F(RESULTAT=EFF,
                   NUME_ORDRE=1,
                   NOM_CHAM='EFGE_ELNO',
                   NOM_CMP='MYY',
                   MAILLE='M12',
                   GROUP_NO='B',
                   VALE=0.0,
                   CRITERE='ABSOLU',
                   PRECISION=0.01,
                   REFERENCE='ANALYTIQUE',),
                _F(RESULTAT=EFF,
                   NUME_ORDRE=1,
                   NOM_CHAM='EFGE_ELNO',
                   NOM_CMP='MXY',
                   MAILLE='M12',
                   GROUP_NO='B',
                   VALE=-0.0189978,
                   PRECISION=0.03,
                   REFERENCE='ANALYTIQUE',),
                _F(RESULTAT=EFF,
                   NUME_ORDRE=1,
                   NOM_CHAM='EFGE_ELNO',
                   NOM_CMP='QY',
                   MAILLE='M12',
                   GROUP_NO='B',
                   VALE=0.0,
                   CRITERE='ABSOLU',
                   PRECISION=0.01,
                   REFERENCE='ANALYTIQUE',),
                _F(RESULTAT=EFF,
                   NUME_ORDRE=1,
                   NOM_CHAM='EFGE_ELNO',
                   NOM_CMP='QX',
                   MAILLE='M12',
                   GROUP_NO='B',
                   VALE=0.0,
                   CRITERE='ABSOLU',
                   PRECISION=0.01,
                   REFERENCE='ANALYTIQUE',),
                _F(RESULTAT=EFF,
                   NUME_ORDRE=1,
                   NOM_CHAM='EFGE_ELNO',
                   NOM_CMP='NXX',
                   MAILLE='M6',
                   GROUP_NO='B1',
                   VALE=0.0,
                   CRITERE='ABSOLU',
                   PRECISION=0.01,
                   REFERENCE='ANALYTIQUE',),
                _F(RESULTAT=EFF,
                   NUME_ORDRE=1,
                   NOM_CHAM='EFGE_ELNO',
                   NOM_CMP='NYY',
                   MAILLE='M6',
                   GROUP_NO='B1',
                   VALE=0.0,
                   CRITERE='ABSOLU',
                   PRECISION=0.01,
                   REFERENCE='ANALYTIQUE',),
                _F(RESULTAT=EFF,
                   NUME_ORDRE=1,
                   NOM_CHAM='EFGE_ELNO',
                   NOM_CMP='NXY',
                   MAILLE='M6',
                   GROUP_NO='B1',
                   VALE=0.0,
                   CRITERE='ABSOLU',
                   PRECISION=0.01,
                   REFERENCE='ANALYTIQUE',),
                _F(RESULTAT=EFF,
                   NUME_ORDRE=1,
                   NOM_CHAM='EFGE_ELNO',
                   NOM_CMP='MXX',
                   MAILLE='M6',
                   GROUP_NO='B1',
                   VALE=0.0,
                   CRITERE='ABSOLU',
                   PRECISION=0.01,
                   REFERENCE='ANALYTIQUE',),
                _F(RESULTAT=EFF,
                   NUME_ORDRE=1,
                   NOM_CHAM='EFGE_ELNO',
                   NOM_CMP='MYY',
                   MAILLE='M6',
                   GROUP_NO='B1',
                   VALE=0.0,
                   CRITERE='ABSOLU',
                   PRECISION=0.01,
                   REFERENCE='ANALYTIQUE',),
                _F(RESULTAT=EFF,
                   NUME_ORDRE=1,
                   NOM_CHAM='EFGE_ELNO',
                   NOM_CMP='MXY',
                   MAILLE='M6',
                   GROUP_NO='B1',
                   VALE=0.0,
                   CRITERE='ABSOLU',
                   PRECISION=0.01,
                   REFERENCE='ANALYTIQUE',),
                _F(RESULTAT=EFF,
                   NUME_ORDRE=1,
                   NOM_CHAM='EFGE_ELNO',
                   NOM_CMP='QY',
                   MAILLE='M6',
                   GROUP_NO='B1',
                   VALE=-0.159155,
                   PRECISION=0.03,
                   REFERENCE='ANALYTIQUE',),
                _F(RESULTAT=EFF,
                   NUME_ORDRE=1,
                   NOM_CHAM='EFGE_ELNO',
                   NOM_CMP='QX',
                   MAILLE='M6',
                   GROUP_NO='B1',
                   VALE=0.0,
                   CRITERE='ABSOLU',
                   PRECISION=0.01,
                   REFERENCE='ANALYTIQUE',),
                _F(RESULTAT=EFF,
                   NUME_ORDRE=1,
                   NOM_CHAM='EFGE_ELNO',
                   NOM_CMP='NXX',
                   MAILLE='M7',
                   GROUP_NO='B1',
                   VALE=0.0,
                   CRITERE='ABSOLU',
                   PRECISION=0.01,
                   REFERENCE='ANALYTIQUE',),
                _F(RESULTAT=EFF,
                   NUME_ORDRE=1,
                   NOM_CHAM='EFGE_ELNO',
                   NOM_CMP='NYY',
                   MAILLE='M7',
                   GROUP_NO='B1',
                   VALE=0.0,
                   CRITERE='ABSOLU',
                   PRECISION=0.01,
                   REFERENCE='ANALYTIQUE',),
                _F(RESULTAT=EFF,
                   NUME_ORDRE=1,
                   NOM_CHAM='EFGE_ELNO',
                   NOM_CMP='NXY',
                   MAILLE='M7',
                   GROUP_NO='B1',
                   VALE=0.0,
                   CRITERE='ABSOLU',
                   PRECISION=0.01,
                   REFERENCE='ANALYTIQUE',),
                _F(RESULTAT=EFF,
                   NUME_ORDRE=1,
                   NOM_CHAM='EFGE_ELNO',
                   NOM_CMP='MXX',
                   MAILLE='M7',
                   GROUP_NO='B1',
                   VALE=0.0,
                   CRITERE='ABSOLU',
                   PRECISION=0.01,
                   REFERENCE='ANALYTIQUE',),
                _F(RESULTAT=EFF,
                   NUME_ORDRE=1,
                   NOM_CHAM='EFGE_ELNO',
                   NOM_CMP='MYY',
                   MAILLE='M7',
                   GROUP_NO='B1',
                   VALE=0.0,
                   CRITERE='ABSOLU',
                   PRECISION=0.01,
                   REFERENCE='ANALYTIQUE',),
                _F(RESULTAT=EFF,
                   NUME_ORDRE=1,
                   NOM_CHAM='EFGE_ELNO',
                   NOM_CMP='MXY',
                   MAILLE='M7',
                   GROUP_NO='B1',
                   VALE=0.0,
                   CRITERE='ABSOLU',
                   PRECISION=0.01,
                   REFERENCE='ANALYTIQUE',),
                _F(RESULTAT=EFF,
                   NUME_ORDRE=1,
                   NOM_CHAM='EFGE_ELNO',
                   NOM_CMP='QY',
                   MAILLE='M7',
                   GROUP_NO='B1',
                   VALE=-0.159155,
                   PRECISION=0.03,
                   REFERENCE='ANALYTIQUE',),
                _F(RESULTAT=EFF,
                   NUME_ORDRE=1,
                   NOM_CHAM='EFGE_ELNO',
                   NOM_CMP='QX',
                   MAILLE='M7',
                   GROUP_NO='B1',
                   VALE=0.0,
                   CRITERE='ABSOLU',
                   PRECISION=0.01,
                   REFERENCE='ANALYTIQUE',),),);

FIN();
