# person_in_charge: jean-michel.proix at edf.fr
# TITRE HEMISPHERE DOUBLEMENT PINCE MODELISATION 300 SHB8
# ======================================================================
# COPYRIGHT (C) 1991 - 2013  EDF R&D                  WWW.CODE-ASTER.ORG
# THIS PROGRAM IS FREE SOFTWARE; YOU CAN REDISTRIBUTE IT AND/OR MODIFY
# IT UNDER THE TERMS OF THE GNU GENERAL PUBLIC LICENSE AS PUBLISHED BY
# THE FREE SOFTWARE FOUNDATION; EITHER VERSION 2 OF THE LICENSE, OR
# (AT YOUR OPTION) ANY LATER VERSION.
#
# THIS PROGRAM IS DISTRIBUTED IN THE HOPE THAT IT WILL BE USEFUL, BUT
# WITHOUT ANY WARRANTY; WITHOUT EVEN THE IMPLIED WARRANTY OF
# MERCHANTABILITY OR FITNESS FOR A PARTICULAR PURPOSE. SEE THE GNU
# GENERAL PUBLIC LICENSE FOR MORE DETAILS.
#
# YOU SHOULD HAVE RECEIVED A COPY OF THE GNU GENERAL PUBLIC LICENSE
# ALONG WITH THIS PROGRAM; IF NOT, WRITE TO EDF R&D CODE_ASTER,
#    1 AVENUE DU GENERAL DE GAULLE, 92141 CLAMART CEDEX, FRANCE.
# ======================================================================
# ELEMENT SHB8PS - A.COMBESCURE - S.BAGUET -INSA LYON 2003
#
#


DEBUT(CODE=_F(NIV_PUB_WEB='INTERNET'),DEBUG=_F(SDVERI='OUI'))

MAT=DEFI_MATERIAU(ELAS=_F(E=6.825E7,
                          NU=0.3,),);

#  300 SHB8

MAIL31=LIRE_MAILLAGE(FORMAT='MED',UNITE=21);

MAIL31=MODI_MAILLAGE(reuse=MAIL31,MAILLAGE=MAIL31,
ORIE_SHB =_F(GROUP_MA='VOLTOT'),)

MAIL31=DEFI_GROUP(reuse =MAIL31,
                MAILLAGE=MAIL31,
                CREA_GROUP_NO=(_F(GROUP_MA='SUD1',),
                               _F(GROUP_MA='SUG1',),),);


MODMEC31=AFFE_MODELE(MAILLAGE=MAIL31,
                    AFFE=_F(TOUT='OUI',
                            PHENOMENE='MECANIQUE',
                            MODELISATION='SHB',),);


CHM31=AFFE_MATERIAU(MAILLAGE=MAIL31,
                  AFFE=_F(TOUT='OUI',
                          MATER=MAT,),);


CHARG31=AFFE_CHAR_MECA(MODELE=MODMEC31,
                      DDL_IMPO=(_F(GROUP_MA=('SUD1'),
                                   DY=0.0,),
                                _F(GROUP_MA='SUG1',
                                   DX=0.0,),
                                _F(GROUP_NO='PCE',
                                   DZ=0.0,),),
                      FORCE_NODALE=(_F(GROUP_NO='PAE',
                                      FX=-2.,),
                                    _F(GROUP_NO='PBE',
                                      FY=2.,),),);

RESU31=MECA_STATIQUE(MODELE=MODMEC31,
                    CHAM_MATER=CHM31,
                    EXCIT=_F(CHARGE=CHARG31,),);

RESU31=CALC_CHAMP(reuse =RESU31,
                 CONTRAINTE=('SIGM_ELNO'),
                RESULTAT=RESU31,);

TEST_RESU(RESU=(_F(NUME_ORDRE=1,
                   GROUP_NO='PAE',
                   REFERENCE='SOURCE_EXTERNE',
                   RESULTAT=RESU31,
                   NOM_CHAM='DEPL',
                   NOM_CMP='DX',
                   VALE_CALC=-0.184837630,
                   VALE_REFE=-0.185,
                   PRECISION=1.E-3,),
                _F(NUME_ORDRE=1,
                   GROUP_NO='PBE',
                   REFERENCE='SOURCE_EXTERNE',
                   RESULTAT=RESU31,
                   NOM_CHAM='DEPL',
                   NOM_CMP='DY',
                   VALE_CALC=0.184837758,
                   VALE_REFE=0.185,
                   PRECISION=1.E-3,),
                ),
          )

FIN()
