# MODIF  DATE 17/01/2012   AUTEUR SELLENET N.SELLENET 
# TITRE COQUE CYLINDRIQUE PINCEE A BORDS LIBRES
#            CONFIGURATION MANAGEMENT OF EDF VERSION
# ======================================================================
# COPYRIGHT (C) 1991 - 2012  EDF R&D                  WWW.CODE-ASTER.ORG
# THIS PROGRAM IS FREE SOFTWARE; YOU CAN REDISTRIBUTE IT AND/OR MODIFY
# IT UNDER THE TERMS OF THE GNU GENERAL PUBLIC LICENSE AS PUBLISHED BY
# THE FREE SOFTWARE FOUNDATION; EITHER VERSION 2 OF THE LICENSE, OR
# (AT YOUR OPTION) ANY LATER VERSION.
#
# THIS PROGRAM IS DISTRIBUTED IN THE HOPE THAT IT WILL BE USEFUL, BUT
# WITHOUT ANY WARRANTY; WITHOUT EVEN THE IMPLIED WARRANTY OF
# MERCHANTABILITY OR FITNESS FOR A PARTICULAR PURPOSE. SEE THE GNU
# GENERAL PUBLIC LICENSE FOR MORE DETAILS.
#
# YOU SHOULD HAVE RECEIVED A COPY OF THE GNU GENERAL PUBLIC LICENSE
# ALONG WITH THIS PROGRAM; IF NOT, WRITE TO EDF R&D CODE_ASTER,
#    1 AVENUE DU GENERAL DE GAULLE, 92141 CLAMART CEDEX, FRANCE.
# ======================================================================

DEBUT(CODE=_F(NOM='SSLS20B',NIV_PUB_WEB='INTERNET'),DEBUG=_F(SDVERI='OUI'))

# COQUE CYLINDRIQUE PINCEE A BORDS LIBRES
# MAILLAGE 1/8 DE CYLINDRE
#                                                 REF:SFM.VPCS SSLS20
# MODELISATION MEC3QU9H:  65 NOEUDS --  16 MAILLES QUAD9
#


MATERI_1=DEFI_MATERIAU( ELAS=_F(  E = 10.5E+6,      NU = 0.3125) )

MAILLA_1=LIRE_MAILLAGE(FORMAT='MED',   )

MAILLA_1=DEFI_GROUP( reuse=MAILLA_1,   MAILLAGE=MAILLA_1,
  CREA_GROUP_MA=_F(  NOM = 'TOUT', TOUT = 'OUI'))

CH_MAT_1=AFFE_MATERIAU(  MAILLAGE=MAILLA_1,
                            AFFE=_F(  TOUT = 'OUI',   MATER = MATERI_1) )

MODELE_1=AFFE_MODELE(  MAILLAGE=MAILLA_1, VERIF='MAILLE',
                     AFFE=_F( TOUT = 'OUI', MODELISATION = 'COQUE_3D',
                                PHENOMENE = 'MECANIQUE') )

CHARGE_1=AFFE_CHAR_MECA(MODELE=MODELE_1,DDL_IMPO=(
                  _F( GROUP_NO = 'AB',       DZ = 0.,
                                              DRX = 0., DRY = 0.),
                           _F( GROUP_NO = 'ADSANSA',  DX = 0.,
                                              DRY = 0., DRZ = 0.),
                           _F( GROUP_NO = 'BCSANSB',  DY = 0.,
                                              DRX = 0., DRZ = 0.),
                           _F( GROUP_NO = 'A',        DX = 0.,
                                              DRZ = 0.),
                           _F( GROUP_NO = 'B',        DY = 0.,
                                              DRZ = 0.)),
                  FORCE_NODALE=_F(  GROUP_NO = 'A',  FY = -25.) )

CARAC__1=AFFE_CARA_ELEM(   MODELE=MODELE_1,
                               COQUE=_F(
       GROUP_MA = 'TOUT',
  EPAIS = 0.094,
                                  A_CIS = 0.83333333333333) )

MATELE_1=CALC_MATR_ELEM(   MODELE=MODELE_1,     CHARGE=CHARGE_1,
                               CARA_ELEM=CARAC__1,
                               CHAM_MATER=CH_MAT_1,
                               OPTION='RIGI_MECA' )

VEL=CALC_VECT_ELEM(   CHARGE=CHARGE_1,  OPTION='CHAR_MECA' )

NU=NUME_DDL(   MATR_RIGI=MATELE_1 )

MATASS=ASSE_MATRICE(   MATR_ELEM=MATELE_1,   NUME_DDL=NU )

VECASS=ASSE_VECTEUR(   VECT_ELEM=VEL,        NUME_DDL=NU )

MATASS=FACTORISER( reuse=MATASS,  MATR_ASSE=MATASS )

VECASS=RESOUDRE(reuse=VECASS, MATR=MATASS,     CHAM_NO=VECASS)

TEST_RESU(
            CHAM_NO=_F(  CHAM_GD = VECASS,  CRITERE = 'RELATIF',  PRECISION = 3.E-2,
              GROUP_NO = 'A',       NOM_CMP = 'DY',           VALE = -0.1139)
             )

FIN()
#
