# TITRE COQUE CYLINDRIQUE PINCEE AVEC DIAPHRAGMES
# ======================================================================
# COPYRIGHT (C) 1991 - 2012  EDF R&D                  WWW.CODE-ASTER.ORG
# THIS PROGRAM IS FREE SOFTWARE; YOU CAN REDISTRIBUTE IT AND/OR MODIFY
# IT UNDER THE TERMS OF THE GNU GENERAL PUBLIC LICENSE AS PUBLISHED BY
# THE FREE SOFTWARE FOUNDATION; EITHER VERSION 2 OF THE LICENSE, OR
# (AT YOUR OPTION) ANY LATER VERSION.
#
# THIS PROGRAM IS DISTRIBUTED IN THE HOPE THAT IT WILL BE USEFUL, BUT
# WITHOUT ANY WARRANTY; WITHOUT EVEN THE IMPLIED WARRANTY OF
# MERCHANTABILITY OR FITNESS FOR A PARTICULAR PURPOSE. SEE THE GNU
# GENERAL PUBLIC LICENSE FOR MORE DETAILS.
#
# YOU SHOULD HAVE RECEIVED A COPY OF THE GNU GENERAL PUBLIC LICENSE
# ALONG WITH THIS PROGRAM; IF NOT, WRITE TO EDF R&D CODE_ASTER,
#    1 AVENUE DU GENERAL DE GAULLE, 92141 CLAMART CEDEX, FRANCE.
# ======================================================================

DEBUT(CODE=_F(NOM='SSLS104C',NIV_PUB_WEB='INTERNET'),DEBUG=_F(SDVERI='OUI'))

# COQUE CYLINDRIQUE PINCEE AVEC DIAPHRAGMES
# MAILLAGE 1/8 DE CYLINDRE
#
# MODELISATION MEC3TR7H: 777 NOEUDS -- 360 MAILLES TRIA7
#=======================================================================
#


MATERI_1=DEFI_MATERIAU( ELAS=_F(  E = 3.00E+6,      NU = 0.3000) )

MAILLA_1=LIRE_MAILLAGE(FORMAT='MED',   )

MAILLA_1=DEFI_GROUP( reuse=MAILLA_1,   MAILLAGE=MAILLA_1,
  CREA_GROUP_MA=_F(  NOM = 'TOUT', TOUT = 'OUI'))

CH_MAT_1=AFFE_MATERIAU(  MAILLAGE=MAILLA_1,
                            AFFE=_F(  TOUT = 'OUI',   MATER = MATERI_1) )

MODELE_1=AFFE_MODELE(  MAILLAGE=MAILLA_1, VERIF='MAILLE',
                     AFFE=_F( TOUT = 'OUI', MODELISATION = 'COQUE_3D',
                                PHENOMENE = 'MECANIQUE') )

CHARGE_1=AFFE_CHAR_MECA(MODELE=MODELE_1,DDL_IMPO=(
                  _F( GROUP_NO = 'AB',       DX = 0.,  DY = 0.,
                                                     DRZ = 0.),
                           _F( GROUP_NO = 'CD',       DZ = 0.,
                                              DRX = 0., DRY = 0.),
                           _F( GROUP_NO = 'BCSANSBC', DX = 0.,
                                              DRY = 0., DRZ = 0.),
                           _F( GROUP_NO = 'ADSANSAD', DY = 0.,
                                              DRX = 0., DRZ = 0.),
                           _F( GROUP_NO = 'C',        DX = 0., DRZ = 0.),
                           _F( GROUP_NO = 'D',        DY = 0., DRZ = 0.)),
                  FORCE_NODALE=_F(  GROUP_NO = 'C',  FY = -0.25) )

CARAC__1=AFFE_CARA_ELEM(   MODELE=MODELE_1,
                               COQUE=_F(
       GROUP_MA = 'TOUT',
  EPAIS = 3.000,
                                  A_CIS = 0.83333333333333) )

MATELE_1=CALC_MATR_ELEM(   MODELE=MODELE_1,     CHARGE=CHARGE_1,
                               CARA_ELEM=CARAC__1,
                               CHAM_MATER=CH_MAT_1,
                               OPTION='RIGI_MECA' )

VEL=CALC_VECT_ELEM(   CHARGE=CHARGE_1,  OPTION='CHAR_MECA' )

NU=NUME_DDL(   MATR_RIGI=MATELE_1 )

MATASS=ASSE_MATRICE(   MATR_ELEM=MATELE_1,   NUME_DDL=NU )

VECASS=ASSE_VECTEUR(   VECT_ELEM=VEL,        NUME_DDL=NU )

MATASS=FACTORISER( reuse=MATASS,  MATR_ASSE=MATASS )

VECASS=RESOUDRE(reuse=VECASS, MATR=MATASS,     CHAM_NO=VECASS)

TEST_RESU(CHAM_NO=_F(CRITERE='RELATIF',
                     NOM_CMP='DY',
                     GROUP_NO='C',
                     PRECISION=0.050000000000000003,
                     CHAM_GD=VECASS,
                     VALE_CALC=-1.7424533973797E-05,
                     VALE_REFE=-1.8247999999999999E-05,
                     REFERENCE='NON_DEFINI',),
          )

#---------------------------------------------------------------------
FIN()
#
