# TITRE  PLAQUE CARREE EN APPUI SIMPLE SOUS PRESSION SINUSOIDALE
# ======================================================================
# COPYRIGHT (C) 1991 - 2013  EDF R&D                  WWW.CODE-ASTER.ORG
# THIS PROGRAM IS FREE SOFTWARE; YOU CAN REDISTRIBUTE IT AND/OR MODIFY
# IT UNDER THE TERMS OF THE GNU GENERAL PUBLIC LICENSE AS PUBLISHED BY
# THE FREE SOFTWARE FOUNDATION; EITHER VERSION 2 OF THE LICENSE, OR
# (AT YOUR OPTION) ANY LATER VERSION.
#
# THIS PROGRAM IS DISTRIBUTED IN THE HOPE THAT IT WILL BE USEFUL, BUT
# WITHOUT ANY WARRANTY; WITHOUT EVEN THE IMPLIED WARRANTY OF
# MERCHANTABILITY OR FITNESS FOR A PARTICULAR PURPOSE. SEE THE GNU
# GENERAL PUBLIC LICENSE FOR MORE DETAILS.
#
# YOU SHOULD HAVE RECEIVED A COPY OF THE GNU GENERAL PUBLIC LICENSE
# ALONG WITH THIS PROGRAM; IF NOT, WRITE TO EDF R&D CODE_ASTER,
#    1 AVENUE DU GENERAL DE GAULLE, 92141 CLAMART CEDEX, FRANCE.
# ======================================================================
#---------------------------------------------------------------------
#         - MODELISATION AVEC DES ELEMENTS QUAD8 'COQUE_3D'
#---------------------------------------------------------------------
#
DEBUT(CODE=_F(NOM='SSLS118F',NIV_PUB_WEB='INTERNET'),DEBUG=_F(SDVERI='OUI'))
MA=LIRE_MAILLAGE(FORMAT='MED',);

MAIL=CREA_MAILLAGE(MAILLAGE=MA,
                     MODI_MAILLE=_F(OPTION='QUAD8_9',
                                    TOUT='OUI',),);
MAIL=DEFI_GROUP(reuse =MAIL,
              CREA_GROUP_MA=_F(TOUT='OUI',
                               NOM='TOUT',),
              MAILLAGE=MAIL,
              CREA_GROUP_NO=(_F(GROUP_MA='AB',),
                             _F(GROUP_MA='BC',),
                             _F(GROUP_MA='CD',),
                             _F(GROUP_MA='DA',),),);
MO=AFFE_MODELE(AFFE=_F(TOUT='OUI',
                       PHENOMENE='MECANIQUE',
                       MODELISATION='COQUE_3D',),
               MAILLAGE=MAIL,);

MA=MODI_MAILLAGE( reuse=MA,
                  MAILLAGE=MA,
                  ORIE_NORM_COQUE=_F(  VECT_NORM = (0., 0., 1.,),
                                       GROUP_NO = 'O',
                                       GROUP_MA = 'MAIL1'),
                                       INFO=2
                                       )
CAR_ELE=AFFE_CARA_ELEM(MODELE=MO,
                       COQUE=_F(ANGL_REP=(0.0,0.0),
                                GROUP_MA='TOUT',
                                EPAIS=0.1,),);
MAT=DEFI_MATERIAU(ELAS=_F(NU=0.25,
                          E=25.0,),);
CHAM_MAT=AFFE_MATERIAU(AFFE=_F(MATER=MAT,
                               TOUT='OUI',),
                       MAILLAGE=MAIL,);
PO=1.0
P=FORMULE(NOM_PARA=('X','Y'),VALE='PO*sin(pi*X)*sin(pi*Y)');

CHA=AFFE_CHAR_MECA(DDL_IMPO=(_F(DX=0.0,
                                DY=0.0,
                                GROUP_NO='O',
                                DRZ=0.0,
                                DRX=0.0,
                                DRY=0.0,),
                             _F(DZ=0.0,
                                DX=0.0,
                                GROUP_NO='AB',
                                DRY=0.0,),
                             _F(DZ=0.0,
                                DY=0.0,
                                GROUP_NO='BC',
                                DRX=0.0,),
                             _F(DZ=0.0,
                                DX=0.0,
                                GROUP_NO='CD',
                                DRY=0.0,),
                             _F(DZ=0.0,
                                DY=0.0,
                                GROUP_NO='DA',
                                DRX=0.0,),),
                   MODELE=MO,
                   FORCE_ARETE=(_F(MY=0.0,
                                   GROUP_MA='AB',),
                                _F(MY=0.0,
                                   GROUP_MA='CD',),
                                _F(MX=0.0,
                                   GROUP_MA='BC',),
                                _F(MX=0.0,
                                   GROUP_MA='DA',),),);
CHA_P=AFFE_CHAR_MECA_F(MODELE=MO,
                       FORCE_COQUE=_F(PRES=P,
                                      GROUP_MA='MAIL1',),);
RESU=MECA_STATIQUE(CHAM_MATER=CHAM_MAT,
                   MODELE=MO,
                   CARA_ELEM=CAR_ELE,
                   EXCIT=(_F(CHARGE=CHA,),
                          _F(CHARGE=CHA_P,),),);



RESU=CALC_CHAMP(reuse=RESU,RESULTAT=RESU,CONTRAINTE=('SIGM_ELNO'))


SIG_C1_S=POST_CHAMP(RESULTAT=RESU,
                     EXTR_COQUE=_F(NOM_CHAM='SIGM_ELNO',
                                   NUME_COUCHE=1,
                                   NIVE_COUCHE='SUP',),);
SIG_C1_M=POST_CHAMP(RESULTAT=RESU,
                     EXTR_COQUE=_F(NOM_CHAM='SIGM_ELNO',
                                   NUME_COUCHE=1,
                                   NIVE_COUCHE='MOY',),);
SIG_C1_I=POST_CHAMP(RESULTAT=RESU,
                     EXTR_COQUE=_F(NOM_CHAM='SIGM_ELNO',
                                   NUME_COUCHE=1,
                                   NIVE_COUCHE='INF',),);
EFF=CALC_CHAMP(RESULTAT=RESU,CONTRAINTE=('EFGE_ELNO'))


SIGG=CALC_CHAMP(RESULTAT=RESU,CONTRAINTE=('EFGE_ELNO'))


DEGE=CALC_CHAMP(RESULTAT=RESU,DEFORMATION=('DEGE_ELNO','DEGE_ELGA'))

TEST_RESU(RESU=(_F(NUME_ORDRE=1,
                   GROUP_NO='O',
                   MAILLE ='M66',
                   REFERENCE='ANALYTIQUE',
                   RESULTAT=DEGE,
                   NOM_CHAM='DEGE_ELNO',
                   NOM_CMP='KXX',
                   VALE_CALC=-11.518420322215,
                   VALE_REFE=-11.39863316,
                   PRECISION= 0.032),
                _F(NUME_ORDRE=1,
                   GROUP_NO='O',
                   MAILLE ='M66',
                   REFERENCE='ANALYTIQUE',
                   RESULTAT=DEGE,
                   NOM_CHAM='DEGE_ELNO',
                   NOM_CMP='KYY',
                   VALE_CALC=-11.518420322215,
                   VALE_REFE=-11.39863316,
                   PRECISION= 0.032),
                _F(NUME_ORDRE=1,
                   GROUP_NO='O',
                   MAILLE ='M66',
                   REFERENCE='ANALYTIQUE',
                   RESULTAT=DEGE,
                   NOM_CHAM='DEGE_ELNO',
                   NOM_CMP='KXY',
                   VALE_CALC=0.044168672070676,
                   VALE_REFE=0.,
                   PRECISION= 0.05,
                   CRITERE='ABSOLU'),
               ))

TEST_RESU(RESU=(_F(NUME_ORDRE=1,
                   POINT=9,
                   MAILLE ='M66',
                   REFERENCE='NON_DEFINI',
                   RESULTAT=DEGE,
                   NOM_CHAM='DEGE_ELGA',
                   NOM_CMP='KXX',
                   VALE_CALC=-11.171955063076,
                   VALE_REFE=-11.171955063076,
                   PRECISION= 1.E-10),
                _F(NUME_ORDRE=1,
                   POINT=9,
                   MAILLE ='M66',
                   REFERENCE='NON_DEFINI',
                   RESULTAT=DEGE,
                   NOM_CHAM='DEGE_ELGA',
                   NOM_CMP='KYY',
                   VALE_CALC=-11.171955063076,
                   VALE_REFE=-11.171955063076,
                   PRECISION= 1.E-10),
                _F(NUME_ORDRE=1,
                   POINT=9,
                   MAILLE ='M66',
                   REFERENCE='NON_DEFINI',
                   RESULTAT=DEGE,
                   NOM_CHAM='DEGE_ELGA',
                   NOM_CMP='KXY',
                   VALE_CALC=0.38728163301681,
                   VALE_REFE=0.38728163301681,
                   PRECISION= 1.E-10),
               ))

TEST_RESU(RESU=(_F(NUME_ORDRE=1,
                   GROUP_NO='O',
                   REFERENCE='ANALYTIQUE',
                   RESULTAT=RESU,
                   NOM_CHAM='DEPL',
                   NOM_CMP='DZ',
                   VALE_CALC=-1.215634521,
                   VALE_REFE=-1.1549229999999999,
                   PRECISION=0.052999999999999999,),
                _F(NUME_ORDRE=1,
                   GROUP_NO='O',
                   REFERENCE='ANALYTIQUE',
                   RESULTAT=SIG_C1_I,
                   NOM_CHAM='SIGM_ELNO',
                   NOM_CMP='SIXX',
                   VALE_CALC=19.201621704,
                   VALE_REFE=18.997199999999999,
                   PRECISION=0.02,
                   MAILLE='M78',),
                _F(NUME_ORDRE=1,
                   GROUP_NO='O',
                   REFERENCE='ANALYTIQUE',
                   RESULTAT=SIG_C1_I,
                   NOM_CHAM='SIGM_ELNO',
                   NOM_CMP='SIYY',
                   VALE_CALC=19.201621704,
                   VALE_REFE=18.997199999999999,
                   PRECISION=0.050000000000000003,
                   MAILLE='M78',),
                _F(NUME_ORDRE=1,
                   GROUP_NO='O',
                   REFERENCE='ANALYTIQUE',
                   RESULTAT=SIG_C1_I,
                   NOM_CHAM='SIGM_ELNO',
                   NOM_CMP='SIXY',
                   VALE_CALC= 3.00718656E-06,
                   VALE_REFE=0.0,
                   CRITERE='ABSOLU',
                   PRECISION=0.59999999999999998,
                   MAILLE='M78',),
                _F(NUME_ORDRE=1,
                   GROUP_NO='O',
                   REFERENCE='ANALYTIQUE',
                   RESULTAT=SIG_C1_I,
                   NOM_CHAM='SIGM_ELNO',
                   NOM_CMP='SIXZ',
                   VALE_CALC=-4.51067401E-04,
                   VALE_REFE=0.0,
                   CRITERE='ABSOLU',
                   PRECISION=0.059999999999999998,
                   MAILLE='M78',),
                _F(NUME_ORDRE=1,
                   GROUP_NO='O',
                   REFERENCE='ANALYTIQUE',
                   RESULTAT=SIG_C1_I,
                   NOM_CHAM='SIGM_ELNO',
                   NOM_CMP='SIYZ',
                   VALE_CALC= 4.51067401E-04,
                   VALE_REFE=0.0,
                   CRITERE='ABSOLU',
                   PRECISION=0.20000000000000001,
                   MAILLE='M78',),
                _F(NUME_ORDRE=1,
                   GROUP_NO='O',
                   REFERENCE='ANALYTIQUE',
                   RESULTAT=SIG_C1_M,
                   NOM_CHAM='SIGM_ELNO',
                   NOM_CMP='SIXX',
                   VALE_CALC=-3.29487155E-15,
                   VALE_REFE=0.0,
                   CRITERE='ABSOLU',
                   PRECISION=1.E-2,
                   MAILLE='M78',),
                _F(NUME_ORDRE=1,
                   GROUP_NO='O',
                   REFERENCE='ANALYTIQUE',
                   RESULTAT=SIG_C1_M,
                   NOM_CHAM='SIGM_ELNO',
                   NOM_CMP='SIYY',
                   VALE_CALC=-3.14109220E-15,
                   VALE_REFE=0.0,
                   CRITERE='ABSOLU',
                   PRECISION=1.E-2,
                   MAILLE='M78',),
                _F(NUME_ORDRE=1,
                   GROUP_NO='O',
                   REFERENCE='ANALYTIQUE',
                   RESULTAT=SIG_C1_M,
                   NOM_CHAM='SIGM_ELNO',
                   NOM_CMP='SIXY',
                   VALE_CALC= 1.86004299E-15,
                   VALE_REFE=0.0,
                   CRITERE='ABSOLU',
                   PRECISION=1.E-2,
                   MAILLE='M78',),
                _F(NUME_ORDRE=1,
                   GROUP_NO='O',
                   REFERENCE='ANALYTIQUE',
                   RESULTAT=SIG_C1_M,
                   NOM_CHAM='SIGM_ELNO',
                   NOM_CMP='SIXZ',
                   VALE_CALC=-4.51067401E-04,
                   VALE_REFE=0.0,
                   CRITERE='ABSOLU',
                   PRECISION=0.10000000000000001,
                   MAILLE='M78',),
                _F(NUME_ORDRE=1,
                   GROUP_NO='O',
                   REFERENCE='ANALYTIQUE',
                   RESULTAT=SIG_C1_M,
                   NOM_CHAM='SIGM_ELNO',
                   NOM_CMP='SIYZ',
                   VALE_CALC= 4.51067401E-04,
                   VALE_REFE=0.0,
                   CRITERE='ABSOLU',
                   PRECISION=0.20000000000000001,
                   MAILLE='M78',),
                _F(NUME_ORDRE=1,
                   GROUP_NO='O',
                   REFERENCE='ANALYTIQUE',
                   RESULTAT=SIG_C1_S,
                   NOM_CHAM='SIGM_ELNO',
                   NOM_CMP='SIXX',
                   VALE_CALC=-19.201621704,
                   VALE_REFE=-18.997199999999999,
                   PRECISION=0.02,
                   MAILLE='M78',),
                _F(NUME_ORDRE=1,
                   GROUP_NO='O',
                   REFERENCE='ANALYTIQUE',
                   RESULTAT=SIG_C1_S,
                   NOM_CHAM='SIGM_ELNO',
                   NOM_CMP='SIYY',
                   VALE_CALC=-19.201621704,
                   VALE_REFE=-18.997199999999999,
                   PRECISION=0.050000000000000003,
                   MAILLE='M78',),
                _F(NUME_ORDRE=1,
                   GROUP_NO='O',
                   REFERENCE='ANALYTIQUE',
                   RESULTAT=SIG_C1_S,
                   NOM_CHAM='SIGM_ELNO',
                   NOM_CMP='SIXY',
                   VALE_CALC=-3.00718656E-06,
                   VALE_REFE=0.0,
                   CRITERE='ABSOLU',
                   PRECISION=0.59999999999999998,
                   MAILLE='M78',),
                _F(NUME_ORDRE=1,
                   GROUP_NO='O',
                   REFERENCE='ANALYTIQUE',
                   RESULTAT=SIG_C1_S,
                   NOM_CHAM='SIGM_ELNO',
                   NOM_CMP='SIXZ',
                   VALE_CALC=-4.51067401E-04,
                   VALE_REFE=0.0,
                   CRITERE='ABSOLU',
                   PRECISION=0.059999999999999998,
                   MAILLE='M78',),
                _F(NUME_ORDRE=1,
                   GROUP_NO='O',
                   REFERENCE='ANALYTIQUE',
                   RESULTAT=SIG_C1_S,
                   NOM_CHAM='SIGM_ELNO',
                   NOM_CMP='SIYZ',
                   VALE_CALC= 4.51067401E-04,
                   VALE_REFE=0.0,
                   CRITERE='ABSOLU',
                   PRECISION=0.20000000000000001,
                   MAILLE='M78',),
                _F(NUME_ORDRE=1,
                   GROUP_NO='B1',
                   REFERENCE='ANALYTIQUE',
                   RESULTAT=SIG_C1_I,
                   NOM_CHAM='SIGM_ELNO',
                   NOM_CMP='SIXX',
                   VALE_CALC=0.013265686,
                   VALE_REFE=0.0,
                   CRITERE='ABSOLU',
                   PRECISION=0.050000000000000003,
                   MAILLE='M6',),
                _F(NUME_ORDRE=1,
                   GROUP_NO='B1',
                   REFERENCE='ANALYTIQUE',
                   RESULTAT=SIG_C1_I,
                   NOM_CHAM='SIGM_ELNO',
                   NOM_CMP='SIYY',
                   VALE_CALC=0.014830284,
                   VALE_REFE=0.0,
                   CRITERE='ABSOLU',
                   PRECISION=0.050000000000000003,
                   MAILLE='M6',),
                _F(NUME_ORDRE=1,
                   GROUP_NO='B1',
                   REFERENCE='ANALYTIQUE',
                   RESULTAT=SIG_C1_I,
                   NOM_CHAM='SIGM_ELNO',
                   NOM_CMP='SIXY',
                   VALE_CALC=-0.010340560,
                   VALE_REFE=0.0,
                   CRITERE='ABSOLU',
                   PRECISION=0.050000000000000003,
                   MAILLE='M6',),
                _F(NUME_ORDRE=1,
                   GROUP_NO='B1',
                   REFERENCE='ANALYTIQUE',
                   RESULTAT=SIG_C1_I,
                   NOM_CHAM='SIGM_ELNO',
                   NOM_CMP='SIXZ',
                   VALE_CALC=-3.08054597E-03,
                   VALE_REFE=0.0,
                   CRITERE='ABSOLU',
                   PRECISION=1.E-2,
                   MAILLE='M6',),
                _F(NUME_ORDRE=1,
                   GROUP_NO='B1',
                   REFERENCE='ANALYTIQUE',
                   RESULTAT=SIG_C1_I,
                   NOM_CHAM='SIGM_ELNO',
                   NOM_CMP='SIYZ',
                   VALE_CALC=-1.609616559,
                   VALE_REFE=0.0,
                   CRITERE='ABSOLU',
                   PRECISION=2.0,
                   MAILLE='M6',),
                _F(NUME_ORDRE=1,
                   GROUP_NO='B1',
                   REFERENCE='ANALYTIQUE',
                   RESULTAT=SIG_C1_M,
                   NOM_CHAM='SIGM_ELNO',
                   NOM_CMP='SIXX',
                   VALE_CALC= 5.56579307E-16,
                   VALE_REFE=0.0,
                   CRITERE='ABSOLU',
                   PRECISION=1.E-2,
                   MAILLE='M6',),
                _F(NUME_ORDRE=1,
                   GROUP_NO='B1',
                   REFERENCE='ANALYTIQUE',
                   RESULTAT=SIG_C1_M,
                   NOM_CHAM='SIGM_ELNO',
                   NOM_CMP='SIYY',
                   VALE_CALC= 5.60212513E-15,
                   VALE_REFE=0.0,
                   CRITERE='ABSOLU',
                   PRECISION=1.E-2,
                   MAILLE='M6',),
                _F(NUME_ORDRE=1,
                   GROUP_NO='B1',
                   REFERENCE='ANALYTIQUE',
                   RESULTAT=SIG_C1_M,
                   NOM_CHAM='SIGM_ELNO',
                   NOM_CMP='SIXY',
                   VALE_CALC= 8.98022426E-16,
                   VALE_REFE=0.0,
                   CRITERE='ABSOLU',
                   PRECISION=1.E-2,
                   MAILLE='M6',),
                _F(NUME_ORDRE=1,
                   GROUP_NO='B1',
                   REFERENCE='ANALYTIQUE',
                   RESULTAT=SIG_C1_M,
                   NOM_CHAM='SIGM_ELNO',
                   NOM_CMP='SIXZ',
                   VALE_CALC=-3.08054597E-03,
                   VALE_REFE=0.0,
                   CRITERE='ABSOLU',
                   PRECISION=0.26000000000000001,
                   MAILLE='M6',),
                _F(NUME_ORDRE=1,
                   GROUP_NO='B1',
                   REFERENCE='ANALYTIQUE',
                   RESULTAT=SIG_C1_M,
                   NOM_CHAM='SIGM_ELNO',
                   NOM_CMP='SIYZ',
                   VALE_CALC=-1.609616559,
                   VALE_REFE=-2.3873000000000002,
                   PRECISION=0.34999999999999998,
                   MAILLE='M6',),
                _F(NUME_ORDRE=1,
                   GROUP_NO='B1',
                   REFERENCE='ANALYTIQUE',
                   RESULTAT=SIG_C1_S,
                   NOM_CHAM='SIGM_ELNO',
                   NOM_CMP='SIXX',
                   VALE_CALC=-0.013265686,
                   VALE_REFE=0.0,
                   CRITERE='ABSOLU',
                   PRECISION=0.050000000000000003,
                   MAILLE='M6',),
                _F(NUME_ORDRE=1,
                   GROUP_NO='B1',
                   REFERENCE='ANALYTIQUE',
                   RESULTAT=SIG_C1_S,
                   NOM_CHAM='SIGM_ELNO',
                   NOM_CMP='SIYY',
                   VALE_CALC=-0.014830284,
                   VALE_REFE=0.0,
                   CRITERE='ABSOLU',
                   PRECISION=0.050000000000000003,
                   MAILLE='M6',),
                _F(NUME_ORDRE=1,
                   GROUP_NO='B1',
                   REFERENCE='ANALYTIQUE',
                   RESULTAT=SIG_C1_S,
                   NOM_CHAM='SIGM_ELNO',
                   NOM_CMP='SIXY',
                   VALE_CALC=0.010340560,
                   VALE_REFE=0.0,
                   CRITERE='ABSOLU',
                   PRECISION=0.050000000000000003,
                   MAILLE='M6',),
                _F(NUME_ORDRE=1,
                   GROUP_NO='B1',
                   REFERENCE='ANALYTIQUE',
                   RESULTAT=SIG_C1_S,
                   NOM_CHAM='SIGM_ELNO',
                   NOM_CMP='SIXZ',
                   VALE_CALC=-3.08054597E-03,
                   VALE_REFE=0.0,
                   CRITERE='ABSOLU',
                   PRECISION=1.E-2,
                   MAILLE='M6',),
                _F(NUME_ORDRE=1,
                   GROUP_NO='B1',
                   REFERENCE='ANALYTIQUE',
                   RESULTAT=SIG_C1_S,
                   NOM_CHAM='SIGM_ELNO',
                   NOM_CMP='SIYZ',
                   VALE_CALC=-1.609616559,
                   VALE_REFE=0.0,
                   CRITERE='ABSOLU',
                   PRECISION=2.0,
                   MAILLE='M6',),
                _F(NUME_ORDRE=1,
                   GROUP_NO='O',
                   REFERENCE='ANALYTIQUE',
                   RESULTAT=EFF,
                   NOM_CHAM='EFGE_ELNO',
                   NOM_CMP='NXX',
                   VALE_CALC=-4.18966845E-16,
                   VALE_REFE=0.0,
                   CRITERE='ABSOLU',
                   PRECISION=1.E-2,
                   MAILLE='M78',),
                _F(NUME_ORDRE=1,
                   GROUP_NO='O',
                   REFERENCE='ANALYTIQUE',
                   RESULTAT=EFF,
                   NOM_CHAM='EFGE_ELNO',
                   NOM_CMP='NYY',
                   VALE_CALC=-2.98223989E-16,
                   VALE_REFE=0.0,
                   CRITERE='ABSOLU',
                   PRECISION=1.E-2,
                   MAILLE='M78',),
                _F(NUME_ORDRE=1,
                   GROUP_NO='O',
                   REFERENCE='ANALYTIQUE',
                   RESULTAT=EFF,
                   NOM_CHAM='EFGE_ELNO',
                   NOM_CMP='NXY',
                   VALE_CALC= 1.67451004E-16,
                   VALE_REFE=0.0,
                   CRITERE='ABSOLU',
                   PRECISION=1.E-2,
                   MAILLE='M78',),
                _F(NUME_ORDRE=1,
                   GROUP_NO='O',
                   REFERENCE='ANALYTIQUE',
                   RESULTAT=EFF,
                   NOM_CHAM='EFGE_ELNO',
                   NOM_CMP='MXX',
                   VALE_CALC=-0.032020629,
                   VALE_REFE=-0.031662900000000001,
                   PRECISION=0.02,
                   MAILLE='M78',),
                _F(NUME_ORDRE=1,
                   GROUP_NO='O',
                   REFERENCE='ANALYTIQUE',
                   RESULTAT=EFF,
                   NOM_CHAM='EFGE_ELNO',
                   NOM_CMP='MYY',
                   VALE_CALC=-0.032020629,
                   VALE_REFE=-0.031662900000000001,
                   PRECISION=0.050000000000000003,
                   MAILLE='M78',),
                _F(NUME_ORDRE=1,
                   GROUP_NO='O',
                   REFERENCE='ANALYTIQUE',
                   RESULTAT=EFF,
                   NOM_CHAM='EFGE_ELNO',
                   NOM_CMP='MXY',
                   VALE_CALC=-5.56886384E-09,
                   VALE_REFE=0.0,
                   CRITERE='ABSOLU',
                   PRECISION=1.E-2,
                   MAILLE='M78',),
                _F(NUME_ORDRE=1,
                   GROUP_NO='O',
                   REFERENCE='ANALYTIQUE',
                   RESULTAT=EFF,
                   NOM_CHAM='EFGE_ELNO',
                   NOM_CMP='QX',
                   VALE_CALC=-4.51067401E-05,
                   VALE_REFE=0.0,
                   CRITERE='ABSOLU',
                   PRECISION=0.021000000000000001,
                   MAILLE='M78',),
                _F(NUME_ORDRE=1,
                   GROUP_NO='O',
                   REFERENCE='ANALYTIQUE',
                   RESULTAT=EFF,
                   NOM_CHAM='EFGE_ELNO',
                   NOM_CMP='QY',
                   VALE_CALC= 4.51067401E-05,
                   VALE_REFE=0.0,
                   CRITERE='ABSOLU',
                   PRECISION=0.021000000000000001,
                   MAILLE='M78',),
                _F(NUME_ORDRE=1,
                   GROUP_NO='O',
                   REFERENCE='ANALYTIQUE',
                   RESULTAT=EFF,
                   NOM_CHAM='EFGE_ELNO',
                   NOM_CMP='QX',
                   VALE_CALC= 4.51067401E-05,
                   VALE_REFE=0.0,
                   CRITERE='ABSOLU',
                   PRECISION=0.021000000000000001,
                   MAILLE='M79',),
                _F(NUME_ORDRE=1,
                   GROUP_NO='O',
                   REFERENCE='ANALYTIQUE',
                   RESULTAT=EFF,
                   NOM_CHAM='EFGE_ELNO',
                   NOM_CMP='QY',
                   VALE_CALC= 4.51067401E-05,
                   VALE_REFE=0.0,
                   CRITERE='ABSOLU',
                   PRECISION=0.021000000000000001,
                   MAILLE='M79',),
                _F(NUME_ORDRE=1,
                   GROUP_NO='O',
                   REFERENCE='ANALYTIQUE',
                   RESULTAT=EFF,
                   NOM_CHAM='EFGE_ELNO',
                   NOM_CMP='QX',
                   VALE_CALC=-4.51067401E-05,
                   VALE_REFE=0.0,
                   CRITERE='ABSOLU',
                   PRECISION=0.021000000000000001,
                   MAILLE='M66',),
                _F(NUME_ORDRE=1,
                   GROUP_NO='O',
                   REFERENCE='ANALYTIQUE',
                   RESULTAT=EFF,
                   NOM_CHAM='EFGE_ELNO',
                   NOM_CMP='QY',
                   VALE_CALC=-4.51067401E-05,
                   VALE_REFE=0.0,
                   CRITERE='ABSOLU',
                   PRECISION=0.021000000000000001,
                   MAILLE='M66',),
                _F(NUME_ORDRE=1,
                   GROUP_NO='O',
                   REFERENCE='ANALYTIQUE',
                   RESULTAT=EFF,
                   NOM_CHAM='EFGE_ELNO',
                   NOM_CMP='QX',
                   VALE_CALC= 4.51067401E-05,
                   VALE_REFE=0.0,
                   CRITERE='ABSOLU',
                   PRECISION=0.021000000000000001,
                   MAILLE='M67',),
                _F(NUME_ORDRE=1,
                   GROUP_NO='O',
                   REFERENCE='ANALYTIQUE',
                   RESULTAT=EFF,
                   NOM_CHAM='EFGE_ELNO',
                   NOM_CMP='QY',
                   VALE_CALC=-4.51067401E-05,
                   VALE_REFE=0.0,
                   CRITERE='ABSOLU',
                   PRECISION=0.021000000000000001,
                   MAILLE='M67',),
                _F(NUME_ORDRE=1,
                   GROUP_NO='C',
                   REFERENCE='ANALYTIQUE',
                   RESULTAT=EFF,
                   NOM_CHAM='EFGE_ELNO',
                   NOM_CMP='NXX',
                   VALE_CALC=-1.02523442E-16,
                   VALE_REFE=0.0,
                   CRITERE='ABSOLU',
                   PRECISION=1.E-2,
                   MAILLE='M144',),
                _F(NUME_ORDRE=1,
                   GROUP_NO='C',
                   REFERENCE='ANALYTIQUE',
                   RESULTAT=EFF,
                   NOM_CHAM='EFGE_ELNO',
                   NOM_CMP='NYY',
                   VALE_CALC=-1.56898785E-16,
                   VALE_REFE=0.0,
                   CRITERE='ABSOLU',
                   PRECISION=1.E-2,
                   MAILLE='M144',),
                _F(NUME_ORDRE=1,
                   GROUP_NO='C',
                   REFERENCE='ANALYTIQUE',
                   RESULTAT=EFF,
                   NOM_CHAM='EFGE_ELNO',
                   NOM_CMP='NXY',
                   VALE_CALC= 7.63246249E-17,
                   VALE_REFE=0.0,
                   CRITERE='ABSOLU',
                   PRECISION=1.E-2,
                   MAILLE='M144',),
                _F(NUME_ORDRE=1,
                   GROUP_NO='C',
                   REFERENCE='ANALYTIQUE',
                   RESULTAT=EFF,
                   NOM_CHAM='EFGE_ELNO',
                   NOM_CMP='MXX',
                   VALE_CALC=-1.42095564E-09,
                   VALE_REFE=0.0,
                   CRITERE='ABSOLU',
                   PRECISION=1.E-2,
                   MAILLE='M144',),
                _F(NUME_ORDRE=1,
                   GROUP_NO='C',
                   REFERENCE='ANALYTIQUE',
                   RESULTAT=EFF,
                   NOM_CHAM='EFGE_ELNO',
                   NOM_CMP='MYY',
                   VALE_CALC=-1.42095584E-09,
                   VALE_REFE=0.0,
                   CRITERE='ABSOLU',
                   PRECISION=1.E-2,
                   MAILLE='M144',),
                _F(NUME_ORDRE=1,
                   GROUP_NO='C',
                   REFERENCE='ANALYTIQUE',
                   RESULTAT=EFF,
                   NOM_CHAM='EFGE_ELNO',
                   NOM_CMP='MXY',
                   VALE_CALC=0.019211819,
                   VALE_REFE=0.018997199999999999,
                   PRECISION=0.029999999999999999,
                   MAILLE='M144',),
                _F(NUME_ORDRE=1,
                   GROUP_NO='C',
                   REFERENCE='ANALYTIQUE',
                   RESULTAT=EFF,
                   NOM_CHAM='EFGE_ELNO',
                   NOM_CMP='QX',
                   VALE_CALC= 9.91147723E-05,
                   VALE_REFE=0.0,
                   CRITERE='ABSOLU',
                   PRECISION=1.E-2,
                   MAILLE='M144',),
                _F(NUME_ORDRE=1,
                   GROUP_NO='C',
                   REFERENCE='ANALYTIQUE',
                   RESULTAT=EFF,
                   NOM_CHAM='EFGE_ELNO',
                   NOM_CMP='QY',
                   VALE_CALC= 9.91147723E-05,
                   VALE_REFE=0.0,
                   CRITERE='ABSOLU',
                   PRECISION=1.E-2,
                   MAILLE='M144',),
                _F(NUME_ORDRE=1,
                   GROUP_NO='D',
                   REFERENCE='ANALYTIQUE',
                   RESULTAT=EFF,
                   NOM_CHAM='EFGE_ELNO',
                   NOM_CMP='NXX',
                   VALE_CALC= 1.96629161E-16,
                   VALE_REFE=0.0,
                   CRITERE='ABSOLU',
                   PRECISION=1.E-2,
                   MAILLE='M133',),
                _F(NUME_ORDRE=1,
                   GROUP_NO='D',
                   REFERENCE='ANALYTIQUE',
                   RESULTAT=EFF,
                   NOM_CHAM='EFGE_ELNO',
                   NOM_CMP='NYY',
                   VALE_CALC= 1.48610026E-16,
                   VALE_REFE=0.0,
                   CRITERE='ABSOLU',
                   PRECISION=1.E-2,
                   MAILLE='M133',),
                _F(NUME_ORDRE=1,
                   GROUP_NO='D',
                   REFERENCE='ANALYTIQUE',
                   RESULTAT=EFF,
                   NOM_CHAM='EFGE_ELNO',
                   NOM_CMP='NXY',
                   VALE_CALC= 5.63884826E-16,
                   VALE_REFE=0.0,
                   CRITERE='ABSOLU',
                   PRECISION=1.E-2,
                   MAILLE='M133',),
                _F(NUME_ORDRE=1,
                   GROUP_NO='D',
                   REFERENCE='ANALYTIQUE',
                   RESULTAT=EFF,
                   NOM_CHAM='EFGE_ELNO',
                   NOM_CMP='MXX',
                   VALE_CALC=-1.42095572E-09,
                   VALE_REFE=0.0,
                   CRITERE='ABSOLU',
                   PRECISION=1.E-2,
                   MAILLE='M133',),
                _F(NUME_ORDRE=1,
                   GROUP_NO='D',
                   REFERENCE='ANALYTIQUE',
                   RESULTAT=EFF,
                   NOM_CHAM='EFGE_ELNO',
                   NOM_CMP='MYY',
                   VALE_CALC=-1.42095580E-09,
                   VALE_REFE=0.0,
                   CRITERE='ABSOLU',
                   PRECISION=1.E-2,
                   MAILLE='M133',),
                _F(NUME_ORDRE=1,
                   GROUP_NO='D',
                   REFERENCE='ANALYTIQUE',
                   RESULTAT=EFF,
                   NOM_CHAM='EFGE_ELNO',
                   NOM_CMP='MXY',
                   VALE_CALC=-0.019211819,
                   VALE_REFE=-0.018997199999999999,
                   PRECISION=0.029999999999999999,
                   MAILLE='M133',),
                _F(NUME_ORDRE=1,
                   GROUP_NO='D',
                   REFERENCE='ANALYTIQUE',
                   RESULTAT=EFF,
                   NOM_CHAM='EFGE_ELNO',
                   NOM_CMP='QX',
                   VALE_CALC=-9.91147723E-05,
                   VALE_REFE=0.0,
                   CRITERE='ABSOLU',
                   PRECISION=1.E-2,
                   MAILLE='M133',),
                _F(NUME_ORDRE=1,
                   GROUP_NO='D',
                   REFERENCE='ANALYTIQUE',
                   RESULTAT=EFF,
                   NOM_CHAM='EFGE_ELNO',
                   NOM_CMP='QY',
                   VALE_CALC= 9.91147723E-05,
                   VALE_REFE=0.0,
                   CRITERE='ABSOLU',
                   PRECISION=1.E-2,
                   MAILLE='M133',),
                _F(NUME_ORDRE=1,
                   GROUP_NO='D1',
                   REFERENCE='ANALYTIQUE',
                   RESULTAT=EFF,
                   NOM_CHAM='EFGE_ELNO',
                   NOM_CMP='NXX',
                   VALE_CALC= 3.49258180E-16,
                   VALE_REFE=0.0,
                   CRITERE='ABSOLU',
                   PRECISION=1.E-2,
                   MAILLE='M73',),
                _F(NUME_ORDRE=1,
                   GROUP_NO='D1',
                   REFERENCE='ANALYTIQUE',
                   RESULTAT=EFF,
                   NOM_CHAM='EFGE_ELNO',
                   NOM_CMP='NYY',
                   VALE_CALC= 2.57046910E-17,
                   VALE_REFE=0.0,
                   CRITERE='ABSOLU',
                   PRECISION=1.E-2,
                   MAILLE='M73',),
                _F(NUME_ORDRE=1,
                   GROUP_NO='D1',
                   REFERENCE='ANALYTIQUE',
                   RESULTAT=EFF,
                   NOM_CHAM='EFGE_ELNO',
                   NOM_CMP='NXY',
                   VALE_CALC=-6.31807004E-16,
                   VALE_REFE=0.0,
                   CRITERE='ABSOLU',
                   PRECISION=1.E-2,
                   MAILLE='M73',),
                _F(NUME_ORDRE=1,
                   GROUP_NO='D1',
                   REFERENCE='ANALYTIQUE',
                   RESULTAT=EFF,
                   NOM_CHAM='EFGE_ELNO',
                   NOM_CMP='MXX',
                   VALE_CALC=-2.51900094E-05,
                   VALE_REFE=0.0,
                   CRITERE='ABSOLU',
                   PRECISION=1.E-2,
                   MAILLE='M73',),
                _F(NUME_ORDRE=1,
                   GROUP_NO='D1',
                   REFERENCE='ANALYTIQUE',
                   RESULTAT=EFF,
                   NOM_CHAM='EFGE_ELNO',
                   NOM_CMP='MYY',
                   VALE_CALC=-2.39977162E-05,
                   VALE_REFE=0.0,
                   CRITERE='ABSOLU',
                   PRECISION=1.E-2,
                   MAILLE='M73',),
                _F(NUME_ORDRE=1,
                   GROUP_NO='D1',
                   REFERENCE='ANALYTIQUE',
                   RESULTAT=EFF,
                   NOM_CHAM='EFGE_ELNO',
                   NOM_CMP='MXY',
                   VALE_CALC=-1.79461820E-05,
                   VALE_REFE=0.0,
                   CRITERE='ABSOLU',
                   PRECISION=1.E-2,
                   MAILLE='M73',),
                _F(NUME_ORDRE=1,
                   GROUP_NO='D1',
                   REFERENCE='ANALYTIQUE',
                   RESULTAT=EFF,
                   NOM_CHAM='EFGE_ELNO',
                   NOM_CMP='QX',
                   VALE_CALC=-0.160961656,
                   VALE_REFE=-0.15915499999999999,
                   PRECISION=0.029999999999999999,
                   MAILLE='M73',),
                _F(NUME_ORDRE=1,
                   GROUP_NO='D1',
                   REFERENCE='ANALYTIQUE',
                   RESULTAT=EFF,
                   NOM_CHAM='EFGE_ELNO',
                   NOM_CMP='QY',
                   VALE_CALC= 3.08054597E-04,
                   VALE_REFE=0.0,
                   CRITERE='ABSOLU',
                   PRECISION=1.E-2,
                   MAILLE='M73',),
                _F(NUME_ORDRE=1,
                   GROUP_NO='D1',
                   REFERENCE='ANALYTIQUE',
                   RESULTAT=EFF,
                   NOM_CHAM='EFGE_ELNO',
                   NOM_CMP='QX',
                   VALE_CALC=-0.160961656,
                   VALE_REFE=-0.15915499999999999,
                   PRECISION=0.029999999999999999,
                   MAILLE='M61',),
                _F(NUME_ORDRE=1,
                   GROUP_NO='D1',
                   REFERENCE='ANALYTIQUE',
                   RESULTAT=EFF,
                   NOM_CHAM='EFGE_ELNO',
                   NOM_CMP='QY',
                   VALE_CALC=-3.08054597E-04,
                   VALE_REFE=0.0,
                   CRITERE='ABSOLU',
                   PRECISION=1.E-2,
                   MAILLE='M61',),
                _F(NUME_ORDRE=1,
                   GROUP_NO='A',
                   REFERENCE='ANALYTIQUE',
                   RESULTAT=EFF,
                   NOM_CHAM='EFGE_ELNO',
                   NOM_CMP='NXX',
                   VALE_CALC= 8.13966445E-17,
                   VALE_REFE=0.0,
                   CRITERE='ABSOLU',
                   PRECISION=1.E-2,
                   MAILLE='M1',),
                _F(NUME_ORDRE=1,
                   GROUP_NO='A',
                   REFERENCE='ANALYTIQUE',
                   RESULTAT=EFF,
                   NOM_CHAM='EFGE_ELNO',
                   NOM_CMP='NYY',
                   VALE_CALC=-1.25933064E-17,
                   VALE_REFE=0.0,
                   CRITERE='ABSOLU',
                   PRECISION=1.E-2,
                   MAILLE='M1',),
                _F(NUME_ORDRE=1,
                   GROUP_NO='A',
                   REFERENCE='ANALYTIQUE',
                   RESULTAT=EFF,
                   NOM_CHAM='EFGE_ELNO',
                   NOM_CMP='NXY',
                   VALE_CALC=-1.11005215E-16,
                   VALE_REFE=0.0,
                   CRITERE='ABSOLU',
                   PRECISION=1.E-2,
                   MAILLE='M1',),
                _F(NUME_ORDRE=1,
                   GROUP_NO='A',
                   REFERENCE='ANALYTIQUE',
                   RESULTAT=EFF,
                   NOM_CHAM='EFGE_ELNO',
                   NOM_CMP='MXX',
                   VALE_CALC=-1.42095584E-09,
                   VALE_REFE=0.0,
                   CRITERE='ABSOLU',
                   PRECISION=1.E-2,
                   MAILLE='M1',),
                _F(NUME_ORDRE=1,
                   GROUP_NO='A',
                   REFERENCE='ANALYTIQUE',
                   RESULTAT=EFF,
                   NOM_CHAM='EFGE_ELNO',
                   NOM_CMP='MYY',
                   VALE_CALC=-1.42095587E-09,
                   VALE_REFE=0.0,
                   CRITERE='ABSOLU',
                   PRECISION=1.E-2,
                   MAILLE='M1',),
                _F(NUME_ORDRE=1,
                   GROUP_NO='A',
                   REFERENCE='ANALYTIQUE',
                   RESULTAT=EFF,
                   NOM_CHAM='EFGE_ELNO',
                   NOM_CMP='MXY',
                   VALE_CALC=0.019211819,
                   VALE_REFE=0.018997199999999999,
                   PRECISION=0.029999999999999999,
                   MAILLE='M1',),
                _F(NUME_ORDRE=1,
                   GROUP_NO='A',
                   REFERENCE='ANALYTIQUE',
                   RESULTAT=EFF,
                   NOM_CHAM='EFGE_ELNO',
                   NOM_CMP='QY',
                   VALE_CALC=-9.91147723E-05,
                   VALE_REFE=0.0,
                   CRITERE='ABSOLU',
                   PRECISION=1.E-2,
                   MAILLE='M1',),
                _F(NUME_ORDRE=1,
                   GROUP_NO='A',
                   REFERENCE='ANALYTIQUE',
                   RESULTAT=EFF,
                   NOM_CHAM='EFGE_ELNO',
                   NOM_CMP='QX',
                   VALE_CALC=-9.91147723E-05,
                   VALE_REFE=0.0,
                   CRITERE='ABSOLU',
                   PRECISION=1.E-2,
                   MAILLE='M1',),
                _F(NUME_ORDRE=1,
                   GROUP_NO='B',
                   REFERENCE='ANALYTIQUE',
                   RESULTAT=EFF,
                   NOM_CHAM='EFGE_ELNO',
                   NOM_CMP='NXX',
                   VALE_CALC=-1.08572536E-17,
                   VALE_REFE=0.0,
                   CRITERE='ABSOLU',
                   PRECISION=1.E-2,
                   MAILLE='M12',),
                _F(NUME_ORDRE=1,
                   GROUP_NO='B',
                   REFERENCE='ANALYTIQUE',
                   RESULTAT=EFF,
                   NOM_CHAM='EFGE_ELNO',
                   NOM_CMP='NYY',
                   VALE_CALC=-1.35432690E-16,
                   VALE_REFE=0.0,
                   CRITERE='ABSOLU',
                   PRECISION=1.E-2,
                   MAILLE='M12',),
                _F(NUME_ORDRE=1,
                   GROUP_NO='B',
                   REFERENCE='ANALYTIQUE',
                   RESULTAT=EFF,
                   NOM_CHAM='EFGE_ELNO',
                   NOM_CMP='NXY',
                   VALE_CALC=-2.90258863E-16,
                   VALE_REFE=0.0,
                   CRITERE='ABSOLU',
                   PRECISION=1.E-2,
                   MAILLE='M12',),
                _F(NUME_ORDRE=1,
                   GROUP_NO='B',
                   REFERENCE='ANALYTIQUE',
                   RESULTAT=EFF,
                   NOM_CHAM='EFGE_ELNO',
                   NOM_CMP='MXX',
                   VALE_CALC=-1.42095562E-09,
                   VALE_REFE=0.0,
                   CRITERE='ABSOLU',
                   PRECISION=1.E-2,
                   MAILLE='M12',),
                _F(NUME_ORDRE=1,
                   GROUP_NO='B',
                   REFERENCE='ANALYTIQUE',
                   RESULTAT=EFF,
                   NOM_CHAM='EFGE_ELNO',
                   NOM_CMP='MYY',
                   VALE_CALC=-1.42095602E-09,
                   VALE_REFE=0.0,
                   CRITERE='ABSOLU',
                   PRECISION=1.E-2,
                   MAILLE='M12',),
                _F(NUME_ORDRE=1,
                   GROUP_NO='B',
                   REFERENCE='ANALYTIQUE',
                   RESULTAT=EFF,
                   NOM_CHAM='EFGE_ELNO',
                   NOM_CMP='MXY',
                   VALE_CALC=-0.019211819,
                   VALE_REFE=-0.018997199999999999,
                   PRECISION=0.029999999999999999,
                   MAILLE='M12',),
                _F(NUME_ORDRE=1,
                   GROUP_NO='B',
                   REFERENCE='ANALYTIQUE',
                   RESULTAT=EFF,
                   NOM_CHAM='EFGE_ELNO',
                   NOM_CMP='QY',
                   VALE_CALC=-9.91147723E-05,
                   VALE_REFE=0.0,
                   CRITERE='ABSOLU',
                   PRECISION=1.E-2,
                   MAILLE='M12',),
                _F(NUME_ORDRE=1,
                   GROUP_NO='B',
                   REFERENCE='ANALYTIQUE',
                   RESULTAT=EFF,
                   NOM_CHAM='EFGE_ELNO',
                   NOM_CMP='QX',
                   VALE_CALC= 9.91147723E-05,
                   VALE_REFE=0.0,
                   CRITERE='ABSOLU',
                   PRECISION=1.E-2,
                   MAILLE='M12',),
                _F(NUME_ORDRE=1,
                   GROUP_NO='B1',
                   REFERENCE='ANALYTIQUE',
                   RESULTAT=EFF,
                   NOM_CHAM='EFGE_ELNO',
                   NOM_CMP='NXX',
                   VALE_CALC=-5.60419546E-17,
                   VALE_REFE=0.0,
                   CRITERE='ABSOLU',
                   PRECISION=1.E-2,
                   MAILLE='M6',),
                _F(NUME_ORDRE=1,
                   GROUP_NO='B1',
                   REFERENCE='ANALYTIQUE',
                   RESULTAT=EFF,
                   NOM_CHAM='EFGE_ELNO',
                   NOM_CMP='NYY',
                   VALE_CALC= 1.19957564E-16,
                   VALE_REFE=0.0,
                   CRITERE='ABSOLU',
                   PRECISION=1.E-2,
                   MAILLE='M6',),
                _F(NUME_ORDRE=1,
                   GROUP_NO='B1',
                   REFERENCE='ANALYTIQUE',
                   RESULTAT=EFF,
                   NOM_CHAM='EFGE_ELNO',
                   NOM_CMP='NXY',
                   VALE_CALC=-1.99183877E-16,
                   VALE_REFE=0.0,
                   CRITERE='ABSOLU',
                   PRECISION=1.E-2,
                   MAILLE='M6',),
                _F(NUME_ORDRE=1,
                   GROUP_NO='B1',
                   REFERENCE='ANALYTIQUE',
                   RESULTAT=EFF,
                   NOM_CHAM='EFGE_ELNO',
                   NOM_CMP='MXX',
                   VALE_CALC=-2.39977162E-05,
                   VALE_REFE=0.0,
                   CRITERE='ABSOLU',
                   PRECISION=1.E-2,
                   MAILLE='M6',),
                _F(NUME_ORDRE=1,
                   GROUP_NO='B1',
                   REFERENCE='ANALYTIQUE',
                   RESULTAT=EFF,
                   NOM_CHAM='EFGE_ELNO',
                   NOM_CMP='MYY',
                   VALE_CALC=-2.51900094E-05,
                   VALE_REFE=0.0,
                   CRITERE='ABSOLU',
                   PRECISION=1.E-2,
                   MAILLE='M6',),
                _F(NUME_ORDRE=1,
                   GROUP_NO='B1',
                   REFERENCE='ANALYTIQUE',
                   RESULTAT=EFF,
                   NOM_CHAM='EFGE_ELNO',
                   NOM_CMP='MXY',
                   VALE_CALC= 1.79461820E-05,
                   VALE_REFE=0.0,
                   CRITERE='ABSOLU',
                   PRECISION=1.E-2,
                   MAILLE='M6',),
                _F(NUME_ORDRE=1,
                   GROUP_NO='B1',
                   REFERENCE='ANALYTIQUE',
                   RESULTAT=EFF,
                   NOM_CHAM='EFGE_ELNO',
                   NOM_CMP='QY',
                   VALE_CALC=-0.160961656,
                   VALE_REFE=-0.15915499999999999,
                   PRECISION=0.059999999999999998,
                   MAILLE='M6',),
                _F(NUME_ORDRE=1,
                   GROUP_NO='B1',
                   REFERENCE='ANALYTIQUE',
                   RESULTAT=EFF,
                   NOM_CHAM='EFGE_ELNO',
                   NOM_CMP='QX',
                   VALE_CALC=-3.08054597E-04,
                   VALE_REFE=0.0,
                   CRITERE='ABSOLU',
                   PRECISION=1.E-2,
                   MAILLE='M6',),
                _F(NUME_ORDRE=1,
                   GROUP_NO='B1',
                   REFERENCE='ANALYTIQUE',
                   RESULTAT=EFF,
                   NOM_CHAM='EFGE_ELNO',
                   NOM_CMP='NXX',
                   VALE_CALC= 1.40572286E-16,
                   VALE_REFE=0.0,
                   CRITERE='ABSOLU',
                   PRECISION=1.E-2,
                   MAILLE='M7',),
                _F(NUME_ORDRE=1,
                   GROUP_NO='B1',
                   REFERENCE='ANALYTIQUE',
                   RESULTAT=EFF,
                   NOM_CHAM='EFGE_ELNO',
                   NOM_CMP='NYY',
                   VALE_CALC= 5.30057502E-16,
                   VALE_REFE=0.0,
                   CRITERE='ABSOLU',
                   PRECISION=1.E-2,
                   MAILLE='M7',),
                _F(NUME_ORDRE=1,
                   GROUP_NO='B1',
                   REFERENCE='ANALYTIQUE',
                   RESULTAT=EFF,
                   NOM_CHAM='EFGE_ELNO',
                   NOM_CMP='NXY',
                   VALE_CALC= 5.69554005E-16,
                   VALE_REFE=0.0,
                   CRITERE='ABSOLU',
                   PRECISION=1.E-2,
                   MAILLE='M7',),
                _F(NUME_ORDRE=1,
                   GROUP_NO='B1',
                   REFERENCE='ANALYTIQUE',
                   RESULTAT=EFF,
                   NOM_CHAM='EFGE_ELNO',
                   NOM_CMP='MXX',
                   VALE_CALC=-2.39977162E-05,
                   VALE_REFE=0.0,
                   CRITERE='ABSOLU',
                   PRECISION=1.E-2,
                   MAILLE='M7',),
                _F(NUME_ORDRE=1,
                   GROUP_NO='B1',
                   REFERENCE='ANALYTIQUE',
                   RESULTAT=EFF,
                   NOM_CHAM='EFGE_ELNO',
                   NOM_CMP='MYY',
                   VALE_CALC=-2.51900094E-05,
                   VALE_REFE=0.0,
                   CRITERE='ABSOLU',
                   PRECISION=1.E-2,
                   MAILLE='M7',),
                _F(NUME_ORDRE=1,
                   GROUP_NO='B1',
                   REFERENCE='ANALYTIQUE',
                   RESULTAT=EFF,
                   NOM_CHAM='EFGE_ELNO',
                   NOM_CMP='MXY',
                   VALE_CALC=-1.79461820E-05,
                   VALE_REFE=0.0,
                   CRITERE='ABSOLU',
                   PRECISION=1.E-2,
                   MAILLE='M7',),
                _F(NUME_ORDRE=1,
                   GROUP_NO='B1',
                   REFERENCE='ANALYTIQUE',
                   RESULTAT=EFF,
                   NOM_CHAM='EFGE_ELNO',
                   NOM_CMP='QY',
                   VALE_CALC=-0.160961656,
                   VALE_REFE=-0.15915499999999999,
                   PRECISION=0.059999999999999998,
                   MAILLE='M7',),
                _F(NUME_ORDRE=1,
                   GROUP_NO='B1',
                   REFERENCE='ANALYTIQUE',
                   RESULTAT=EFF,
                   NOM_CHAM='EFGE_ELNO',
                   NOM_CMP='QX',
                   VALE_CALC= 3.08054597E-04,
                   VALE_REFE=0.0,
                   CRITERE='ABSOLU',
                   PRECISION=1.E-2,
                   MAILLE='M7',),
                _F(NUME_ORDRE=1,
                   GROUP_NO='O',
                   REFERENCE='ANALYTIQUE',
                   RESULTAT=SIGG,
                   NOM_CHAM='EFGE_ELNO',
                   NOM_CMP='MXX',
                   VALE_CALC=-0.032020629,
                   VALE_REFE=-0.031662900000000001,
                   PRECISION=0.02,
                   MAILLE='M78',),
                _F(NUME_ORDRE=1,
                   GROUP_NO='O',
                   REFERENCE='ANALYTIQUE',
                   RESULTAT=SIGG,
                   NOM_CHAM='EFGE_ELNO',
                   NOM_CMP='MYY',
                   VALE_CALC=-0.032020629,
                   VALE_REFE=-0.031662900000000001,
                   PRECISION=0.050000000000000003,
                   MAILLE='M78',),
                _F(NUME_ORDRE=1,
                   GROUP_NO='C',
                   REFERENCE='ANALYTIQUE',
                   RESULTAT=SIGG,
                   NOM_CHAM='EFGE_ELNO',
                   NOM_CMP='MXY',
                   VALE_CALC=0.019211819,
                   VALE_REFE=0.018997199999999999,
                   PRECISION=0.029999999999999999,
                   MAILLE='M144',),
                _F(NUME_ORDRE=1,
                   GROUP_NO='D',
                   REFERENCE='ANALYTIQUE',
                   RESULTAT=SIGG,
                   NOM_CHAM='EFGE_ELNO',
                   NOM_CMP='MXY',
                   VALE_CALC=-0.019211819,
                   VALE_REFE=-0.018997199999999999,
                   PRECISION=0.029999999999999999,
                   MAILLE='M133',),
                _F(NUME_ORDRE=1,
                   GROUP_NO='D1',
                   REFERENCE='ANALYTIQUE',
                   RESULTAT=SIGG,
                   NOM_CHAM='EFGE_ELNO',
                   NOM_CMP='QX',
                   VALE_CALC=-0.160961656,
                   VALE_REFE=-0.15915499999999999,
                   PRECISION=0.029999999999999999,
                   MAILLE='M73',),
                _F(NUME_ORDRE=1,
                   GROUP_NO='D1',
                   REFERENCE='ANALYTIQUE',
                   RESULTAT=SIGG,
                   NOM_CHAM='EFGE_ELNO',
                   NOM_CMP='QX',
                   VALE_CALC=-0.160961656,
                   VALE_REFE=-0.15915499999999999,
                   PRECISION=0.029999999999999999,
                   MAILLE='M61',),
                _F(NUME_ORDRE=1,
                   GROUP_NO='A',
                   REFERENCE='ANALYTIQUE',
                   RESULTAT=SIGG,
                   NOM_CHAM='EFGE_ELNO',
                   NOM_CMP='MXY',
                   VALE_CALC=0.019211819,
                   VALE_REFE=0.018997199999999999,
                   PRECISION=0.029999999999999999,
                   MAILLE='M1',),
                _F(NUME_ORDRE=1,
                   GROUP_NO='B',
                   REFERENCE='ANALYTIQUE',
                   RESULTAT=SIGG,
                   NOM_CHAM='EFGE_ELNO',
                   NOM_CMP='MXY',
                   VALE_CALC=-0.019211819,
                   VALE_REFE=-0.018997199999999999,
                   PRECISION=0.029999999999999999,
                   MAILLE='M12',),
                _F(NUME_ORDRE=1,
                   GROUP_NO='B1',
                   REFERENCE='ANALYTIQUE',
                   RESULTAT=SIGG,
                   NOM_CHAM='EFGE_ELNO',
                   NOM_CMP='QY',
                   VALE_CALC=-0.160961656,
                   VALE_REFE=-0.15915499999999999,
                   PRECISION=0.059999999999999998,
                   MAILLE='M6',),
                _F(NUME_ORDRE=1,
                   GROUP_NO='B1',
                   REFERENCE='ANALYTIQUE',
                   RESULTAT=SIGG,
                   NOM_CHAM='EFGE_ELNO',
                   NOM_CMP='QY',
                   VALE_CALC=-0.160961656,
                   VALE_REFE=-0.15915499999999999,
                   PRECISION=0.059999999999999998,
                   MAILLE='M7',),
                ),
          )

FIN();
