# MODIF  DATE 10/10/2012   AUTEUR COURTOIS M.COURTOIS 
# RESPONSABLE MASSIN P.MASSIN
# TITRE  : CYLINDRE ORTHOTROPE COURT SOUMIS A UNE LIGNE DE CHARGE
# ssls502a.para = tps_job 60 mem_job 256Mo ncpus 1 liste_test V
#            CONFIGURATION MANAGEMENT OF EDF VERSION
# ======================================================================
# COPYRIGHT (C) 1991 - 2012  EDF R&D                  WWW.CODE-ASTER.ORG
# THIS PROGRAM IS FREE SOFTWARE; YOU CAN REDISTRIBUTE IT AND/OR MODIFY
# IT UNDER THE TERMS OF THE GNU GENERAL PUBLIC LICENSE AS PUBLISHED BY
# THE FREE SOFTWARE FOUNDATION; EITHER VERSION 2 OF THE LICENSE, OR
# (AT YOUR OPTION) ANY LATER VERSION.
#
# THIS PROGRAM IS DISTRIBUTED IN THE HOPE THAT IT WILL BE USEFUL, BUT
# WITHOUT ANY WARRANTY; WITHOUT EVEN THE IMPLIED WARRANTY OF
# MERCHANTABILITY OR FITNESS FOR A PARTICULAR PURPOSE. SEE THE GNU
# GENERAL PUBLIC LICENSE FOR MORE DETAILS.
#
# YOU SHOULD HAVE RECEIVED A COPY OF THE GNU GENERAL PUBLIC LICENSE
# ALONG WITH THIS PROGRAM; IF NOT, WRITE TO EDF R&D CODE_ASTER,
#    1 AVENUE DU GENERAL DE GAULLE, 92141 CLAMART CEDEX, FRANCE.
# ======================================================================
#---------------------------------------------------------------------
#  - CALCUL QUASI-STATIQUE D'UN CYLINDRE COURT REPOSANT A SES
#    EXTREMITES SUR DES DIAPHRAGMES RIGIDES
#  - MODELISATION AVEC DES ELEMENTS 'DKT'(TRIA3) '
#---------------------------------------------------------------------

DEBUT(CODE=_F(NOM='SSLS502A',
              NIV_PUB_WEB='INTERNET',),);

MAIL=LIRE_MAILLAGE(VERI_MAIL=_F(VERIF='OUI',),FORMAT='MED',);

MO=AFFE_MODELE(MAILLAGE=MAIL,
               AFFE=_F(TOUT='OUI',
                       PHENOMENE='MECANIQUE',
                       MODELISATION='DKT',),);

MAIL=DEFI_GROUP(reuse =MAIL,
                MAILLAGE=MAIL,
                CREA_GROUP_NO=_F(OPTION='NOEUD_ORDO',
                                 NOM='CD',
                                 GROUP_MA='CD',
                                 GROUP_NO_ORIG='C',
                                 GROUP_NO_EXTR='D',),);

CAR_ELE=AFFE_CARA_ELEM(MODELE=MO,
                       COQUE=_F(GROUP_MA='TOUT_ELT',
                                EPAIS=0.0061,
                                ANGL_REP=(0.0,0.0,),),);

MAT=DEFI_MATERIAU(ELAS_COQUE=_F(MEMB_L=18692840.0,
                                MEMB_LT=6739280.0,
                                MEMB_T=113441700.0,
                                MEMB_G_LT=7625000.0,
                                FLEX_L=57.96338137,
                                FLEX_LT=20.89738407,
                                FLEX_T=351.7638047,
                                FLEX_G_LT=23.64385417,
                                CISA_L=10000000000.0,
                                CISA_T=10000000000.0,),);

CHAM_MAT=AFFE_MATERIAU(MAILLAGE=MAIL,
                       AFFE=_F(TOUT='OUI',
                               MATER=MAT,),);

CHA=AFFE_CHAR_MECA(MODELE=MO,
                   DDL_IMPO=(_F(GROUP_MA='BA',
                                DX=0.0,
                                DZ=0.0,
                                DRY=0.0,),
                             _F(GROUP_MA=('AD','BC',),
                                DX=0.0,
                                DRY=0.0,
                                DRZ=0.0,),
                             _F(GROUP_MA='CD',
                                DY=0.0,
                                DRX=0.0,
                                DRZ=0.0,),),
                   FORCE_ARETE=_F(GROUP_MA='BC',
                                  FZ=-1178.5715,),);

RESU=MECA_STATIQUE(MODELE=MO,
                   CHAM_MATER=CHAM_MAT,
                   CARA_ELEM=CAR_ELE,
                   EXCIT=_F(CHARGE=CHA,),);

RESU=CALC_CHAMP(reuse=RESU,RESULTAT=RESU,CONTRAINTE=('SIGM_ELNO'))


RESU2=POST_CHAMP(RESULTAT=RESU,
                 EXTR_COQUE=_F(NOM_CHAM='SIGM_ELNO',
                               NUME_COUCHE=1,
                               NIVE_COUCHE='SUP',),);
DEP_DZ=POST_RELEVE_T(ACTION=_F(OPERATION='EXTRACTION',
                               INTITULE='TAB_DZ ',
                               RESULTAT=RESU,
                               NOM_CHAM='DEPL',
                               GROUP_NO='CD',
                               NOM_CMP='DZ',),);

DEP_NORM=POST_RELEVE_T(ACTION=_F(OPERATION='EXTRACTION',
                                 INTITULE='TAB_NORM',
                                 RESULTAT=RESU,
                                 NOM_CHAM='DEPL',
                                 GROUP_NO='CD',
                                 NOM_CMP=('DX','DY','DZ',),
                                 REPERE='CYLINDRIQUE',
                                 ORIGINE=(0.0,0.0,0.0,),
                                 AXE_Z=(0.0,1.0,0.0,),),);

SIGMA=POST_RELEVE_T(ACTION=_F(OPERATION='EXTRACTION',
                              INTITULE='TAB_SIGM ',
                              RESULTAT=RESU2,
                              NOM_CHAM='SIGM_ELNO',
                              GROUP_NO='CD',
                              TOUT_CMP='OUI',),);

DEPZ=RECU_FONCTION(TABLE=DEP_DZ,
                   PARA_X='ABSC_CURV',
                   PARA_Y='DZ',);

DEPNOR=RECU_FONCTION(TABLE=DEP_NORM,
                     PARA_X='ABSC_CURV',
                     PARA_Y='DX',);

SIGX=RECU_FONCTION(TABLE=SIGMA,
                   PARA_X='ABSC_CURV',
                   PARA_Y='SIXX',);

SIGY=RECU_FONCTION(TABLE=SIGMA,
                   PARA_X='ABSC_CURV',
                   PARA_Y='SIYY',);

IMPR_FONCTION(FORMAT='AGRAF',
              UNITE=25,
              UNITE_DIGR=26,
              COURBE=(_F(FONCTION=DEPZ,),
                      _F(FONCTION=DEPNOR,),),
              TITRE='dep_norm fonction de abscisse curviligne',);

IMPR_FONCTION(FORMAT='AGRAF',
              UNITE=27,
              UNITE_DIGR=28,
              COURBE=_F(FONCTION=SIGX,),
              TITRE='sigma XX fonction de abscisse curviligne',);

IMPR_FONCTION(FORMAT='AGRAF',
              UNITE=29,
              UNITE_DIGR=30,
              COURBE=_F(FONCTION=SIGY,),
              TITRE='sigma YY fonction de abscisse curviligne',);

#
#---------------------------------------------------------------------
#          TEST REFERENCE EXPERIMENTALE
#---------------------------------------------------------------------

TEST_RESU(RESU=(_F(NUME_ORDRE=1,
                   GROUP_NO='F',
                   REFERENCE='SOURCE_EXTERNE',
                   RESULTAT=RESU,
                   NOM_CHAM='DEPL',
                   NOM_CMP='DX',
                   VALE_CALC= 3.73460265E-05,
                   VALE_REFE=6.0000000000000002E-05,
                   PRECISION=0.5,),
                _F(NUME_ORDRE=1,
                   GROUP_NO='C',
                   REFERENCE='SOURCE_EXTERNE',
                   RESULTAT=RESU,
                   NOM_CHAM='DEPL',
                   NOM_CMP='DZ',
                   VALE_CALC=-7.21227924E-04,
                   VALE_REFE=-5.9999999999999995E-4,
                   PRECISION=0.22,),
                _F(NUME_ORDRE=1,
                   GROUP_NO='D',
                   REFERENCE='SOURCE_EXTERNE',
                   RESULTAT=RESU,
                   NOM_CHAM='DEPL',
                   NOM_CMP='DZ',
                   VALE_CALC=-3.69221423E-05,
                   VALE_REFE=-1.E-4,
                   PRECISION=0.65000000000000002,),
                ),
          )

TEST_RESU(RESU=(_F(NUME_ORDRE=1,
                   GROUP_NO='F',
                   REFERENCE='SOURCE_EXTERNE',
                   RESULTAT=RESU2,
                   NOM_CHAM='SIGM_ELNO',
                   NOM_CMP='SIXX',
                   VALE_CALC=-4.80687762E+05,
                   VALE_REFE=-3.25000E5,
                   PRECISION=0.5,
                   MAILLE='M184',),
                _F(NUME_ORDRE=1,
                   GROUP_NO='F',
                   REFERENCE='SOURCE_EXTERNE',
                   RESULTAT=RESU2,
                   NOM_CHAM='SIGM_ELNO',
                   NOM_CMP='SIYY',
                   VALE_CALC= 4.90496144E+05,
                   VALE_REFE=6.E5,
                   PRECISION=0.20000000000000001,
                   MAILLE='M184',),
                _F(NUME_ORDRE=1,
                   POINT=1,
                   SOUS_POINT=1,
                   RESULTAT=RESU,
                   NOM_CHAM='SIEF_ELGA',
                   NOM_CMP='SIXX',
                   VALE_CALC=3.02341E5,
                   TOLE_MACHINE=1.E-3,
                   MAILLE='M184',),
                _F(NUME_ORDRE=1,
                   POINT=1,
                   SOUS_POINT=1,
                   RESULTAT=RESU,
                   NOM_CHAM='SIEF_ELGA',
                   NOM_CMP='SIYY',
                   VALE_CALC=8.79983E5,
                   TOLE_MACHINE=1.E-3,
                   MAILLE='M184',),
                ),
          )

#
#---------------------------------------------------------------------
#              TEST REFERENCE BATOZ
#---------------------------------------------------------------------

TEST_RESU(RESU=(_F(NUME_ORDRE=1,
                   GROUP_NO='F',
                   REFERENCE='ANALYTIQUE',
                   RESULTAT=RESU,
                   NOM_CHAM='DEPL',
                   NOM_CMP='DX',
                   VALE_CALC= 3.73460265E-05,
                   VALE_REFE=3.4999999999999997E-05,
                   PRECISION=0.20000000000000001,),
                _F(NUME_ORDRE=1,
                   GROUP_NO='C',
                   REFERENCE='ANALYTIQUE',
                   RESULTAT=RESU,
                   NOM_CHAM='DEPL',
                   NOM_CMP='DZ',
                   VALE_CALC=-7.21227924E-04,
                   VALE_REFE=-6.9999999999999999E-4,
                   PRECISION=0.10000000000000001,),
                _F(NUME_ORDRE=1,
                   GROUP_NO='D',
                   REFERENCE='ANALYTIQUE',
                   RESULTAT=RESU,
                   NOM_CHAM='DEPL',
                   NOM_CMP='DZ',
                   VALE_CALC=-3.69221423E-05,
                   VALE_REFE=-2.5000000000000001E-05,
                   PRECISION=0.5,),
                ),
          )

#
#---------------------------------------------------------------------
#                  TEST SIGMA
#---------------------------------------------------------------------

TEST_RESU(RESU=(_F(NUME_ORDRE=1,
                   GROUP_NO='F',
                   REFERENCE='ANALYTIQUE',
                   RESULTAT=RESU2,
                   NOM_CHAM='SIGM_ELNO',
                   NOM_CMP='SIXX',
                   VALE_CALC=-4.80687762E+05,
                   VALE_REFE=-3.50000E5,
                   PRECISION=0.40000000000000002,
                   MAILLE='M184',),
                _F(NUME_ORDRE=1,
                   GROUP_NO='F',
                   REFERENCE='ANALYTIQUE',
                   RESULTAT=RESU2,
                   NOM_CHAM='SIGM_ELNO',
                   NOM_CMP='SIYY',
                   VALE_CALC= 4.90496144E+05,
                   VALE_REFE=5.E5,
                   PRECISION=0.10000000000000001,
                   MAILLE='M184',),
                ),
          )

FIN();
