# person_in_charge: ayaovi-dzifa.kudawoo at edf.fr
# ======================================================================
# COPYRIGHT (C) 1991 - 2016  EDF R&D                  WWW.CODE-ASTER.ORG
# THIS PROGRAM IS FREE SOFTWARE; YOU CAN REDISTRIBUTE IT AND/OR MODIFY
# IT UNDER THE TERMS OF THE GNU GENERAL PUBLIC LICENSE AS PUBLISHED BY
# THE FREE SOFTWARE FOUNDATION; EITHER VERSION 2 OF THE LICENSE, OR
# (AT YOUR OPTION) ANY LATER VERSION.
#
# THIS PROGRAM IS DISTRIBUTED IN THE HOPE THAT IT WILL BE USEFUL, BUT
# WITHOUT ANY WARRANTY; WITHOUT EVEN THE IMPLIED WARRANTY OF
# MERCHANTABILITY OR FITNESS FOR A PARTICULAR PURPOSE. SEE THE GNU
# GENERAL PUBLIC LICENSE FOR MORE DETAILS.
#
# YOU SHOULD HAVE RECEIVED A COPY OF THE GNU GENERAL PUBLIC LICENSE
# ALONG WITH THIS PROGRAM; IF NOT, WRITE TO EDF R&D CODE_ASTER,
#    1 AVENUE DU GENERAL DE GAULLE, 92141 CLAMART CEDEX, FRANCE.
# ======================================================================
#---------------------------------------------------------------------
#    - CALCUL QUASI-STATIQUE D'UNE PLAQUE SOUMISE A 4 CHARGES
#    - MOMENT MX  UNITAIRE ET UNIFORME
#    - MOMENT MY UNITAIRE ET UNIFORME
#    - EFFORTS TRANCHANTS TY UNITAIRE ET UNIFORME
#    - EFFORTS TRANCHANTS TZ UNITAIRE ET UNIFORME
#    - MODELISATION AVEC DES ELEMENTS 'DST'(QUAD4)
#   TEST ISSU DE DHATT-BATOZ VOL 2 PAGE 249
#---------------------------------------------------------------------
#
DEBUT(CODE=_F(NIV_PUB_WEB='INTERNET'), DEBUG=_F(SDVERI='OUI'))

#
MA = LIRE_MAILLAGE(VERI_MAIL=_F(VERIF='OUI'), )
DEFI_GROUP( reuse=MA,
                 MAILLAGE=MA,
                 CREA_GROUP_NO=_F(TOUT_GROUP_MA='OUI'),
               )

#
MO = AFFE_MODELE( MAILLAGE=MA,
                  AFFE=_F( TOUT = 'OUI',
                           PHENOMENE = 'MECANIQUE',
                           MODELISATION = 'DST')
                 )
#
MODI_MAILLAGE( reuse =MA,
                    MAILLAGE=MA,
                    ORIE_NORM_COQUE=_F( GROUP_MA='TOUT_ELT',
                                        VECT_NORM=(0.0,1.0,0.0),
                                        NOEUD='N1',),
                   )
#
#---------------------------------------------------------------------
#                         CARACTERISTIQUES ELEMENTAIRES
#---------------------------------------------------------------------
#
CAR_ELE = AFFE_CARA_ELEM( MODELE=MO,
                          COQUE=_F(
                          GROUP_MA =( 'TOUT_ELT','COTE_AB','COTE_CD','COTE_DA','COTE_BC',),
                          EPAIS = 1.,COQUE_NCOU=3,
                          ANGL_REP = (0.,-48.5,))
                        )

#
#---------------------------------------------------------------------
#                         CARACTERISTIQUES MATERIAUX
#---------------------------------------------------------------------
#
# cf batoz page 246
MAT = DEFI_MATERIAU( ELAS_ORTH=_F( E_L = 25.,
                                   E_T = 1.,
                                   G_LT = 0.5,
                                   G_LN = 0.5,
                                   G_TN = 0.2,
                                   NU_LT = 0.25,
                                   XT =10 ,
                                   XC =-10 ,
                                   YT =10E-02 ,
                                   YC =-10E-02 ,
                                   S_LT =6E-10 )
                     )
#
MULTI = DEFI_COMPOSITE( COUCHE=( _F( EPAIS = 0.25,
                                     MATER = MAT,
                                     ORIENTATION = 0.),
                                 _F( EPAIS = 0.5,
                                     MATER = MAT,
                                     ORIENTATION = -90.),
                                 _F( EPAIS = 0.25,
                                     MATER = MAT,
                                     ORIENTATION = 0.),),
                        IMPRESSION=_F(UNITE=8)
                        )

CHAM_MAT = AFFE_MATERIAU( MAILLAGE=MA,
                          AFFE=_F( TOUT = 'OUI',
                                   MATER = MULTI)
                         )

AD=48.5

ALPHA=AD*pi/180.
MX1=sin(ALPHA)
MZ1=-cos(ALPHA)


CHA1=AFFE_CHAR_MECA( MODELE=MO,
                     DDL_IMPO=(
                               _F( GROUP_MA = 'TOUT_ELT',DRY=0.),
                              ),
                     LIAISON_OBLIQUE=(
                               _F( GROUP_NO = 'COTE_DA',
                                   DX = 0.,
                                   ANGL_NAUT = (0., -48.5, 90.,),),
                               _F( GROUP_NO = 'COTE_DA',
                                   DRY=0.,
                                   ANGL_NAUT = (0., -48.5, 90.,),),
                               _F( GROUP_NO = 'COTE_DA',
                                   DZ=0.,
                                   ANGL_NAUT = (0., -48.5, 90.,),),
                               _F( GROUP_NO = ('COTE_AB','COTE_CD'),
                                   DY = 0.,
                                   ANGL_NAUT = (0., -48.5, 90.,),),
                               _F( GROUP_NO = ('COTE_AB','COTE_CD'),
                                   DRX = 0.,
                                   ANGL_NAUT = (0., -48.5, 90.,),),
                                      ),
                     FORCE_ARETE = _F( GROUP_MA = 'COTE_BC',
                                       MX=MX1,MZ=MZ1),
                      )

#
#---------------------------------------------------------------------
#                         RESOLUTION
#---------------------------------------------------------------------
#

RESU1=MECA_STATIQUE( MODELE=MO,
                      CHAM_MATER=CHAM_MAT,
                      CARA_ELEM=CAR_ELE,
                      EXCIT=_F(CHARGE = CHA1),
                       )

RESU1=CALC_CHAMP(reuse= RESU1,
                 RESULTAT=RESU1,
                 CONTRAINTE=('EFGE_ELNO',),
                 DEFORMATION=('DEGE_ELNO'),);

#
# ON TESTE QUE LES EFFORTS SONT UNIFORMES

TEST_RESU(RESU=_F(NUME_ORDRE=1,
                  REFERENCE='ANALYTIQUE',
                  TYPE_TEST='MAX',
                  RESULTAT=RESU1,
                  NOM_CHAM='EFGE_ELNO',
                  NOM_CMP='MXX',
                  VALE_CALC=1.0,
                  VALE_REFE=1.0,
                  PRECISION=1.E-3,),
          )

TEST_RESU(RESU=_F(NUME_ORDRE=1,
                  REFERENCE='ANALYTIQUE',
                  TYPE_TEST='MIN',
                  RESULTAT=RESU1,
                  NOM_CHAM='EFGE_ELNO',
                  NOM_CMP='MXX',
                  VALE_CALC=0.99999999856598,
                  VALE_REFE=1.0,
                  PRECISION=1.E-3,),
          )

TEST_RESU(RESU=_F(NUME_ORDRE=1,
                  RESULTAT=RESU1,
                  NOM_CHAM='DEGE_ELNO',
                  NOEUD='N1',
                  NOM_CMP='KXX',
                  VALE_CALC=0.54409090852718,
                  MAILLE='M1',),
          )

#---------------------------------------------------------------------
#                       CALCUL DES GRANDEURS DE RUPTURE
#---------------------------------------------------------------------
# CALCUL DES CONTRANTES DE RUPTURE A PARTIR DES LIMITES DE RUPTURE
# DEFINIES DANS DEFI_MATERIAU
#
RESU1=CALC_CHAMP(reuse =RESU1,
                 RESULTAT=RESU1,
                 CONTRAINTE=('SIGM_ELNO',),
                 DEFORMATION=('EPSI_ELNO',),);

R1S1INF=POST_CHAMP(RESULTAT=RESU1,
                    EXTR_COQUE=_F(NOM_CHAM=('SIGM_ELNO','EPSI_ELNO',),
                                  NUME_COUCHE=1,
                                  NIVE_COUCHE='INF',),);

TEST_RESU(RESU=_F(NUME_ORDRE=1,
                  REFERENCE='ANALYTIQUE',
                  RESULTAT=R1S1INF,
                  NOM_CHAM='SIGM_ELNO',
                  NOEUD='N1',
                  NOM_CMP='SIXX',
                  VALE_CALC=-6.818181811,
                  VALE_REFE=-6.82,
                  PRECISION=1.E-3,
                  MAILLE='M1',),
          )

R1S2INF=POST_CHAMP(RESULTAT=RESU1,
                    EXTR_COQUE=_F(NOM_CHAM='SIGM_ELNO',
                                  NUME_COUCHE=2,
                                  NIVE_COUCHE='INF',),);
TEST_RESU(RESU=_F(NUME_ORDRE=1,
                  REFERENCE='ANALYTIQUE',
                  RESULTAT=R1S2INF,
                  NOM_CHAM='SIGM_ELNO',
                  NOEUD='N1',
                  NOM_CMP='SIXX',
                  VALE_CALC=-0.136363636,
                  VALE_REFE=-0.135,
                  PRECISION=0.011,
                  MAILLE='M1',),
          )

TEST_RESU(RESU=_F(NUME_ORDRE=1,
                  RESULTAT=R1S1INF,
                  NOM_CHAM='EPSI_ELNO',
                  NOEUD='N1',
                  NOM_CMP='EPXX',
                  VALE_CALC=-0.27204545426359,
                  MAILLE='M1',),
          )

#
#---------------------------------------------------------------------
#                         CHARGEMENT 2
#---------------------------------------------------------------------
#
MX2=cos(ALPHA)
MZ2=sin(ALPHA)

CHA2=AFFE_CHAR_MECA(  MODELE=MO,
                      DDL_IMPO=(
                             _F( GROUP_MA = 'TOUT_ELT',DRY=0.),
                                          ),
                      LIAISON_OBLIQUE=(
                                _F( GROUP_NO = ('COTE_DA','COTE_BC',),
                                          DX = 0.,
                                    ANGL_NAUT = (0., -48.5, 90.,),
                                    ),
                                _F( GROUP_NO = ('COTE_DA','COTE_BC',),
                                          DRY=0.,
                                    ANGL_NAUT = (0., -48.5, 90.,),
                                    ),
                    _F( GROUP_NO = ('COTE_AB'),
                                          DY = 0.,
                                    ANGL_NAUT = (0., -48.5, 90.,),
                                    ),
                    _F( GROUP_NO = ('COTE_AB'),
                                         DZ=0.,
                                    ANGL_NAUT = (0., -48.5, 90.,),
                                    ),
                    _F( GROUP_NO = ('COTE_AB'),
                                          DRX = 0.,
                                    ANGL_NAUT = (0., -48.5, 90.,),
                                    ),
                                    ),
                   FORCE_ARETE=_F( GROUP_MA = 'COTE_CD',
                                   MX=MX2,MZ=MZ2),
                      )

#
#---------------------------------------------------------------------
#                         RESOLUTION
#---------------------------------------------------------------------
#

RESU2=MECA_STATIQUE( MODELE=MO,
                      CHAM_MATER=CHAM_MAT,
                      CARA_ELEM=CAR_ELE,
                      EXCIT=_F( CHARGE = CHA2),
                       )

CALC_CHAMP(reuse= RESU2,
           RESULTAT= RESU2 ,
           CONTRAINTE=('EFGE_ELNO','SIGM_ELNO'),);

# ON TESTE QUE LES EFFORTS SONT UNIFORMES

TEST_RESU(RESU=_F(NUME_ORDRE=1,
                  REFERENCE='ANALYTIQUE',
                  TYPE_TEST='MAX',
                  RESULTAT=RESU2,
                  NOM_CHAM='EFGE_ELNO',
                  NOM_CMP='MYY',
                  VALE_CALC=1.000000000,
                  VALE_REFE=1.0,
                  PRECISION=1.E-3,),
          )

TEST_RESU(RESU=_F(NUME_ORDRE=1,
                  REFERENCE='ANALYTIQUE',
                  TYPE_TEST='MIN',
                  RESULTAT=RESU2,
                  NOM_CHAM='EFGE_ELNO',
                  NOM_CMP='MYY',
                  VALE_CALC=1.0,
                  VALE_REFE=1.0,
                  PRECISION=1.E-3,),
          )

R2S1INF=POST_CHAMP(RESULTAT=RESU2,
                    EXTR_COQUE=_F(NOM_CHAM='SIGM_ELNO',
                                  NUME_COUCHE=1,
                                  NIVE_COUCHE='INF',),);
R2S2INF=POST_CHAMP(RESULTAT=RESU2,
                    EXTR_COQUE=_F(NOM_CHAM='SIGM_ELNO',
                                  NUME_COUCHE=2,
                                  NIVE_COUCHE='INF',),);
TEST_RESU(RESU=_F(NUME_ORDRE=1,
                  REFERENCE='ANALYTIQUE',
                  RESULTAT=R2S1INF,
                  NOM_CHAM='SIGM_ELNO',
                  NOEUD='N1',
                  NOM_CMP='SIYY',
                  VALE_CALC=-1.5,
                  VALE_REFE=-1.5,
                  PRECISION=1.E-3,
                  MAILLE='M1',),
          )

TEST_RESU(RESU=_F(NUME_ORDRE=1,
                  REFERENCE='ANALYTIQUE',
                  RESULTAT=R2S2INF,
                  NOM_CHAM='SIGM_ELNO',
                  NOEUD='N1',
                  NOM_CMP='SIYY',
                  VALE_CALC=-18.75,
                  VALE_REFE=-18.76,
                  PRECISION=1.E-3,
                  MAILLE='M1',),
          )

#
#---------------------------------------------------------------------
#                         CHARGEMENT 3
#---------------------------------------------------------------------
#
CHA3=AFFE_CHAR_MECA(        MODELE=MO,
                    DDL_IMPO=(
                                _F( GROUP_MA = 'TOUT_ELT',DRY=0.),
                                          ),
            LIAISON_OBLIQUE=(
                    _F( GROUP_NO = ('COTE_DA','COTE_BC'),
                                          DX = 0.,
                                    ANGL_NAUT = (0., -48.5, 90.,),
                                    ),
                    _F( GROUP_NO = ('COTE_DA','COTE_BC'),
                                      DRY=0.,
                                    ANGL_NAUT = (0., -48.5, 90.,),
                                    ),
                    _F( GROUP_NO = ('COTE_AB'),
                                          DY = 0.,
                                     ANGL_NAUT = (0., -48.5, 90.,),
                                    ),
                    _F( GROUP_NO = ('COTE_AB'),
                                          DZ = 0.,
                                    ANGL_NAUT = (0., -48.5, 90.,),
                                    ),
                    _F( GROUP_NO = ('COTE_AB'),
                                          DRX = 0.,
                                    ANGL_NAUT = (0., -48.5, 90.,),
                                    ),
                                    ),
                   FORCE_ARETE=_F( GROUP_MA = 'COTE_CD',
                                   FY=-1.)
                      )


#
#---------------------------------------------------------------------
#                         RESOLUTION
#---------------------------------------------------------------------
#

RESU3=MECA_STATIQUE(       MODELE=MO,
                         CHAM_MATER=CHAM_MAT,
                          CARA_ELEM=CAR_ELE,
                              EXCIT=_F( CHARGE = CHA3),
                          )

CALC_CHAMP(reuse= RESU3,
           RESULTAT=RESU3 ,
           CONTRAINTE=('EFGE_ELNO','SIGM_ELNO'),);

# ON TESTE QUE LES EFFORTS SONT UNIFORMES

TEST_RESU(RESU=_F(NUME_ORDRE=1,
                  REFERENCE='ANALYTIQUE',
                  TYPE_TEST='MAX',
                  RESULTAT=RESU3,
                  NOM_CHAM='EFGE_ELNO',
                  NOM_CMP='QY',
                  VALE_CALC=1.0,
                  VALE_REFE=1.0,
                  PRECISION=1.E-3,),
          )

TEST_RESU(RESU=_F(NUME_ORDRE=1,
                  REFERENCE='ANALYTIQUE',
                  TYPE_TEST='MIN',
                  RESULTAT=RESU3,
                  NOM_CHAM='EFGE_ELNO',
                  NOM_CMP='QY',
                  VALE_CALC=1.0,
                  VALE_REFE=1.0,
                  PRECISION=1.E-3,),
          )

R3S2INF=POST_CHAMP(RESULTAT=RESU3,
                    EXTR_COQUE=_F(NOM_CHAM='SIGM_ELNO',
                                  NUME_COUCHE=2,
                                  NIVE_COUCHE='INF',),);
R3S2MOY=POST_CHAMP(RESULTAT=RESU3,
                    EXTR_COQUE=_F(NOM_CHAM='SIGM_ELNO',
                                  NUME_COUCHE=2,
                                  NIVE_COUCHE='MOY',),);
TEST_RESU(RESU=_F(NUME_ORDRE=1,
                  REFERENCE='ANALYTIQUE',
                  RESULTAT=R3S2INF,
                  NOM_CHAM='SIGM_ELNO',
                  NOEUD='N1',
                  NOM_CMP='SIYZ',
                  VALE_CALC=0.281250005,
                  VALE_REFE=0.281,
                  PRECISION=1.E-3,
                  MAILLE='M1',),
          )

TEST_RESU(RESU=_F(NUME_ORDRE=1,
                  REFERENCE='ANALYTIQUE',
                  RESULTAT=R3S2MOY,
                  NOM_CHAM='SIGM_ELNO',
                  NOEUD='N1',
                  NOM_CMP='SIYZ',
                  VALE_CALC=2.625,
                  VALE_REFE=2.626,
                  PRECISION=1.E-3,
                  MAILLE='M1',),
          )

#---------------------------------------------------------------------
#                         CHARGEMENT 4
#---------------------------------------------------------------------
#

CHA4=AFFE_CHAR_MECA(        MODELE=MO,
                    DDL_IMPO=(
                                _F( GROUP_MA = 'TOUT_ELT',DRY=0.),
                                          ),
            LIAISON_OBLIQUE=(
                    _F( GROUP_NO = 'COTE_DA',
                                          DX = 0.,
                                    ANGL_NAUT = (0., -48.5, 90.,),
                                    ),
                    _F( GROUP_NO = 'COTE_DA',
                                          DRY=0.,
                                    ANGL_NAUT = (0., -48.5, 90.,),
                                    ),
                    _F( GROUP_NO = 'COTE_DA',
                                          DZ=0.,
                                    ANGL_NAUT = (0., -48.5, 90.,),
                                    ),
                    _F( GROUP_NO = ('COTE_AB','COTE_CD'),
                                          DY = 0.,
                                    ANGL_NAUT = (0., -48.5, 90.,),
                                    ),
                    _F( GROUP_NO = ('COTE_AB','COTE_CD'),
                                          DRX = 0.,
                                    ANGL_NAUT = (0., -48.5, 90.,),
                                    ),
                                    ),
                   FORCE_ARETE=_F( GROUP_MA = 'COTE_BC',
                                   FY=1.)
                      )


#
#---------------------------------------------------------------------
#                         RESOLUTION
#---------------------------------------------------------------------
#

RESU4=MECA_STATIQUE(       MODELE=MO,
                         CHAM_MATER=CHAM_MAT,
                          CARA_ELEM=CAR_ELE,
                              EXCIT=_F( CHARGE = CHA4),
                         )

CALC_CHAMP(reuse= RESU4,
           RESULTAT=RESU4 ,
           CONTRAINTE=('EFGE_ELNO','SIGM_ELNO'),);

# ON TESTE QUE LES EFFORTS SONT UNIFORMES

TEST_RESU(RESU=_F(NUME_ORDRE=1,
                  REFERENCE='ANALYTIQUE',
                  TYPE_TEST='MAX',
                  RESULTAT=RESU4,
                  NOM_CHAM='EFGE_ELNO',
                  NOM_CMP='QX',
                  VALE_CALC=1.0,
                  VALE_REFE=1.0,
                  PRECISION=1.E-3,),
          )

TEST_RESU(RESU=_F(NUME_ORDRE=1,
                  REFERENCE='ANALYTIQUE',
                  TYPE_TEST='MIN',
                  RESULTAT=RESU4,
                  NOM_CHAM='EFGE_ELNO',
                  NOM_CMP='QX',
                  VALE_CALC=1.0,
                  VALE_REFE=1.0,
                  PRECISION=1.E-3,),
          )

R4S2INF=POST_CHAMP(RESULTAT=RESU4,
                    EXTR_COQUE=_F(NOM_CHAM='SIGM_ELNO',
                                  NUME_COUCHE=2,
                                  NIVE_COUCHE='INF',),);
R4S2MOY=POST_CHAMP(RESULTAT=RESU4,
                    EXTR_COQUE=_F(NOM_CHAM='SIGM_ELNO',
                                  NUME_COUCHE=2,
                                  NIVE_COUCHE='MOY',),);
TEST_RESU(RESU=_F(NUME_ORDRE=1,
                  REFERENCE='ANALYTIQUE',
                  RESULTAT=R4S2INF,
                  NOM_CHAM='SIGM_ELNO',
                  NOEUD='N1',
                  NOM_CMP='SIXZ',
                  VALE_CALC=1.278409077,
                  VALE_REFE=1.279,
                  PRECISION=1.E-3,
                  MAILLE='M1',),
          )

TEST_RESU(RESU=_F(NUME_ORDRE=1,
                  REFERENCE='ANALYTIQUE',
                  RESULTAT=R4S2MOY,
                  NOM_CHAM='SIGM_ELNO',
                  NOEUD='N1',
                  NOM_CMP='SIXZ',
                  VALE_CALC=1.295454531,
                  VALE_REFE=1.2966,
                  PRECISION=1.E-3,
                  MAILLE='M1',),
          )

FIN()
