# MODIF  DATE 12/08/2008   AUTEUR DESROCHES X.DESROCHES 
# TITRE  :  MODELISATION D UNE COQUE DOUBLEMENT SINUSOIDALE
#            CONFIGURATION MANAGEMENT OF EDF VERSION
# ======================================================================
# COPYRIGHT (C) 1991 - 2004  EDF R&D                  WWW.CODE-ASTER.ORG
# THIS PROGRAM IS FREE SOFTWARE; YOU CAN REDISTRIBUTE IT AND/OR MODIFY
# IT UNDER THE TERMS OF THE GNU GENERAL PUBLIC LICENSE AS PUBLISHED BY
# THE FREE SOFTWARE FOUNDATION; EITHER VERSION 2 OF THE LICENSE, OR
# (AT YOUR OPTION) ANY LATER VERSION.
#
# THIS PROGRAM IS DISTRIBUTED IN THE HOPE THAT IT WILL BE USEFUL, BUT
# WITHOUT ANY WARRANTY; WITHOUT EVEN THE IMPLIED WARRANTY OF
# MERCHANTABILITY OR FITNESS FOR A PARTICULAR PURPOSE. SEE THE GNU
# GENERAL PUBLIC LICENSE FOR MORE DETAILS.
#
# YOU SHOULD HAVE RECEIVED A COPY OF THE GNU GENERAL PUBLIC LICENSE
# ALONG WITH THIS PROGRAM; IF NOT, WRITE TO EDF R&D CODE_ASTER,
#    1 AVENUE DU GENERAL DE GAULLE, 92141 CLAMART CEDEX, FRANCE.
# ======================================================================
# CALCUL QUASI-STATIQUE D'UNE COQUE SOUMIS A DIFFERENTS TYPES DE CHARGES
# FORCE LINEIQUE SELON X
# FORCE LINEIQUE SELON Y
# FORCE LINEIQUE SELON Z
# MODELISATION SHB8

DEBUT(CODE=_F(NOM='SSLS129C', NIV_PUB_WEB='INTERNET'), DEBUG=_F(SDVERI='OUI'))

PRE_GIBI();

MAIL=LIRE_MAILLAGE();

MAIL=MODI_MAILLAGE(reuse=MAIL,MAILLAGE=MAIL,
                   ORIE_SHB=_F(GROUP_MA='VOL',),
                   );

MAIL=DEFI_GROUP(reuse =MAIL,
                MAILLAGE=MAIL,
                CREA_GROUP_NO=(_F(GROUP_MA='DROITE',),
                               _F(GROUP_MA='GAUCHE',),),);
MODELE=AFFE_MODELE(MAILLAGE=MAIL,
                   AFFE=_F(GROUP_MA=('VOL','GAUCHE','DROITE',),
                           PHENOMENE='MECANIQUE',
                           MODELISATION='SHB8',),);
# DEFINITION DU MATERIAU

ACIER=DEFI_MATERIAU(ELAS=_F(E=204000.0,
                            NU=0.3,),);

CHMAT=AFFE_MATERIAU(MAILLAGE=MAIL,
                    AFFE=_F(GROUP_MA='VOL',
                            MATER=ACIER,),);
#
# DEFINITION CONDITION LIMITE

CC=AFFE_CHAR_MECA(MODELE=MODELE,
                  DDL_IMPO=_F(GROUP_MA='GAUCHE',
                              DX=0.0,
                              DY=0.0,
                              DZ=0.0,
                              ),
                );

# DEFINITION DES CHARGES

# FORCE SURFACIQUE EN X SUR LE COTE "DROIT"

FORCEX=AFFE_CHAR_MECA(MODELE=MODELE,
                      FORCE_FACE=_F(GROUP_MA='DROITE',
                                      FX=0.5,),);
# FORCE SURFACIQUE EN Y SUR LE COTE "DROIT"

FORCEY=AFFE_CHAR_MECA(MODELE=MODELE,
                      FORCE_FACE=_F(GROUP_MA='DROITE',
                                      FY=0.5,),);

# FORCE SURFACIQUE EN Z SUR LE COTE "DROIT"

FORCEZ=AFFE_CHAR_MECA(MODELE=MODELE,
                      FORCE_FACE=_F(GROUP_MA='DROITE',
                                      FZ=-0.5,),);

# RESOLUTION PAR STAT_NON_LINE

LIST=DEFI_LIST_REEL(DEBUT=0.0,
                    INTERVALLE=_F(JUSQU_A=1.0,
                                  NOMBRE=1,),);

SNL1=STAT_NON_LINE(MODELE=MODELE,
                   CHAM_MATER=CHMAT,
                   EXCIT=(_F(CHARGE=CC,),
                          _F(CHARGE=FORCEX,),),
                   COMP_INCR=_F(RELATION='ELAS',),
                   INCREMENT=_F(LIST_INST=LIST,),
                   CONVERGENCE=_F(RESI_GLOB_RELA=1e-08,),);

SNL1=CALC_ELEM(reuse =SNL1,
             RESULTAT=SNL1,
             OPTION='SIEF_ELNO_ELGA',
             );

SNL1=CALC_NO(reuse =SNL1,
             RESULTAT=SNL1,
             OPTION=('FORC_NODA','SIEF_NOEU_ELGA'),
             );
SNL2=STAT_NON_LINE(MODELE=MODELE,
                   CHAM_MATER=CHMAT,
                   EXCIT=(_F(CHARGE=CC,),
                          _F(CHARGE=FORCEY,),),
                   COMP_INCR=_F(RELATION='ELAS',),
                   INCREMENT=_F(LIST_INST=LIST,),
                   CONVERGENCE=_F(RESI_GLOB_RELA=1e-08,),);

SNL2=CALC_ELEM(reuse =SNL2,
             RESULTAT=SNL2,
             OPTION='SIEF_ELNO_ELGA',
             );

SNL2=CALC_NO(reuse =SNL2,
             RESULTAT=SNL2,
             OPTION=('FORC_NODA','SIEF_NOEU_ELGA'),
             );

SNL3=STAT_NON_LINE(MODELE=MODELE,
                   CHAM_MATER=CHMAT,
                   EXCIT=(_F(CHARGE=CC,),
                          _F(CHARGE=FORCEZ,),),
                   COMP_INCR=_F(RELATION='ELAS',),
                   INCREMENT=_F(LIST_INST=LIST,),
                   CONVERGENCE=_F(RESI_GLOB_RELA=1e-08,),);

SNL3=CALC_ELEM(reuse =SNL3,
             RESULTAT=SNL3,
             OPTION='SIEF_ELNO_ELGA',
             );

SNL3=CALC_NO(reuse =SNL3,
             RESULTAT=SNL3,
             OPTION=('FORC_NODA','SIEF_NOEU_ELGA'),
             );


PSNL1=POST_RELEVE_T(ACTION=(_F(INTITULE='PSNL1_GAUCHE',
                              GROUP_NO='GAUCHE',
                              RESULTAT=SNL1,
                              NOM_CHAM='FORC_NODA',
                              RESULTANTE=('DX','DY','DZ',),
                              MOMENT=('DRX','DRY','DRZ',),
                              POINT=(0.0,0.0,0.0,),
                              OPERATION='EXTRACTION',),
                           _F(INTITULE='PSNL1_DROITE',
                              GROUP_NO='DROITE',
                              RESULTAT=SNL1,
                              NOM_CHAM='FORC_NODA',
                              RESULTANTE=('DX','DY','DZ',),
                              MOMENT=('DRX','DRY','DRZ',),
                              POINT=(0.0,0.0,0.0,),
                              OPERATION='EXTRACTION',),
                              ),);

PSNL2=POST_RELEVE_T(ACTION=(_F(INTITULE='PSNL2_GAUCHE',
                              GROUP_NO='GAUCHE',
                              RESULTAT=SNL2,
                              NOM_CHAM='FORC_NODA',
                              RESULTANTE=('DX','DY','DZ',),
                              MOMENT=('DRX','DRY','DRZ',),
                              POINT=(0.0,0.0,0.0,),
                              OPERATION='EXTRACTION',),
                           _F(INTITULE='PSNL2_DROITE',
                              GROUP_NO='DROITE',
                              RESULTAT=SNL2,
                              NOM_CHAM='FORC_NODA',
                              RESULTANTE=('DX','DY','DZ',),
                              MOMENT=('DRX','DRY','DRZ',),
                              POINT=(0.0,0.0,0.0,),
                              OPERATION='EXTRACTION',),
                              ),);

PSNL3=POST_RELEVE_T(ACTION=(_F(INTITULE='PSNL3_GAUCHE',
                              GROUP_NO='GAUCHE',
                              RESULTAT=SNL3,
                              NOM_CHAM='FORC_NODA',
                              RESULTANTE=('DX','DY','DZ',),
                              MOMENT=('DRX','DRY','DRZ',),
                              POINT=(0.0,0.0,0.0,),
                              OPERATION='EXTRACTION',),
                           _F(INTITULE='PSNL3_DROITE',
                              GROUP_NO='DROITE',
                              RESULTAT=SNL3,
                              NOM_CHAM='FORC_NODA',
                              RESULTANTE=('DX','DY','DZ',),
                              MOMENT=('DRX','DRY','DRZ',),
                              POINT=(0.0,0.0,0.0,),
                              OPERATION='EXTRACTION',),
                              ),);


# TEST SUR LE RESULTAT STAT_NON_LINE 1

# DEPLACEMENT

TEST_RESU(RESU=_F(RESULTAT=SNL1,
                  NUME_ORDRE=1,
                  NOM_CHAM='DEPL',
                  NOM_CMP='DX',
                  GROUP_NO='B',
                  CRITERE='RELATIF',
                  PRECISION=1.E-02,
                  VALE=5.6766753846415E-03,
                  REFERENCE='AUTRE_ASTER'),);


TEST_RESU(RESU=_F(RESULTAT=SNL1,
                  NUME_ORDRE=1,
                  NOM_CHAM='DEPL',
                  NOM_CMP='DX',
                  GROUP_NO='C',
                  CRITERE='RELATIF',
                  PRECISION=1.6E-02,
                  VALE=5.8374935232020E-03,
                  REFERENCE='AUTRE_ASTER'),);


# FORCES NODALES

TEST_TABLE(       TABLE=PSNL1,
                NOM_PARA='RESULT_X',
                  FILTRE=_F(  NOM_PARA = 'INTITULE',
                           VALE_K = 'PSNL1_GAUCHE',      ),
                    VALE=-2.00000E+03,
                    PRECISION=1.5E-08,
               REFERENCE='ANALYTIQUE',
           )

TEST_TABLE(       TABLE=PSNL1,
                NOM_PARA='RESULT_X',
                  FILTRE=_F(  NOM_PARA = 'INTITULE',
                           VALE_K = 'PSNL1_DROITE',      ),
                    VALE=2.00000E+03,
                    PRECISION=1.5E-07,
               REFERENCE='ANALYTIQUE',
           )
TEST_TABLE(       TABLE=PSNL1,
                NOM_PARA='MOMENT_Y',
                  FILTRE=_F(  NOM_PARA = 'INTITULE',
                           VALE_K = 'PSNL1_GAUCHE',      ),
                    VALE=-2.00000E+04,
                    PRECISION=5.E-07,
               REFERENCE='ANALYTIQUE',
           )

TEST_TABLE(       TABLE=PSNL1,
                NOM_PARA='MOMENT_Z',
                  FILTRE=_F(  NOM_PARA = 'INTITULE',
                           VALE_K = 'PSNL1_GAUCHE',      ),
                    VALE=2.00000E+05,
                    PRECISION=1.E-08,
               REFERENCE='ANALYTIQUE',
           )

# TEST SUR LE RESULTAT STAT_NON_LINE 2

# DEPLACEMENT

TEST_RESU(RESU=_F(RESULTAT=SNL2,
                  NUME_ORDRE=1,
                  NOM_CHAM='DEPL',
                  NOM_CMP='DY',
                  GROUP_NO='B',
                  CRITERE='RELATIF',
                  PRECISION=1.5E-02,
                  VALE=1.5476384606676E-01,
                  REFERENCE='AUTRE_ASTER'),);


TEST_RESU(RESU=_F(RESULTAT=SNL2,
                  NUME_ORDRE=1,
                  NOM_CHAM='DEPL',
                  NOM_CMP='DY',
                  GROUP_NO='C',
                  CRITERE='RELATIF',
                  PRECISION=1.5E-02,
                  VALE=1.5475095620497E-01,
                  REFERENCE='AUTRE_ASTER'),);

# FORCES NODALES

TEST_TABLE(       TABLE=PSNL2,
                NOM_PARA='RESULT_Y',
                  FILTRE=_F(  NOM_PARA = 'INTITULE',
                           VALE_K = 'PSNL2_GAUCHE',      ),
                    VALE=-2.00000E+03,
               REFERENCE='ANALYTIQUE',
               PRECISION=5.E-08,
           )

TEST_TABLE(       TABLE=PSNL2,
                NOM_PARA='RESULT_Y',
                  FILTRE=_F(  NOM_PARA = 'INTITULE',
                           VALE_K = 'PSNL2_DROITE',      ),
                    VALE=2.00000E+03,
               REFERENCE='ANALYTIQUE',
               PRECISION=1.E-08,
           )

TEST_TABLE(       TABLE=PSNL2,
                NOM_PARA='MOMENT_X',
                  FILTRE=_F(  NOM_PARA = 'INTITULE',
                           VALE_K = 'PSNL2_GAUCHE',      ),
                    VALE=2.00000E+04,
               REFERENCE='ANALYTIQUE',
               PRECISION=7.E-06,
           )

TEST_TABLE(       TABLE=PSNL2,
                NOM_PARA='MOMENT_Z',
                  FILTRE=_F(  NOM_PARA = 'INTITULE',
                           VALE_K = 'PSNL2_GAUCHE',      ),
                    VALE=-1.50000E+06,
               REFERENCE='ANALYTIQUE',
               PRECISION=3.E-07,
           )


# TEST SUR LE RESULTAT STAT_NON_LINE 3

# DEPLACEMENT

TEST_RESU(RESU=_F(RESULTAT=SNL3,
                  NUME_ORDRE=1,
                  NOM_CHAM='DEPL',
                  NOM_CMP='DZ',
                  GROUP_NO='B',
                  CRITERE='RELATIF',
                  PRECISION=1.E-02,
                  VALE=-6.2097302104194,
                  REFERENCE='AUTRE_ASTER'),);


TEST_RESU(RESU=_F(RESULTAT=SNL3,
                  NUME_ORDRE=1,
                  NOM_CHAM='DEPL',
                  NOM_CMP='DZ',
                  GROUP_NO='C',
                  CRITERE='RELATIF',
                  PRECISION=1.E-02,
                  VALE=-6.2082328310698,
                  REFERENCE='AUTRE_ASTER'),);


# FORCES NODALES

TEST_TABLE(       TABLE=PSNL3,
                NOM_PARA='RESULT_Z',
                  FILTRE=_F(  NOM_PARA = 'INTITULE',
                           VALE_K = 'PSNL3_GAUCHE',      ),
                    VALE=2.00000E+03,
                  PRECISION=9.E-06,
               REFERENCE='ANALYTIQUE',
           )

TEST_TABLE(       TABLE=PSNL3,
                NOM_PARA='RESULT_Z',
                  FILTRE=_F(  NOM_PARA = 'INTITULE',
                           VALE_K = 'PSNL3_DROITE',      ),
                    VALE=-2.00000E+03,
                  PRECISION=9.E-06,
               REFERENCE='ANALYTIQUE',
           )

TEST_TABLE(       TABLE=PSNL3,
                NOM_PARA='MOMENT_X',
                  FILTRE=_F(  NOM_PARA = 'INTITULE',
                           VALE_K = 'PSNL3_GAUCHE',      ),
                    VALE=2.00000E+05,
                  PRECISION=1.E-05,
               REFERENCE='ANALYTIQUE',
           )

TEST_TABLE(       TABLE=PSNL3,
                NOM_PARA='MOMENT_Y',
                  FILTRE=_F(  NOM_PARA = 'INTITULE',
                           VALE_K = 'PSNL3_GAUCHE',      ),
                    VALE=-1.50000E+06,
                  PRECISION=1.E-05,
               REFERENCE='ANALYTIQUE',
           )

# RESOLUTION PAR MECA_STATIQUE

RESU1=MECA_STATIQUE(MODELE=MODELE,
                    CHAM_MATER=CHMAT,
                    EXCIT=(_F(CHARGE=CC,),
                           _F(CHARGE=FORCEX,),),);

RESU1=CALC_ELEM(reuse =RESU1,
             RESULTAT=RESU1,
             OPTION='SIEF_ELNO_ELGA',
             );

RESU1=CALC_NO(reuse =RESU1,
             RESULTAT=RESU1,
             OPTION=('FORC_NODA','SIEF_NOEU_ELGA'),
             );

RESU2=MECA_STATIQUE(MODELE=MODELE,
                    CHAM_MATER=CHMAT,
                    EXCIT=(_F(CHARGE=CC,),
                           _F(CHARGE=FORCEY,),),);

RESU2=CALC_ELEM(reuse =RESU2,
             RESULTAT=RESU2,
             OPTION='SIEF_ELNO_ELGA',
             );

RESU2=CALC_NO(reuse =RESU2,
             RESULTAT=RESU2,
             OPTION=('FORC_NODA','SIEF_NOEU_ELGA'),
             );

RESU3=MECA_STATIQUE(MODELE=MODELE,
                    CHAM_MATER=CHMAT,
                    EXCIT=(_F(CHARGE=CC,),
                           _F(CHARGE=FORCEZ,),),);


RESU3=CALC_ELEM(reuse =RESU3,
             RESULTAT=RESU3,
             OPTION='SIEF_ELNO_ELGA',
             );

RESU3=CALC_NO(reuse =RESU3,
             RESULTAT=RESU3,
             OPTION=('FORC_NODA','SIEF_NOEU_ELGA'),
             );

PSL1=POST_RELEVE_T(ACTION=(_F(INTITULE='PSL1_GAUCHE',
                              GROUP_NO='GAUCHE',
                              RESULTAT=RESU1,
                              NOM_CHAM='FORC_NODA',
                              RESULTANTE=('DX','DY','DZ',),
                              MOMENT=('DRX','DRY','DRZ',),
                              POINT=(0.0,0.0,0.0,),
                              OPERATION='EXTRACTION',),
                           _F(INTITULE='PSL1_DROITE',
                              GROUP_NO='DROITE',
                              RESULTAT=RESU1,
                              NOM_CHAM='FORC_NODA',
                              RESULTANTE=('DX','DY','DZ',),
                              MOMENT=('DRX','DRY','DRZ',),
                              POINT=(0.0,0.0,0.0,),
                              OPERATION='EXTRACTION',),
                              ),);

PSL2=POST_RELEVE_T(ACTION=(_F(INTITULE='PSL2_GAUCHE',
                              GROUP_NO='GAUCHE',
                              RESULTAT=RESU2,
                              NOM_CHAM='FORC_NODA',
                              RESULTANTE=('DX','DY','DZ',),
                              MOMENT=('DRX','DRY','DRZ',),
                              POINT=(0.0,0.0,0.0,),
                              OPERATION='EXTRACTION',),
                           _F(INTITULE='PSL2_DROITE',
                              GROUP_NO='DROITE',
                              RESULTAT=RESU2,
                              NOM_CHAM='FORC_NODA',
                              RESULTANTE=('DX','DY','DZ',),
                              MOMENT=('DRX','DRY','DRZ',),
                              POINT=(0.0,0.0,0.0,),
                              OPERATION='EXTRACTION',),
                              ),);

PSL3=POST_RELEVE_T(ACTION=(_F(INTITULE='PSL3_GAUCHE',
                              GROUP_NO='GAUCHE',
                              RESULTAT=RESU3,
                              NOM_CHAM='FORC_NODA',
                              RESULTANTE=('DX','DY','DZ',),
                              MOMENT=('DRX','DRY','DRZ',),
                              POINT=(0.0,0.0,0.0,),
                              OPERATION='EXTRACTION',),
                           _F(INTITULE='PSL3_DROITE',
                              GROUP_NO='DROITE',
                              RESULTAT=RESU3,
                              NOM_CHAM='FORC_NODA',
                              RESULTANTE=('DX','DY','DZ',),
                              MOMENT=('DRX','DRY','DRZ',),
                              POINT=(0.0,0.0,0.0,),
                              OPERATION='EXTRACTION',),
                              ),);

# TEST SUR LE RESULTAT MECA_STATIQUE 1

# DEPLACEMENT

TEST_RESU(RESU=_F(RESULTAT=RESU1,
                  NUME_ORDRE=1,
                  NOM_CHAM='DEPL',
                  NOM_CMP='DX',
                  GROUP_NO='B',
                  CRITERE='RELATIF',
                  PRECISION=1.E-02,
                  VALE=5.6766753846415E-03,
                  REFERENCE='AUTRE_ASTER'),);


TEST_RESU(RESU=_F(RESULTAT=RESU1,
                  NUME_ORDRE=1,
                  NOM_CHAM='DEPL',
                  NOM_CMP='DX',
                  GROUP_NO='C',
                  CRITERE='RELATIF',
                  PRECISION=1.6E-02,
                  VALE=5.8374935232020E-03,
                  REFERENCE='AUTRE_ASTER'),);


# FORCES NODALES

TEST_TABLE(       TABLE=PSL1,
                NOM_PARA='RESULT_X',
                  FILTRE=_F(  NOM_PARA = 'INTITULE',
                           VALE_K = 'PSL1_GAUCHE',      ),
                    VALE=-2.00000E+03,
                    PRECISION=1.5E-08,
               REFERENCE='ANALYTIQUE',
           )

TEST_TABLE(       TABLE=PSL1,
                NOM_PARA='RESULT_X',
                  FILTRE=_F(  NOM_PARA = 'INTITULE',
                           VALE_K = 'PSL1_DROITE',      ),
                    VALE=2.00000E+03,
                    PRECISION=1.5E-07,
               REFERENCE='ANALYTIQUE',
           )
TEST_TABLE(       TABLE=PSL1,
                NOM_PARA='MOMENT_Y',
                  FILTRE=_F(  NOM_PARA = 'INTITULE',
                           VALE_K = 'PSL1_GAUCHE',      ),
                    VALE=-2.00000E+04,
                    PRECISION=5.E-07,
               REFERENCE='ANALYTIQUE',
           )

TEST_TABLE(       TABLE=PSL1,
                NOM_PARA='MOMENT_Z',
                  FILTRE=_F(  NOM_PARA = 'INTITULE',
                           VALE_K = 'PSL1_GAUCHE',      ),
                    VALE=2.00000E+05,
                    PRECISION=1.5E-08,
               REFERENCE='ANALYTIQUE',
           )

# TEST SUR LE RESULTAT MECA_STATIQUE 2

# DEPLACEMENT

TEST_RESU(RESU=_F(RESULTAT=RESU2,
                  NUME_ORDRE=1,
                  NOM_CHAM='DEPL',
                  NOM_CMP='DY',
                  GROUP_NO='B',
                  CRITERE='RELATIF',
                  PRECISION=1.5E-02,
                  VALE=1.5476384606676E-01,
                  REFERENCE='AUTRE_ASTER'),);


TEST_RESU(RESU=_F(RESULTAT=RESU2,
                  NUME_ORDRE=1,
                  NOM_CHAM='DEPL',
                  NOM_CMP='DY',
                  GROUP_NO='C',
                  CRITERE='RELATIF',
                  PRECISION=1.5E-02,
                  VALE=1.5475095620497E-01,
                  REFERENCE='AUTRE_ASTER'),);

# FORCES NODALES

TEST_TABLE(       TABLE=PSL2,
                NOM_PARA='RESULT_Y',
                  FILTRE=_F(  NOM_PARA = 'INTITULE',
                           VALE_K = 'PSL2_GAUCHE',      ),
                    VALE=-2.00000E+03,
               REFERENCE='ANALYTIQUE',
               PRECISION=5.E-08,
           )

TEST_TABLE(       TABLE=PSL2,
                NOM_PARA='RESULT_Y',
                  FILTRE=_F(  NOM_PARA = 'INTITULE',
                           VALE_K = 'PSL2_DROITE',      ),
                    VALE=2.00000E+03,
               REFERENCE='ANALYTIQUE',
               PRECISION=1.E-08,
           )

TEST_TABLE(       TABLE=PSL2,
                NOM_PARA='MOMENT_X',
                  FILTRE=_F(  NOM_PARA = 'INTITULE',
                           VALE_K = 'PSL2_GAUCHE',      ),
                    VALE=2.00000E+04,
               REFERENCE='ANALYTIQUE',
               PRECISION=6.E-06,
           )

TEST_TABLE(       TABLE=PSL2,
                NOM_PARA='MOMENT_Z',
                  FILTRE=_F(  NOM_PARA = 'INTITULE',
                           VALE_K = 'PSL2_GAUCHE',      ),
                    VALE=-1.50000E+06,
               REFERENCE='ANALYTIQUE',
               PRECISION=3.E-07,
           )


# TEST SUR LE RESULTAT STAT_NON_LINE 3

# DEPLACEMENT

TEST_RESU(RESU=_F(RESULTAT=RESU3,
                  NUME_ORDRE=1,
                  NOM_CHAM='DEPL',
                  NOM_CMP='DZ',
                  GROUP_NO='B',
                  CRITERE='RELATIF',
                  PRECISION=1.E-02,
                  VALE=-6.2097302104194,
                  REFERENCE='AUTRE_ASTER'),);


TEST_RESU(RESU=_F(RESULTAT=RESU3,
                  NUME_ORDRE=1,
                  NOM_CHAM='DEPL',
                  NOM_CMP='DZ',
                  GROUP_NO='C',
                  CRITERE='RELATIF',
                  PRECISION=1.E-02,
                  VALE=-6.2082328310698,
                  REFERENCE='AUTRE_ASTER'),);


# FORCES NODALES

TEST_TABLE(       TABLE=PSL3,
                NOM_PARA='RESULT_Z',
                  FILTRE=_F(  NOM_PARA = 'INTITULE',
                           VALE_K = 'PSL3_GAUCHE',      ),
                    VALE=2.00000E+03,
                  PRECISION=9.E-06,
               REFERENCE='ANALYTIQUE',
           )

TEST_TABLE(       TABLE=PSL3,
                NOM_PARA='RESULT_Z',
                  FILTRE=_F(  NOM_PARA = 'INTITULE',
                           VALE_K = 'PSL3_DROITE',      ),
                    VALE=-2.00000E+03,
                  PRECISION=9.E-06,
               REFERENCE='ANALYTIQUE',
           )

TEST_TABLE(       TABLE=PSL3,
                NOM_PARA='MOMENT_X',
                  FILTRE=_F(  NOM_PARA = 'INTITULE',
                           VALE_K = 'PSL3_GAUCHE',      ),
                    VALE=2.00000E+05,
                  PRECISION=1.E-05,
               REFERENCE='ANALYTIQUE',
           )

TEST_TABLE(       TABLE=PSL3,
                NOM_PARA='MOMENT_Y',
                  FILTRE=_F(  NOM_PARA = 'INTITULE',
                           VALE_K = 'PSL3_GAUCHE',      ),
                    VALE=-1.50000E+06,
                  PRECISION=1.E-05,
               REFERENCE='ANALYTIQUE',
           )

FIN();


