# TITRE PLAQUE CIRCULAIRE ENCASTREE SOUMISE A UNE PRESSION UNIFORME
# ======================================================================
# COPYRIGHT (C) 1991 - 2012  EDF R&D                  WWW.CODE-ASTER.ORG
# THIS PROGRAM IS FREE SOFTWARE; YOU CAN REDISTRIBUTE IT AND/OR MODIFY
# IT UNDER THE TERMS OF THE GNU GENERAL PUBLIC LICENSE AS PUBLISHED BY
# THE FREE SOFTWARE FOUNDATION; EITHER VERSION 2 OF THE LICENSE, OR
# (AT YOUR OPTION) ANY LATER VERSION.
#
# THIS PROGRAM IS DISTRIBUTED IN THE HOPE THAT IT WILL BE USEFUL, BUT
# WITHOUT ANY WARRANTY; WITHOUT EVEN THE IMPLIED WARRANTY OF
# MERCHANTABILITY OR FITNESS FOR A PARTICULAR PURPOSE. SEE THE GNU
# GENERAL PUBLIC LICENSE FOR MORE DETAILS.
#
# YOU SHOULD HAVE RECEIVED A COPY OF THE GNU GENERAL PUBLIC LICENSE
# ALONG WITH THIS PROGRAM; IF NOT, WRITE TO EDF R&D CODE_ASTER,
#    1 AVENUE DU GENERAL DE GAULLE, 92141 CLAMART CEDEX, FRANCE.
# ======================================================================
# CAS_TEST__: SSLS100I
# SSLS100/I                COMMANDES                            26/03/93
#----------------------------------------------------------------------
# MODELISATION COQUE_AXIS:   21 NOEUDS -- 10 MAILLES SEG3 ; KAPPA=1.E6
#
#                    !->
#        Y !       S !N
#          !     <---!
#          !         !
#          ====================!  -------->
#          O        D          A        X
#
#                 1.0 M
#          !-------------------!
#======================================================================

DEBUT(CODE=_F(NOM='SSLS100I', NIV_PUB_WEB='INTERNET'), DEBUG=_F(SDVERI='OUI'))

#

MAILL=LIRE_MAILLAGE(   )

MAILL=DEFI_GROUP( reuse=MAILL,   MAILLAGE=MAILL,
                          CREA_GROUP_MA=_F(  NOM = 'TOUT', TOUT = 'OUI'))

MATER=DEFI_MATERIAU( ELAS=_F(  E = 1.0,    NU = 0.3,   RHO = 1234.0) )

CHMAT=AFFE_MATERIAU(  MAILLAGE=MAILL,
                          AFFE=_F(  TOUT = 'OUI',   MATER = MATER) )

MODEL=AFFE_MODELE(  MAILLAGE=MAILL,
                        AFFE=_F( TOUT = 'OUI',   MODELISATION = 'COQUE_AXIS',
                              PHENOMENE = 'MECANIQUE') )

CARELEM=AFFE_CARA_ELEM(  MODELE=MODEL,
                 COQUE=_F(  GROUP_MA = 'TOUT',
                         EPAIS = 0.1,
                         A_CIS = 1.E2,  MODI_METRIQUE = 'NON') )

MASS_INE=POST_ELEM(     MODELE=MODEL,
                          CHAM_MATER=CHMAT,
                          CARA_ELEM=CARELEM,
                         MASS_INER=_F(  GROUP_MA = 'TOUT') )

IMPR_TABLE(   TABLE=MASS_INE,
  NOM_PARA=( 'LIEU', 'ENTITE', 'MASSE', 'CDG_X', 'CDG_Y', 'CDG_Z', )
              )

IMPR_TABLE(   TABLE=MASS_INE,
  NOM_PARA=( 'LIEU', 'ENTITE', 'IX_G', 'IY_G', 'IZ_G',
                    'IXY_G', 'IXZ_G', 'IYZ_G', )
              )

IMPR_TABLE(   TABLE=MASS_INE,
  NOM_PARA=( 'LIEU', 'ENTITE', 'IX_PRIN_G', 'IY_PRIN_G', 'IZ_PRIN_G',
                    'ALPHA', 'BETA', 'GAMMA', )
              )

TEST_TABLE(REFERENCE='ANALYTIQUE',
           VALE_CALC=387.672533453,
           VALE_REFE=387.67253345300003,
           NOM_PARA='MASSE',
           TABLE=MASS_INE,
           FILTRE=_F(NOM_PARA='LIEU',
                     VALE_K='TOUT',),
           )

TEST_TABLE(REFERENCE='ANALYTIQUE',
           PRECISION=4.0000000000000001E-3,
           VALE_CALC=96.918133363,
           VALE_REFE=97.2411938077,
           NOM_PARA='IX_G',
           TABLE=MASS_INE,
           FILTRE=_F(NOM_PARA='LIEU',
                     VALE_K='TOUT',),
           )

TEST_TABLE(REFERENCE='ANALYTIQUE',
           PRECISION=4.0000000000000001E-3,
           VALE_CALC=96.918133363,
           VALE_REFE=97.2411938077,
           NOM_PARA='IY_G',
           TABLE=MASS_INE,
           FILTRE=_F(NOM_PARA='LIEU',
                     VALE_K='TOUT',),
           )

TEST_TABLE(REFERENCE='ANALYTIQUE',
           VALE_CALC=193.836266726,
           VALE_REFE=193.83626672599999,
           NOM_PARA='IZ_G',
           TABLE=MASS_INE,
           FILTRE=_F(NOM_PARA='LIEU',
                     VALE_K='TOUT',),
           )

ZERO=DEFI_CONSTANTE(    VALE=0.0 )

VAL_FY=DEFI_CONSTANTE(    VALE=-1. )

CHARGE=AFFE_CHAR_MECA_F(  MODELE=MODEL,DDL_IMPO=(
              _F( NOEUD = 'A',   DX = ZERO, DY = ZERO, DRZ = ZERO),
              _F( NOEUD = 'O',                         DRZ = ZERO)),
           FORCE_COQUE=_F(  TOUT = 'OUI',   FY = VAL_FY)   )

RESU=MECA_STATIQUE(    MODELE=MODEL, CHAM_MATER=CHMAT,
                       SOLVEUR=_F(NPREC=9),
                               CARA_ELEM=CARELEM,
                               EXCIT=_F(  CHARGE = CHARGE)       )

RESU=CALC_CHAMP(reuse=RESU,
                RESULTAT=RESU,
                CONTRAINTE=('SIGM_ELNO','EFGE_ELNO',),
                DEFORMATION=('DEGE_ELNO','DEGE_ELGA',),);

RESC1SUP=POST_CHAMP(RESULTAT=RESU,
                     EXTR_COQUE=_F(NOM_CHAM='SIGM_ELNO',
                                   NUME_COUCHE=1,
                                   NIVE_COUCHE='SUP',),);
TEST_RESU(RESU=(_F(NUME_ORDRE=1,
                   RESULTAT=RESC1SUP,
                   NOM_CHAM='SIGM_ELNO',
                   NOEUD='O',
                   NOM_CMP='SIXX',
                   VALE_CALC=-48.968446513,
                   VALE_REFE=-49.049999999999997,
                   REFERENCE='NON_DEFINI',
                   PRECISION=1.E-2,
                   MAILLE='STU',),
                _F(NUME_ORDRE=1,
                   RESULTAT=RESC1SUP,
                   NOM_CHAM='SIGM_ELNO',
                   NOEUD='O',
                   NOM_CMP='SIYY',
                   VALE_CALC=-48.968446513,
                   VALE_REFE=-49.049999999999997,
                   REFERENCE='NON_DEFINI',
                   PRECISION=1.E-2,
                   MAILLE='STU',),
                ),
          )

#--------------------------------------------------------------------

TEST_RESU(RESU=(_F(NUME_ORDRE=1,
                   REFERENCE='ANALYTIQUE',
                   RESULTAT=RESU,
                   NOM_CHAM='DEPL',
                   NOEUD='O',
                   NOM_CMP='DY',
                   VALE_CALC=-169.938724832,
                   VALE_REFE=-170.625,
                   CRITERE='RELATIF',
                   PRECISION=6.0000000000000001E-3,),
                _F(NUME_ORDRE=1,
                   REFERENCE='ANALYTIQUE',
                   RESULTAT=RESU,
                   NOM_CHAM='DEPL',
                   NOEUD='D',
                   NOM_CMP='DY',
                   VALE_CALC=-95.205899621,
                   VALE_REFE=-95.976500000000001,
                   CRITERE='RELATIF',
                   PRECISION=1.E-2,),
                _F(NUME_ORDRE=1,
                   REFERENCE='ANALYTIQUE',
                   RESULTAT=RESU,
                   NOM_CHAM='DEPL',
                   NOEUD='D',
                   NOM_CMP='DRZ',
                   VALE_CALC=256.974554127,
                   VALE_REFE=255.94,
                   CRITERE='RELATIF',
                   PRECISION=6.0000000000000001E-3,),
                _F(NUME_ORDRE=1,
                   REFERENCE='ANALYTIQUE',
                   RESULTAT=RESU,
                   NOM_CHAM='DEGE_ELNO',
                   NOEUD='D',
                   NOM_CMP='KXX',
                   VALE_CALC=-74.348139897,
                   VALE_REFE=-170.625,
                   CRITERE='RELATIF',
                   PRECISION=0.66000000000000003,
                   MAILLE='IJK',),
                _F(NUME_ORDRE=1,
                   REFERENCE='ANALYTIQUE',
                   RESULTAT=RESU,
                   NOM_CHAM='DEGE_ELNO',
                   NOEUD='D',
                   NOM_CMP='KXX',
                   VALE_CALC=-253.992787422,
                   VALE_REFE=-170.625,
                   CRITERE='RELATIF',
                   PRECISION=0.59999999999999998,
                   MAILLE='KLM',),
                _F(NUME_ORDRE=1,
                   REFERENCE='ANALYTIQUE',
                   RESULTAT=RESU,
                   NOM_CHAM='DEGE_ELNO',
                   NOEUD='D',
                   NOM_CMP='KYY',
                   VALE_CALC=-512.260923266,
                   VALE_REFE=-511.875,
                   CRITERE='RELATIF',
                   PRECISION=5.0000000000000001E-3,
                   MAILLE='IJK',),
                _F(NUME_ORDRE=1,
                   REFERENCE='ANALYTIQUE',
                   RESULTAT=RESU,
                   NOM_CHAM='DEGE_ELNO',
                   NOEUD='D',
                   NOM_CMP='KYY',
                   VALE_CALC=-512.447893114,
                   VALE_REFE=-511.875,
                   CRITERE='RELATIF',
                   PRECISION=5.0000000000000001E-3,
                   MAILLE='KLM',),
                _F(NUME_ORDRE=1,
                   REFERENCE='NON_DEFINI',
                   POINT=1,
                   RESULTAT=RESU,
                   NOM_CHAM='DEGE_ELGA',
                   NOM_CMP='KXX',
                   VALE_CALC=-65.024576757,
                   VALE_REFE=-170.625,
                   CRITERE='RELATIF',
                   PRECISION=0.66000000000000003,
                   MAILLE='IJK',),
                _F(NUME_ORDRE=1,
                   REFERENCE='NON_DEFINI',
                   POINT=2,
                   RESULTAT=RESU,
                   NOM_CHAM='DEGE_ELGA',
                   NOM_CMP='KXX',
                   VALE_CALC=-261.634475968,
                   VALE_REFE=-170.625,
                   CRITERE='RELATIF',
                   PRECISION=0.59999999999999998,
                   MAILLE='KLM',),
                _F(NUME_ORDRE=1,
                   REFERENCE='NON_DEFINI',
                   POINT=3,
                   RESULTAT=RESU,
                   NOM_CHAM='DEGE_ELGA',
                   NOM_CMP='KYY',
                   VALE_CALC=-507.914821527,
                   VALE_REFE=-511.875,
                   CRITERE='RELATIF',
                   PRECISION=1.E-2,
                   MAILLE='IJK',),
                _F(NUME_ORDRE=1,
                   REFERENCE='NON_DEFINI',
                   POINT=4,
                   RESULTAT=RESU,
                   NOM_CHAM='DEGE_ELGA',
                   NOM_CMP='KYY',
                   VALE_CALC=-517.598471020,
                   VALE_REFE=-511.875,
                   CRITERE='RELATIF',
                   PRECISION=0.014999999999999999,
                   MAILLE='KLM',),
                _F(NUME_ORDRE=1,
                   REFERENCE='ANALYTIQUE',
                   RESULTAT=RESU,
                   NOM_CHAM='EFGE_ELNO',
                   NOEUD='A',
                   NOM_CMP='MXX',
                   VALE_CALC=0.109406054,
                   VALE_REFE=0.125,
                   CRITERE='RELATIF',
                   PRECISION=0.14999999999999999,
                   MAILLE='ABC',),
                _F(NUME_ORDRE=1,
                   REFERENCE='ANALYTIQUE',
                   RESULTAT=RESU,
                   NOM_CHAM='EFGE_ELNO',
                   NOEUD='A',
                   NOM_CMP='MYY',
                   VALE_CALC=0.032950114,
                   VALE_REFE=0.037499999999999999,
                   CRITERE='RELATIF',
                   PRECISION=0.14999999999999999,
                   MAILLE='ABC',),
                _F(NUME_ORDRE=1,
                   REFERENCE='ANALYTIQUE',
                   RESULTAT=RESU,
                   NOM_CHAM='EFGE_ELNO',
                   NOEUD='D',
                   NOM_CMP='MYY',
                   VALE_CALC=-0.048952872,
                   VALE_REFE=-0.051560000000000002,
                   CRITERE='RELATIF',
                   PRECISION=0.059999999999999998,
                   MAILLE='IJK',),
                _F(NUME_ORDRE=1,
                   REFERENCE='ANALYTIQUE',
                   RESULTAT=RESU,
                   NOM_CHAM='EFGE_ELNO',
                   NOEUD='D',
                   NOM_CMP='MYY',
                   VALE_CALC=-0.053905287,
                   VALE_REFE=-0.051560000000000002,
                   CRITERE='RELATIF',
                   PRECISION=0.059999999999999998,
                   MAILLE='KLM',),
                _F(NUME_ORDRE=1,
                   REFERENCE='ANALYTIQUE',
                   RESULTAT=RESU,
                   NOM_CHAM='EFGE_ELNO',
                   NOEUD='O',
                   NOM_CMP='MXX',
                   VALE_CALC=-0.081614078,
                   VALE_REFE=-0.081250000000000003,
                   CRITERE='RELATIF',
                   PRECISION=5.0000000000000001E-3,
                   MAILLE='STU',),
                _F(NUME_ORDRE=1,
                   REFERENCE='ANALYTIQUE',
                   RESULTAT=RESU,
                   NOM_CHAM='EFGE_ELNO',
                   NOEUD='O',
                   NOM_CMP='MYY',
                   VALE_CALC=-0.081614078,
                   VALE_REFE=-0.081250000000000003,
                   CRITERE='RELATIF',
                   PRECISION=5.0000000000000001E-3,
                   MAILLE='STU',),
                ),
          )

FIN( )
#
