# MODIF  DATE 30/08/2010   AUTEUR PELLET J.PELLET 
# RESPONSABLE JMBHH01 J.M.PROIX
# TITRE PLAQUE STRATIFIEE EN FLEXION - DSQ - B/A = 1
#            CONFIGURATION MANAGEMENT OF EDF VERSION
# ======================================================================
# COPYRIGHT (C) 1991 - 2001  EDF R&D                  WWW.CODE-ASTER.ORG
# THIS PROGRAM IS FREE SOFTWARE; YOU CAN REDISTRIBUTE IT AND/OR MODIFY
# IT UNDER THE TERMS OF THE GNU GENERAL PUBLIC LICENSE AS PUBLISHED BY
# THE FREE SOFTWARE FOUNDATION; EITHER VERSION 2 OF THE LICENSE, OR
# (AT YOUR OPTION) ANY LATER VERSION.
#
# THIS PROGRAM IS DISTRIBUTED IN THE HOPE THAT IT WILL BE USEFUL, BUT
# WITHOUT ANY WARRANTY; WITHOUT EVEN THE IMPLIED WARRANTY OF
# MERCHANTABILITY OR FITNESS FOR A PARTICULAR PURPOSE. SEE THE GNU
# GENERAL PUBLIC LICENSE FOR MORE DETAILS.
#
# YOU SHOULD HAVE RECEIVED A COPY OF THE GNU GENERAL PUBLIC LICENSE
# ALONG WITH THIS PROGRAM; IF NOT, WRITE TO EDF R&D CODE_ASTER,
#    1 AVENUE DU GENERAL DE GAULLE, 92141 CLAMART CEDEX, FRANCE.
# ======================================================================
# SSLS111B
# PLAQUE DE STRATIFIE RECTANGULAIRE EXCENTREE
# CALCUL 1 : 1 BICOUCHE , CE CALCUL SERT DE REFERENCE
# CALCUL 2 : 2 MONOCOUCHES EXCENTRES
# LE BICOUCHE PRESENTE UNE SYMETRIE MATERIELLE PAR RAPPORT AU
# PLAN MOYEN
# MODELISATION DST
#             66 NOEUDS  100 MAILLES TRI3
#----------------------------------------------------------------------
#POINTS:  A4                          A3
#           -------------------------
#           -                       -
#           -                       -
#           -                       -
#           -                       -
#           -------------------------
#         A1                          A2
#
# ______________________________________________________________________
#
#
#


DEBUT(CODE=_F(NOM='SSLS111C',NIV_PUB_WEB='INTERNET'),DEBUG=_F(SDVERI='OUI'))
#
#
#


PRE_GIBI();

MA1=LIRE_MAILLAGE();

DEFI_GROUP(reuse =MA1,
               MAILLAGE=MA1,
               CREA_GROUP_MA=_F(NOM='TOUT',
                                TOUT='OUI',),);

MA=CREA_MAILLAGE(MAILLAGE=MA1,
                 CREA_GROUP_MA=_F(NOM='PLAQ2',
                                  GROUP_MA='PLAQ1',
                                  PREF_MAILLE='MAIL',),);

DEFI_GROUP(reuse =MA,
              MAILLAGE=MA,
              CREA_GROUP_NO=(_F(GROUP_MA='PLAQ1',
                                NOM='PLAQ1',),
                             _F(GROUP_MA='PLAQ2',
                                NOM='PLAQ2',),),);
# 2 PLAQUES EXCENTREES
#
#
#
#
#


MO=AFFE_MODELE(MAILLAGE=MA,
               AFFE=_F(TOUT='OUI',
                       PHENOMENE='MECANIQUE',
                       MODELISATION='DST',),);
# UNE PLAQUE BICOUCHE
#
#
#
#
#


MO1=AFFE_MODELE(MAILLAGE=MA,
                AFFE=_F(GROUP_MA='PLAQ1',
                        PHENOMENE='MECANIQUE',
                        MODELISATION='DST',),);

EP=AFFE_CARA_ELEM(MODELE=MO,
                  COQUE=(_F(GROUP_MA='TOUT',
                            EPAIS=0.20000000000000001,
                            INER_ROTA='OUI',),
                         _F(GROUP_MA='PLAQ1',
                            EPAIS=0.20000000000000001,
                            ANGL_REP=(0.0,0.0),
                            EXCENTREMENT=0.10000000000000001,
                            INER_ROTA='OUI',),
                         _F(GROUP_MA='PLAQ2',
                            EPAIS=0.20000000000000001,
                            ANGL_REP=(0.0,0.0),
                            EXCENTREMENT=-0.10000000000000001,
                            INER_ROTA='OUI',),),);

EP1=AFFE_CARA_ELEM(MODELE=MO1,
                   COQUE=_F(GROUP_MA='TOUT',
                            EPAIS=0.40000000000000002,
                            COQUE_NCOU=2,
                            ANGL_REP=(0.0,0.0),
                            INER_ROTA='OUI',),);

MATA=DEFI_MATERIAU(ELAS_ORTH=_F(E_L=2.E10,
                                E_T=2.E10,
                                NU_LT=0.29999999999999999,
                                G_LT=2.E9,
                                RHO=1000.0,),);

MATB=DEFI_MATERIAU(ELAS_ORTH=_F(E_L=1.5000000000E10,
                                E_T=1.5000000000E10,
                                NU_LT=0.29999999999999999,
                                G_LT=1.500000000E9,
                                RHO=1000.0,),);

MU1=DEFI_COQU_MULT(COUCHE=(_F(EPAIS=0.20000000000000001,
                              MATER=MATB,
                              ORIENTATION=0.0,),
                           _F(EPAIS=0.20000000000000001,
                              MATER=MATA,
                              ORIENTATION=0.0,),),);

MUA=DEFI_COQU_MULT(COUCHE=_F(EPAIS=0.20000000000000001,
                             MATER=MATA,
                             ORIENTATION=0.0,),);

MUB=DEFI_COQU_MULT(COUCHE=_F(EPAIS=0.20000000000000001,
                             MATER=MATB,
                             ORIENTATION=0.0,),);

CHMAT=AFFE_MATERIAU(MAILLAGE=MA,
                    AFFE=(_F(GROUP_MA='PLAQ1',
                             MATER=MUA,),
                          _F(GROUP_MA='PLAQ2',
                             MATER=MUB,),),);

CHMUL1=AFFE_MATERIAU(MAILLAGE=MA,
                     AFFE=_F(TOUT='OUI',
                             MATER=MU1,),);

CHME=AFFE_CHAR_MECA(MODELE=MO,
                    DDL_IMPO=(_F(GROUP_NO='A1',
                                 DX=0.0,
                                 DY=0.0,
                                 DZ=0.0,
                                 DRX=0.0,
                                 DRY=0.0,
                                 DRZ=0.0,),
                              _F(GROUP_NO='A2',
                                 DX=0.0,
                                 DY=0.0,),),
                    FORCE_NODALE=_F(GROUP_NO='A3',
                                    FZ=-1000.0,),
                    FORCE_COQUE=_F(MAILLE=('M1','M2','M3'),
                                   FX=200.0,
                                   FY=-500.0,
                                   FZ=-500.0,
                                   PLAN='SUP',),);

CHME1=AFFE_CHAR_MECA(MODELE=MO1,
                     DDL_IMPO=(_F(GROUP_NO='A1',
                                  DX=0.0,
                                  DY=0.0,
                                  DZ=0.0,
                                  DRX=0.0,
                                  DRY=0.0,
                                  DRZ=0.0,),
                               _F(GROUP_NO='A2',
                                  DX=0.0,
                                  DY=0.0,),),
                     FORCE_NODALE=_F(GROUP_NO='A3',
                                     FZ=-1000.0,),
                     FORCE_COQUE=_F(MAILLE=('M1','M2','M3'),
                                    FX=200.0,
                                    FY=-500.0,
                                    FZ=-500.0,
                                    MX=100.0,
                                    MY=40.0,
                                    PLAN='MAIL',),);
# ______________________________________________________________________
#
#                         2 PLAQUES EXCENTREES
# ______________________________________________________________________
#
#


MEL=CALC_MATR_ELEM(OPTION='RIGI_MECA',
                   MODELE=MO,
                   CHAM_MATER=CHMAT,
                   CARA_ELEM=EP,
                   CHARGE=CHME,);

MASEL=CALC_MATR_ELEM(OPTION='MASS_MECA',
                     MODELE=MO,
                     CHAM_MATER=CHMAT,
                     CARA_ELEM=EP,
                     CHARGE=CHME,);

VEL=CALC_VECT_ELEM(OPTION='CHAR_MECA',
                   CHARGE=CHME,
                   CHAM_MATER=CHMAT,
                   CARA_ELEM=EP,);

NU=NUME_DDL(MATR_RIGI=MEL,);

MATASS=ASSE_MATRICE(MATR_ELEM=MEL,
                    NUME_DDL=NU,);

MATASM=ASSE_MATRICE(MATR_ELEM=MASEL,
                    NUME_DDL=NU,);

VECASS=ASSE_VECTEUR(VECT_ELEM=VEL,
                    NUME_DDL=NU,);

MODES=MODE_ITER_SIMULT(MATR_A=MATASS,
                       MATR_B=MATASM,
                       CALC_FREQ=_F(OPTION='PLUS_PETITE',
                                    NMAX_FREQ=4,),);

MESTAT=MECA_STATIQUE(MODELE=MO,
                     CHAM_MATER=CHMAT,
                     CARA_ELEM=EP,
                     EXCIT=_F(CHARGE=CHME,),);

EFSUP=CALC_ELEM(GROUP_MA='PLAQ1',
                OPTION='EFGE_ELNO_DEPL',
                RESULTAT=MESTAT,
                REPE_COQUE=_F(PLAN='MAIL',),);

EFINF=CALC_ELEM(
                GROUP_MA='PLAQ2',
                OPTION='EFGE_ELNO_DEPL',
                RESULTAT=MESTAT,
                REPE_COQUE=_F(PLAN='MAIL',),);

CALC_NO(reuse =EFSUP,
              RESULTAT=EFSUP,
              OPTION='EFGE_NOEU_DEPL',


              GROUP_MA='PLAQ1',);

CALC_NO(reuse =EFINF,
              RESULTAT=EFINF,
              OPTION='EFGE_NOEU_DEPL',


              GROUP_MA='PLAQ2',);

DEP=CREA_CHAMP(TYPE_CHAM='NOEU_DEPL_R',
               OPERATION='EXTR',
               RESULTAT=MESTAT,
               NOM_CHAM='DEPL',);

EFNSUP=CREA_CHAMP(TYPE_CHAM='NOEU_SIEF_R',
                  OPERATION='EXTR',
                  RESULTAT=EFSUP,
                  NOM_CHAM='EFGE_NOEU_DEPL',);

EFNINF=CREA_CHAMP(TYPE_CHAM='NOEU_SIEF_R',
                  OPERATION='EXTR',
                  RESULTAT=EFINF,
                  NOM_CHAM='EFGE_NOEU_DEPL',);

EFF=CREA_CHAMP(TYPE_CHAM='NOEU_SIEF_R',
               OPERATION='ASSE',
               MAILLAGE=MA,
               ASSE=(_F(TOUT='OUI',
                        CHAM_GD=EFNINF,
                        CUMUL='OUI',
                        COEF_R=1.0,),
                     _F(TOUT='OUI',
                        CHAM_GD=EFNSUP,
                        CUMUL='OUI',
                        COEF_R=1.0,),),);
#  PLAQUE BICOUCHE
#
#
#
#
#


MEL1=CALC_MATR_ELEM(OPTION='RIGI_MECA',
                    MODELE=MO1,
                    CHAM_MATER=CHMUL1,
                    CARA_ELEM=EP1,
                    CHARGE=CHME1,);

MASEL1=CALC_MATR_ELEM(OPTION='MASS_MECA',
                      MODELE=MO1,
                      CHAM_MATER=CHMUL1,
                      CARA_ELEM=EP1,
                      CHARGE=CHME1,);

VEL1=CALC_VECT_ELEM(OPTION='CHAR_MECA',
                    CHARGE=CHME1,
                    CHAM_MATER=CHMUL1,
                    CARA_ELEM=EP1,);

NU1=NUME_DDL(MATR_RIGI=MEL1,);

MATASS1=ASSE_MATRICE(MATR_ELEM=MEL1,
                     NUME_DDL=NU1,);

MATASM1=ASSE_MATRICE(MATR_ELEM=MASEL1,
                     NUME_DDL=NU1,);

VECASS1=ASSE_VECTEUR(VECT_ELEM=VEL1,
                     NUME_DDL=NU1,);

MODE1=MODE_ITER_SIMULT(MATR_A=MATASS1,
                       MATR_B=MATASM1,
                       CALC_FREQ=_F(OPTION='PLUS_PETITE',
                                    NMAX_FREQ=4,),);


MESTAT1=MECA_STATIQUE(MODELE=MO1,
                       CHAM_MATER=CHMUL1,
                       CARA_ELEM=EP1,
                       EXCIT=_F(CHARGE=CHME1,),
                       );

CALC_ELEM( reuse= MESTAT1 ,RESULTAT= MESTAT1 ,
                       OPTION='EFGE_ELNO_DEPL',);

CALC_NO(reuse =MESTAT1,
                RESULTAT=MESTAT1,
                OPTION='EFGE_NOEU_DEPL',
                );

DEP1=CREA_CHAMP(TYPE_CHAM='NOEU_DEPL_R',
                OPERATION='EXTR',
                RESULTAT=MESTAT1,
                NOM_CHAM='DEPL',);

EFF1=CREA_CHAMP(TYPE_CHAM='NOEU_SIEF_R',
                OPERATION='EXTR',
                RESULTAT=MESTAT1,
                NOM_CHAM='EFGE_NOEU_DEPL',);

#  PLAQUE BICOUCHE SERT DE REFERENCE
#
TEST_RESU(CHAM_NO=(_F(CHAM_GD=DEP1,
                      GROUP_NO='A3',
                      NOM_CMP='DX',
                      VALE=-6.4967858152543997E-06,
                      REFERENCE='NON_REGRESSION',
                      VERSION='6.2.13',),
                   _F(CHAM_GD=DEP1,
                      GROUP_NO='A3',
                      NOM_CMP='DY',
                      VALE=-6.0893243064038996E-07,
                      REFERENCE='NON_REGRESSION',
                      VERSION='6.2.13',),
                   _F(CHAM_GD=DEP1,
                      GROUP_NO='A3',
                      NOM_CMP='DZ',
                      VALE=-5.3384436672281998E-3,
                      REFERENCE='NON_REGRESSION',
                      VERSION='6.2.13',),
                   _F(CHAM_GD=DEP1,
                      GROUP_NO='A3',
                      NOM_CMP='DRX',
                      VALE=-4.2918239158320001E-4,
                      REFERENCE='NON_REGRESSION',
                      VERSION='6.2.13',),
                   _F(CHAM_GD=DEP1,
                      GROUP_NO='A3',
                      NOM_CMP='DRY',
                      VALE=4.7560194094256001E-4,
                      REFERENCE='NON_REGRESSION',
                      VERSION='6.2.13',),
                   _F(CHAM_GD=DEP1,
                      NOEUD='N53',
                      NOM_CMP='DX',
                      VALE=-3.5829337426419E-06,
                      REFERENCE='NON_REGRESSION',
                      VERSION='6.2.13',),
                   _F(CHAM_GD=DEP1,
                      NOEUD='N53',
                      NOM_CMP='DY',
                      VALE=-1.1878834008611001E-06,
                      REFERENCE='NON_REGRESSION',
                      VERSION='6.2.13',),
                   _F(CHAM_GD=DEP1,
                      NOEUD='N53',
                      NOM_CMP='DZ',
                      VALE=-3.6388530257862998E-3,
                      REFERENCE='NON_REGRESSION',
                      VERSION='6.2.13',),
                   _F(CHAM_GD=DEP1,
                      NOEUD='N53',
                      NOM_CMP='DRX',
                      VALE=-4.0517546206615999E-4,
                      REFERENCE='NON_REGRESSION',
                      VERSION='6.2.13',),
                   _F(CHAM_GD=DEP1,
                      NOEUD='N53',
                      NOM_CMP='DRY',
                      VALE=4.2311672014173001E-4,
                      REFERENCE='NON_REGRESSION',
                      VERSION='6.2.13',),
                   _F(CHAM_GD=EFF1,
                      GROUP_NO='A1',
                      NOM_CMP='NXX',
                      VALE=1.7000514418737999E4,
                      REFERENCE='NON_REGRESSION',
                      VERSION='6.2.13',),
                   _F(CHAM_GD=EFF1,
                      GROUP_NO='A1',
                      NOM_CMP='NYY',
                      VALE=1.1443847736616999E4,
                      REFERENCE='NON_REGRESSION',
                      VERSION='6.2.13',),
                   _F(CHAM_GD=EFF1,
                      GROUP_NO='A1',
                      NOM_CMP='NXY',
                      VALE=3535.9843435229,
                      REFERENCE='NON_REGRESSION',
                      VERSION='6.2.13',),
                   _F(CHAM_GD=EFF1,
                      GROUP_NO='A1',
                      NOM_CMP='MXX',
                      VALE=2.1458517334156E4,
                      REFERENCE='NON_REGRESSION',
                      VERSION='6.2.13',),
                   _F(CHAM_GD=EFF1,
                      GROUP_NO='A1',
                      NOM_CMP='MYY',
                      VALE=1.5309443848404E4,
                      REFERENCE='NON_REGRESSION',
                      VERSION='6.2.13',),
                   _F(CHAM_GD=EFF1,
                      GROUP_NO='A1',
                      NOM_CMP='MXY',
                      VALE=5713.3191669495,
                      REFERENCE='NON_REGRESSION',
                      VERSION='6.2.13',),
                   _F(CHAM_GD=EFF1,
                      GROUP_NO='A1',
                      NOM_CMP='QX',
                      VALE=-3033.8093625410002,
                      REFERENCE='NON_REGRESSION',
                      VERSION='6.2.13',),
                   _F(CHAM_GD=EFF1,
                      GROUP_NO='A1',
                      NOM_CMP='QY',
                      VALE=1764.3682622700001,
                      REFERENCE='NON_REGRESSION',
                      VERSION='6.2.13',),),
          RESU=(_F(RESULTAT=MODE1,
                   NUME_ORDRE=1,
                   PARA='FREQ',
                   VALE=1.0118185315754999,
                   CRITERE='RELATIF',
                   REFERENCE='NON_REGRESSION',
                   VERSION='6.2.13',),
                _F(RESULTAT=MODE1,
                   NUME_ORDRE=2,
                   PARA='FREQ',
                   VALE=4.2700335794153004,
                   CRITERE='RELATIF',
                   REFERENCE='NON_REGRESSION',
                   VERSION='6.2.13',),
                _F(RESULTAT=MODE1,
                   NUME_ORDRE=3,
                   PARA='FREQ',
                   VALE=8.3915135887214998,
                   CRITERE='RELATIF',
                   REFERENCE='NON_REGRESSION',
                   VERSION='6.2.13',),
                _F(RESULTAT=MODE1,
                   NUME_ORDRE=4,
                   PARA='FREQ',
                   VALE=17.230543649185002,
                   CRITERE='RELATIF',
                   REFERENCE='NON_REGRESSION',
                   VERSION='6.2.13',),),);
#
#
# ______________________________________________________________________
#
#                         2 PLAQUES EXCENTREES
# ______________________________________________________________________
#
# N53 : POINT DE COORDONNEES (9,2,0)
#


TEST_RESU(CHAM_NO=(_F(CHAM_GD=DEP,
                      GROUP_NO='A3',
                      NOM_CMP='DX',
                      VALE=-6.4967858152543997E-06,
                      PRECISION=1.E-2,
                      REFERENCE='AUTRE_ASTER',),
                   _F(CHAM_GD=DEP,
                      GROUP_NO='A3',
                      NOM_CMP='DY',
                      VALE=-6.0893243064038996E-07,
                      PRECISION=1.E-2,
                      REFERENCE='AUTRE_ASTER',),
                   _F(CHAM_GD=DEP,
                      GROUP_NO='A3',
                      NOM_CMP='DZ',
                      VALE=-5.3384436672281998E-3,
                      PRECISION=1.E-2,
                      REFERENCE='AUTRE_ASTER',),
                   _F(CHAM_GD=DEP,
                      GROUP_NO='A3',
                      NOM_CMP='DRX',
                      VALE=-4.2918239158320001E-4,
                      PRECISION=1.E-2,
                      REFERENCE='AUTRE_ASTER',),
                   _F(CHAM_GD=DEP,
                      GROUP_NO='A3',
                      NOM_CMP='DRY',
                      VALE=4.7560194094256001E-4,
                      PRECISION=1.E-2,
                      REFERENCE='AUTRE_ASTER',),
                   _F(CHAM_GD=DEP,
                      NOEUD='N53',
                      NOM_CMP='DX',
                      VALE=-3.5829337426419E-06,
                      PRECISION=1.E-2,
                      REFERENCE='AUTRE_ASTER',),
                   _F(CHAM_GD=DEP,
                      NOEUD='N53',
                      NOM_CMP='DY',
                      VALE=-1.1878834008611001E-06,
                      PRECISION=1.E-2,
                      REFERENCE='AUTRE_ASTER',),
                   _F(CHAM_GD=DEP,
                      NOEUD='N53',
                      NOM_CMP='DZ',
                      VALE=-3.6388530257862998E-3,
                      PRECISION=1.E-2,
                      REFERENCE='AUTRE_ASTER',),
                   _F(CHAM_GD=DEP,
                      NOEUD='N53',
                      NOM_CMP='DRX',
                      VALE=-4.0517546206615999E-4,
                      PRECISION=1.E-2,
                      REFERENCE='AUTRE_ASTER',),
                   _F(CHAM_GD=DEP,
                      NOEUD='N53',
                      NOM_CMP='DRY',
                      VALE=4.2311672014173001E-4,
                      PRECISION=1.E-2,
                      REFERENCE='AUTRE_ASTER',),
                   _F(CHAM_GD=EFF,
                      GROUP_NO='A1',
                      NOM_CMP='NXX',
                      VALE=1.7000514418737999E4,
                      PRECISION=1.E-2,
                      REFERENCE='AUTRE_ASTER',),
                   _F(CHAM_GD=EFF,
                      GROUP_NO='A1',
                      NOM_CMP='NYY',
                      VALE=1.1443847736616999E4,
                      PRECISION=0.016,
                      REFERENCE='AUTRE_ASTER',),
                   _F(CHAM_GD=EFF,
                      GROUP_NO='A1',
                      NOM_CMP='NXY',
                      VALE=3535.9843435229,
                      PRECISION=1.E-2,
                      REFERENCE='AUTRE_ASTER',),
                   _F(CHAM_GD=EFF,
                      GROUP_NO='A1',
                      NOM_CMP='MXX',
                      VALE=2.1458517334156E4,
                      PRECISION=1.E-2,
                      REFERENCE='AUTRE_ASTER',),
                   _F(CHAM_GD=EFF,
                      GROUP_NO='A1',
                      NOM_CMP='MYY',
                      VALE=1.5309443848404E4,
                      PRECISION=0.012,
                      REFERENCE='AUTRE_ASTER',),
                   _F(CHAM_GD=EFF,
                      GROUP_NO='A1',
                      NOM_CMP='MXY',
                      VALE=5713.3191669495,
                      PRECISION=1.E-2,
                      REFERENCE='AUTRE_ASTER',),
                   _F(CHAM_GD=EFF,
                      GROUP_NO='A1',
                      NOM_CMP='QX',
                      VALE=-3033.8093625410002,
                      PRECISION=0.080000000000000002,
                      REFERENCE='AUTRE_ASTER',),
                   _F(CHAM_GD=EFF,
                      GROUP_NO='A1',
                      NOM_CMP='QY',
                      VALE=1764.3682622700001,
                      PRECISION=0.012999999999999999,
                      REFERENCE='AUTRE_ASTER',),),
          RESU=(_F(RESULTAT=MODES,
                   NUME_ORDRE=1,
                   PARA='FREQ',
                   VALE=1.0118185315754999,
                   CRITERE='RELATIF',
                   PRECISION=3.0000000000000001E-3,
                   REFERENCE='AUTRE_ASTER',),
                _F(RESULTAT=MODES,
                   NUME_ORDRE=2,
                   PARA='FREQ',
                   VALE=4.2700335794153004,
                   CRITERE='RELATIF',
                   PRECISION=3.0000000000000001E-3,
                   REFERENCE='AUTRE_ASTER',),
                _F(RESULTAT=MODES,
                   NUME_ORDRE=3,
                   PARA='FREQ',
                   VALE=8.3915135887214998,
                   CRITERE='RELATIF',
                   PRECISION=4.0000000000000001E-3,
                   REFERENCE='AUTRE_ASTER',),
                _F(RESULTAT=MODES,
                   NUME_ORDRE=4,
                   PARA='FREQ',
                   VALE=17.230543649185002,
                   CRITERE='RELATIF',
                   PRECISION=6.0000000000000001E-3,
                   REFERENCE='AUTRE_ASTER',),),);
#
#
#


FIN();
#
#
#
