# MODIF  DATE 13/01/2011   AUTEUR PELLET J.PELLET 
# TITRE SPHERE SOUS PRESSION EXTERNE MODELISATION 3D
# ssls123c.para = tps_job 60 mem_job 128Mo ncpus 1 liste_test S
#            CONFIGURATION MANAGEMENT OF EDF VERSION
# ======================================================================
# COPYRIGHT (C) 1991 - 2011  EDF R&D                  WWW.CODE-ASTER.ORG
# THIS PROGRAM IS FREE SOFTWARE; YOU CAN REDISTRIBUTE IT AND/OR MODIFY  
# IT UNDER THE TERMS OF THE GNU GENERAL PUBLIC LICENSE AS PUBLISHED BY  
# THE FREE SOFTWARE FOUNDATION; EITHER VERSION 2 OF THE LICENSE, OR     
# (AT YOUR OPTION) ANY LATER VERSION.                                                    
#                                                                       
# THIS PROGRAM IS DISTRIBUTED IN THE HOPE THAT IT WILL BE USEFUL, BUT   
# WITHOUT ANY WARRANTY; WITHOUT EVEN THE IMPLIED WARRANTY OF            
# MERCHANTABILITY OR FITNESS FOR A PARTICULAR PURPOSE. SEE THE GNU      
# GENERAL PUBLIC LICENSE FOR MORE DETAILS.                              
#                                                                       
# YOU SHOULD HAVE RECEIVED A COPY OF THE GNU GENERAL PUBLIC LICENSE     
# ALONG WITH THIS PROGRAM; IF NOT, WRITE TO EDF R&D CODE_ASTER,         
#    1 AVENUE DU GENERAL DE GAULLE, 92141 CLAMART CEDEX, FRANCE.        
# ======================================================================
#


DEBUT(CODE=_F(NOM='SSLS123C',NIV_PUB_WEB='INTERNET'),DEBUG=_F(SDVERI='OUI'))

PRE_GIBI();

MAIL=LIRE_MAILLAGE();

MAIL=MODI_MAILLAGE(reuse=MAIL,MAILLAGE=MAIL,
ORIE_SHB=_F(GROUP_MA='VOLTOT'),)

MAIL=DEFI_GROUP(reuse =MAIL,
                MAILLAGE=MAIL,
                CREA_GROUP_NO=(_F(GROUP_MA='SUD1',),
                               _F(GROUP_MA='SUG1',),
                               _F(GROUP_MA='SUB1',),),);

MODMECA=AFFE_MODELE(MAILLAGE=MAIL,
                    AFFE=_F(TOUT='OUI',
                            PHENOMENE='MECANIQUE',
                            MODELISATION='SHB8',),);

MAIL=MODI_MAILLAGE(MAILLAGE=MAIL,reuse=MAIL,
                   ORIE_PEAU_3D=_F(GROUP_MA='SEXT',),
                   );

MAT=DEFI_MATERIAU(ELAS=_F(E=6.825E7,
                          NU=0.3,),);

CHM=AFFE_MATERIAU(MAILLAGE=MAIL,
                  AFFE=_F(TOUT='OUI',
                          MATER=MAT,),);


CHARGT=AFFE_CHAR_MECA(MODELE=MODMECA,
                      DDL_IMPO=(_F(GROUP_MA=('SUD1'),
                                   DY=0.0,),
                                _F(GROUP_MA='SUG1',
                                   DX=0.0,),
                                _F(GROUP_MA='SUB1',
                                   DZ=0.0,),),
                      PRES_REP=_F(GROUP_MA='SEXT',
                                   PRES=1.,));

RESUT=MECA_STATIQUE(MODELE=MODMECA,
                    CHAM_MATER=CHM,
                    EXCIT=_F(CHARGE=CHARGT,),);

RESUT=CALC_ELEM(reuse =RESUT,
                OPTION='SIEF_ELNO',
                RESULTAT=RESUT,);



TEST_RESU(RESU=(
            _F(  RESULTAT = RESUT, NOM_CHAM='DEPL',  REFERENCE='NON_REGRESSION',NUME_ORDRE=1,
              GROUP_NO = 'PAE',      NOM_CMP = 'DX',           VALE = -1.33247E-5),

            _F(  RESULTAT = RESUT, NOM_CHAM='DEPL',  REFERENCE='NON_REGRESSION',NUME_ORDRE=1,
              GROUP_NO = 'PBE',      NOM_CMP = 'DY',           VALE = -1.33243E-5),

            _F(   RESULTAT = RESUT, NOM_CHAM='DEPL', REFERENCE='NON_REGRESSION',NUME_ORDRE=1,
              GROUP_NO = 'PCE',      NOM_CMP = 'DZ',           VALE = -1.26824E-5),
              ),)

TEST_RESU(RESU=(
            _F(  RESULTAT = RESUT, NOM_CHAM='DEPL', PRECISION = 5.E-2, REFERENCE='ANALYTIQUE',NUME_ORDRE=1,
              GROUP_NO = 'PAE',      NOM_CMP = 'DX',           VALE = -1.28279E-5),

            _F(  RESULTAT = RESUT, NOM_CHAM='DEPL', PRECISION = 5.E-2, REFERENCE='ANALYTIQUE',NUME_ORDRE=1,
              GROUP_NO = 'PBE',      NOM_CMP = 'DY',           VALE = -1.28279E-5),

            _F(   RESULTAT = RESUT, NOM_CHAM='DEPL',  PRECISION = 5.E-2, REFERENCE='ANALYTIQUE',NUME_ORDRE=1,
              GROUP_NO = 'PCE',      NOM_CMP = 'DZ',           VALE = -1.28279E-5),
              ),)
FIN()
