# MODIF  DATE 14/06/2004   AUTEUR CIBHHPD S.VANDENBERGHE 
# TITRE  PLAQUE CARREE EN APPUI SIMPLE SOUS PRESSION SINUSOIDALE
#            CONFIGURATION MANAGEMENT OF EDF VERSION
# ======================================================================
# COPYRIGHT (C) 1991 - 2001  EDF R&D                  WWW.CODE-ASTER.ORG
# THIS PROGRAM IS FREE SOFTWARE; YOU CAN REDISTRIBUTE IT AND/OR MODIFY
# IT UNDER THE TERMS OF THE GNU GENERAL PUBLIC LICENSE AS PUBLISHED BY
# THE FREE SOFTWARE FOUNDATION; EITHER VERSION 2 OF THE LICENSE, OR   
# (AT YOUR OPTION) ANY LATER VERSION.                                 
#
# THIS PROGRAM IS DISTRIBUTED IN THE HOPE THAT IT WILL BE USEFUL, BUT 
# WITHOUT ANY WARRANTY; WITHOUT EVEN THE IMPLIED WARRANTY OF          
# MERCHANTABILITY OR FITNESS FOR A PARTICULAR PURPOSE. SEE THE GNU    
# GENERAL PUBLIC LICENSE FOR MORE DETAILS.                            
#
# YOU SHOULD HAVE RECEIVED A COPY OF THE GNU GENERAL PUBLIC LICENSE   
# ALONG WITH THIS PROGRAM; IF NOT, WRITE TO EDF R&D CODE_ASTER,       
#    1 AVENUE DU GENERAL DE GAULLE, 92141 CLAMART CEDEX, FRANCE.      
# ======================================================================
#---------------------------------------------------------------------
#         - MODELISATION AVEC DES ELEMENTS QUAD8 'COQUE_3D'
#---------------------------------------------------------------------
#
DEBUT(CODE=_F(NOM='SSLS118F',NIV_PUB_WEB='INTERNET'),);
PRE_GIBI();
MA=LIRE_MAILLAGE(VERI_MAIL=_F(VERIF='NON'),);

MAIL=CREA_MAILLAGE(MAILLAGE=MA,
                     MODI_MAILLE=_F(OPTION='QUAD8_9',
                                    TOUT='OUI',),);
MAIL=DEFI_GROUP(reuse =MAIL,
              CREA_GROUP_MA=_F(TOUT='OUI',
                               NOM='TOUT',),
              MAILLAGE=MAIL,
              CREA_GROUP_NO=(_F(GROUP_MA='AB',),
                             _F(GROUP_MA='BC',),
                             _F(GROUP_MA='CD',),
                             _F(GROUP_MA='DA',),),);
MO=AFFE_MODELE(AFFE=_F(TOUT='OUI',
                       PHENOMENE='MECANIQUE',
                       MODELISATION='COQUE_3D',),
               MAILLAGE=MAIL,);

MA=MODI_MAILLAGE( reuse=MA,  
                  MAILLAGE=MA,    MODELE=MO,
                  ORIE_NORM_COQUE=_F(  VECT_NORM = (0., 0., 1.,),
                                       GROUP_NO = 'O',
                                       GROUP_MA = 'MAIL1'),
                                       INFO=2
                                       )
CAR_ELE=AFFE_CARA_ELEM(MODELE=MO,
                       COQUE=_F(ANGL_REP=(0.0,0.0),
                                GROUP_MA='TOUT',
                                EPAIS=0.1,),);
MAT=DEFI_MATERIAU(ELAS=_F(NU=0.25,
                          E=25.0,),);
CHAM_MAT=AFFE_MATERIAU(AFFE=_F(MATER=MAT,
                               TOUT='OUI',),
                       MAILLAGE=MAIL,);
PO=1.0
P=FORMULE(REEL="""(REEL:X,REEL:Y)=PO*SIN(PI*X)*SIN(PI*Y)""");

CHA=AFFE_CHAR_MECA(DDL_IMPO=(_F(DX=0.0,
                                DY=0.0,
                                GROUP_NO='O',
                                DRZ=0.0,
                                DRX=0.0,
                                DRY=0.0,),
                             _F(DZ=0.0,
                                DX=0.0,
                                GROUP_NO='AB',
                                DRY=0.0,),
                             _F(DZ=0.0,
                                DY=0.0,
                                GROUP_NO='BC',
                                DRX=0.0,),
                             _F(DZ=0.0,
                                DX=0.0,
                                GROUP_NO='CD',
                                DRY=0.0,),
                             _F(DZ=0.0,
                                DY=0.0,
                                GROUP_NO='DA',
                                DRX=0.0,),),
                   MODELE=MO,
                   FORCE_ARETE=(_F(MY=0.0,
                                   GROUP_MA='AB',),
                                _F(MY=0.0,
                                   GROUP_MA='CD',),
                                _F(MX=0.0,
                                   GROUP_MA='BC',),
                                _F(MX=0.0,
                                   GROUP_MA='DA',),),);
CHA_P=AFFE_CHAR_MECA_F(MODELE=MO,
                       FORCE_COQUE=_F(PRES=P,
                                      GROUP_MA='MAIL1',),);
RESU=MECA_STATIQUE(CHAM_MATER=CHAM_MAT,
                   MODELE=MO,
                   CARA_ELEM=CAR_ELE,
                   EXCIT=(_F(CHARGE=CHA,),
                          _F(CHARGE=CHA_P,),),);
                          
                          
                          
SIG_C1_S=CALC_ELEM(RESULTAT=RESU,
                        NIVE_COUCHE='SUP',
                        NUME_COUCHE=1,
                        OPTION='SIGM_ELNO_DEPL',);
SIG_C1_M=CALC_ELEM(RESULTAT=RESU,
                        NIVE_COUCHE='MOY',
                        NUME_COUCHE=1,
                        OPTION='SIGM_ELNO_DEPL',);
SIG_C1_I=CALC_ELEM(RESULTAT=RESU,
                        NIVE_COUCHE='INF',
                        NUME_COUCHE=1,
                        OPTION='SIGM_ELNO_DEPL',);
EFF=CALC_ELEM(RESULTAT=RESU,
                   PLAN='MOY',
                   OPTION='EFGE_ELNO_DEPL',);

SIGG=CALC_ELEM(RESULTAT=RESU,
                   OPTION='SIEF_ELNO_ELGA',);
                   
IMPR_RESU(RESU=_F(MAILLAGE=MAIL,
                  FORMAT='IDEAS',
                  RESULTAT=RESU,),
          MODELE=MO,);
TEST_RESU(RESU=(_F(NOM_CHAM='DEPL',
                  RESULTAT=RESU,
                  PRECISION=0.053,
                  REFERENCE='ANALYTIQUE',VALE=-1.1549,
                  GROUP_NO='O',
                  NOM_CMP='DZ',
                  NUME_ORDRE=1,),
                _F(RESULTAT=SIG_C1_I,
                        NUME_ORDRE=1,
                        NOM_CHAM='SIGM_ELNO_DEPL',
                        MAILLE='M78',
                        REFERENCE='ANALYTIQUE',VALE=18.99,
                        PRECISION=2.E-2,
                        GROUP_NO='O',
                        NOM_CMP='SIXX',),
                     _F(RESULTAT=SIG_C1_I,
                        NUME_ORDRE=1,
                        NOM_CHAM='SIGM_ELNO_DEPL',
                        MAILLE='M78',
                        REFERENCE='ANALYTIQUE',VALE=18.99,
                        PRECISION=5.E-2,
                        GROUP_NO='O',
                        NOM_CMP='SIYY',),
                     _F(RESULTAT=SIG_C1_I,
                        NUME_ORDRE=1,
                        NOM_CHAM='SIGM_ELNO_DEPL',
                        MAILLE='M78',
                        REFERENCE='ANALYTIQUE',VALE=0.0,
                        PRECISION=0.6,
                        GROUP_NO='O',
                        NOM_CMP='SIXY',
                        CRITERE='ABSOLU',),
                     _F(RESULTAT=SIG_C1_I,
                        NUME_ORDRE=1,
                        NOM_CHAM='SIGM_ELNO_DEPL',
                        MAILLE='M78',
                        REFERENCE='ANALYTIQUE',VALE=0.0,
                        PRECISION=6.E-2,
                        GROUP_NO='O',
                        NOM_CMP='SIXZ',
                        CRITERE='ABSOLU',),
                     _F(RESULTAT=SIG_C1_I,
                        NUME_ORDRE=1,
                        NOM_CHAM='SIGM_ELNO_DEPL',
                        MAILLE='M78',
                        REFERENCE='ANALYTIQUE',VALE=0.0,
                        PRECISION=0.2,
                        GROUP_NO='O',
                        NOM_CMP='SIYZ',
                        CRITERE='ABSOLU',),
                     _F(RESULTAT=SIG_C1_M,
                        NUME_ORDRE=1,
                        NOM_CHAM='SIGM_ELNO_DEPL',
                        MAILLE='M78',
                        REFERENCE='ANALYTIQUE',VALE=0.0,
                        PRECISION=1.E-2,
                        GROUP_NO='O',
                        NOM_CMP='SIXX',
                        CRITERE='ABSOLU',),
                     _F(RESULTAT=SIG_C1_M,
                        NUME_ORDRE=1,
                        NOM_CHAM='SIGM_ELNO_DEPL',
                        MAILLE='M78',
                        REFERENCE='ANALYTIQUE',VALE=0.0,
                        PRECISION=1.E-2,
                        GROUP_NO='O',
                        NOM_CMP='SIYY',
                        CRITERE='ABSOLU',),
                     _F(RESULTAT=SIG_C1_M,
                        NUME_ORDRE=1,
                        NOM_CHAM='SIGM_ELNO_DEPL',
                        MAILLE='M78',
                        REFERENCE='ANALYTIQUE',VALE=0.0,
                        PRECISION=1.E-2,
                        GROUP_NO='O',
                        NOM_CMP='SIXY',
                        CRITERE='ABSOLU',),
                     _F(RESULTAT=SIG_C1_M,
                        NUME_ORDRE=1,
                        NOM_CHAM='SIGM_ELNO_DEPL',
                        MAILLE='M78',
                        REFERENCE='ANALYTIQUE',VALE=0.0,
                        PRECISION=0.1,
                        GROUP_NO='O',
                        NOM_CMP='SIXZ',
                        CRITERE='ABSOLU',),
                     _F(RESULTAT=SIG_C1_M,
                        NUME_ORDRE=1,
                        NOM_CHAM='SIGM_ELNO_DEPL',
                        MAILLE='M78',
                        REFERENCE='ANALYTIQUE',VALE=0.0,
                        PRECISION=0.2,
                        GROUP_NO='O',
                        NOM_CMP='SIYZ',
                        CRITERE='ABSOLU',),
                     _F(RESULTAT=SIG_C1_S,
                        NUME_ORDRE=1,
                        NOM_CHAM='SIGM_ELNO_DEPL',
                        MAILLE='M78',
                        REFERENCE='ANALYTIQUE',VALE=-18.99,
                        PRECISION=2.E-2,
                        GROUP_NO='O',
                        NOM_CMP='SIXX',),
                     _F(RESULTAT=SIG_C1_S,
                        NUME_ORDRE=1,
                        NOM_CHAM='SIGM_ELNO_DEPL',
                        MAILLE='M78',
                        REFERENCE='ANALYTIQUE',VALE=-18.99,
                        PRECISION=5.E-2,
                        GROUP_NO='O',
                        NOM_CMP='SIYY',),
                     _F(RESULTAT=SIG_C1_S,
                        NUME_ORDRE=1,
                        NOM_CHAM='SIGM_ELNO_DEPL',
                        MAILLE='M78',
                        REFERENCE='ANALYTIQUE',VALE=0.0,
                        PRECISION=0.6,
                        GROUP_NO='O',
                        NOM_CMP='SIXY',
                        CRITERE='ABSOLU',),
                     _F(RESULTAT=SIG_C1_S,
                        NUME_ORDRE=1,
                        NOM_CHAM='SIGM_ELNO_DEPL',
                        MAILLE='M78',
                        REFERENCE='ANALYTIQUE',VALE=0.0,
                        PRECISION=6.E-2,
                        GROUP_NO='O',
                        NOM_CMP='SIXZ',
                        CRITERE='ABSOLU',),
                     _F(RESULTAT=SIG_C1_S,
                        NUME_ORDRE=1,
                        NOM_CHAM='SIGM_ELNO_DEPL',
                        MAILLE='M78',
                        REFERENCE='ANALYTIQUE',VALE=0.0,
                        PRECISION=0.2,
                        GROUP_NO='O',
                        NOM_CMP='SIYZ',
                        CRITERE='ABSOLU',),
                     _F(RESULTAT=SIG_C1_I,
                        NUME_ORDRE=1,
                        NOM_CHAM='SIGM_ELNO_DEPL',
                        MAILLE='M6',
                        REFERENCE='ANALYTIQUE',VALE=0.0,
                        PRECISION=0.05,
                        GROUP_NO='B1',
                        NOM_CMP='SIXX',
                        CRITERE='ABSOLU',),
                     _F(RESULTAT=SIG_C1_I,
                        NUME_ORDRE=1,
                        NOM_CHAM='SIGM_ELNO_DEPL',
                        MAILLE='M6',
                        REFERENCE='ANALYTIQUE',VALE=0.0,
                        PRECISION=0.05,
                        GROUP_NO='B1',
                        NOM_CMP='SIYY',
                        CRITERE='ABSOLU',),
                     _F(RESULTAT=SIG_C1_I,
                        NUME_ORDRE=1,
                        NOM_CHAM='SIGM_ELNO_DEPL',
                        MAILLE='M6',
                        REFERENCE='ANALYTIQUE',VALE=0.0,
                        PRECISION=0.05,
                        GROUP_NO='B1',
                        NOM_CMP='SIXY',
                        CRITERE='ABSOLU',),
                     _F(RESULTAT=SIG_C1_I,
                        NUME_ORDRE=1,
                        NOM_CHAM='SIGM_ELNO_DEPL',
                        MAILLE='M6',
                        REFERENCE='ANALYTIQUE',VALE=0.0,
                        PRECISION=1.E-2,
                        GROUP_NO='B1',
                        NOM_CMP='SIXZ',
                        CRITERE='ABSOLU',),
                     _F(RESULTAT=SIG_C1_I,
                        NUME_ORDRE=1,
                        NOM_CHAM='SIGM_ELNO_DEPL',
                        MAILLE='M6',
                        REFERENCE='ANALYTIQUE',VALE=0.0,
                        PRECISION=2.,
                        GROUP_NO='B1',
                        NOM_CMP='SIYZ',
                        CRITERE='ABSOLU',),
                     _F(RESULTAT=SIG_C1_M,
                        NUME_ORDRE=1,
                        NOM_CHAM='SIGM_ELNO_DEPL',
                        MAILLE='M6',
                        REFERENCE='ANALYTIQUE',VALE=0.0,
                        PRECISION=1.E-2,
                        GROUP_NO='B1',
                        NOM_CMP='SIXX',
                        CRITERE='ABSOLU',),
                     _F(RESULTAT=SIG_C1_M,
                        NUME_ORDRE=1,
                        NOM_CHAM='SIGM_ELNO_DEPL',
                        MAILLE='M6',
                        REFERENCE='ANALYTIQUE',VALE=0.0,
                        PRECISION=1.E-2,
                        GROUP_NO='B1',
                        NOM_CMP='SIYY',
                        CRITERE='ABSOLU',),
                     _F(RESULTAT=SIG_C1_M,
                        NUME_ORDRE=1,
                        NOM_CHAM='SIGM_ELNO_DEPL',
                        MAILLE='M6',
                        REFERENCE='ANALYTIQUE',VALE=0.0,
                        PRECISION=1.E-2,
                        GROUP_NO='B1',
                        NOM_CMP='SIXY',
                        CRITERE='ABSOLU',),
                     _F(RESULTAT=SIG_C1_M,
                        NUME_ORDRE=1,
                        NOM_CHAM='SIGM_ELNO_DEPL',
                        MAILLE='M6',
                        REFERENCE='ANALYTIQUE',VALE=0.0,
                        PRECISION=0.26,
                        GROUP_NO='B1',
                        NOM_CMP='SIXZ',
                        CRITERE='ABSOLU',),
                     _F(RESULTAT=SIG_C1_M,
                        NUME_ORDRE=1,
                        NOM_CHAM='SIGM_ELNO_DEPL',
                        MAILLE='M6',
                        REFERENCE='ANALYTIQUE',VALE=-2.39732,
                        PRECISION=0.35,
                        GROUP_NO='B1',
                        NOM_CMP='SIYZ',),
                     _F(RESULTAT=SIG_C1_S,
                        NUME_ORDRE=1,
                        NOM_CHAM='SIGM_ELNO_DEPL',
                        MAILLE='M6',
                        REFERENCE='ANALYTIQUE',VALE=0.0,
                        PRECISION=0.05,
                        GROUP_NO='B1',
                        NOM_CMP='SIXX',
                        CRITERE='ABSOLU',),
                     _F(RESULTAT=SIG_C1_S,
                        NUME_ORDRE=1,
                        NOM_CHAM='SIGM_ELNO_DEPL',
                        MAILLE='M6',
                        REFERENCE='ANALYTIQUE',VALE=0.0,
                        PRECISION=0.05,
                        GROUP_NO='B1',
                        NOM_CMP='SIYY',
                        CRITERE='ABSOLU',),
                     _F(RESULTAT=SIG_C1_S,
                        NUME_ORDRE=1,
                        NOM_CHAM='SIGM_ELNO_DEPL',
                        MAILLE='M6',
                        REFERENCE='ANALYTIQUE',VALE=0.0,
                        PRECISION=0.05,
                        GROUP_NO='B1',
                        NOM_CMP='SIXY',
                        CRITERE='ABSOLU',),
                     _F(RESULTAT=SIG_C1_S,
                        NUME_ORDRE=1,
                        NOM_CHAM='SIGM_ELNO_DEPL',
                        MAILLE='M6',
                        REFERENCE='ANALYTIQUE',VALE=0.0,
                        PRECISION=1.E-2,
                        GROUP_NO='B1',
                        NOM_CMP='SIXZ',
                        CRITERE='ABSOLU',),
                     _F(RESULTAT=SIG_C1_S,
                        NUME_ORDRE=1,
                        NOM_CHAM='SIGM_ELNO_DEPL',
                        MAILLE='M6',
                        REFERENCE='ANALYTIQUE',VALE=0.0,
                        PRECISION=2.,
                        GROUP_NO='B1',
                        NOM_CMP='SIYZ',
                        CRITERE='ABSOLU',),
                     _F(RESULTAT=EFF,
                        NUME_ORDRE=1,
                        NOM_CHAM='EFGE_ELNO_DEPL',
                        MAILLE='M78',
                        REFERENCE='ANALYTIQUE',VALE=0.0,
                        PRECISION=1.E-2,
                        GROUP_NO='O',
                        NOM_CMP='NXX',
                        CRITERE='ABSOLU',),
                     _F(RESULTAT=EFF,
                        NUME_ORDRE=1,
                        NOM_CHAM='EFGE_ELNO_DEPL',
                        MAILLE='M78',
                        REFERENCE='ANALYTIQUE',VALE=0.0,
                        PRECISION=1.E-2,
                        GROUP_NO='O',
                        NOM_CMP='NYY',
                        CRITERE='ABSOLU',),
                     _F(RESULTAT=EFF,
                        NUME_ORDRE=1,
                        NOM_CHAM='EFGE_ELNO_DEPL',
                        MAILLE='M78',
                        REFERENCE='ANALYTIQUE',VALE=0.0,
                        PRECISION=1.E-2,
                        GROUP_NO='O',
                        NOM_CMP='NXY',
                        CRITERE='ABSOLU',),
                     _F(RESULTAT=EFF,
                        NUME_ORDRE=1,
                        NOM_CHAM='EFGE_ELNO_DEPL',
                        MAILLE='M78',
                        REFERENCE='ANALYTIQUE',VALE=-0.0316628,
                        PRECISION=2.E-2,
                        GROUP_NO='O',
                        NOM_CMP='MXX',),
                     _F(RESULTAT=EFF,
                        NUME_ORDRE=1,
                        NOM_CHAM='EFGE_ELNO_DEPL',
                        MAILLE='M78',
                        REFERENCE='ANALYTIQUE',VALE=-0.0316628,
                        PRECISION=5.E-2,
                        GROUP_NO='O',
                        NOM_CMP='MYY',),
                     _F(RESULTAT=EFF,
                        NUME_ORDRE=1,
                        NOM_CHAM='EFGE_ELNO_DEPL',
                        MAILLE='M78',
                        REFERENCE='ANALYTIQUE',VALE=0.0,
                        PRECISION=1.E-2,
                        GROUP_NO='O',
                        NOM_CMP='MXY',
                        CRITERE='ABSOLU',),
                     _F(RESULTAT=EFF,
                        NUME_ORDRE=1,
                        NOM_CHAM='EFGE_ELNO_DEPL',
                        MAILLE='M78',
                        REFERENCE='ANALYTIQUE',VALE=0.0,
                        PRECISION=0.021,
                        GROUP_NO='O',
                        NOM_CMP='QX',
                        CRITERE='ABSOLU',),
                     _F(RESULTAT=EFF,
                        NUME_ORDRE=1,
                        NOM_CHAM='EFGE_ELNO_DEPL',
                        MAILLE='M78',
                        REFERENCE='ANALYTIQUE',VALE=0.0,
                        PRECISION=0.021,
                        GROUP_NO='O',
                        NOM_CMP='QY',
                        CRITERE='ABSOLU',),
                     _F(RESULTAT=EFF,
                        NUME_ORDRE=1,
                        NOM_CHAM='EFGE_ELNO_DEPL',
                        MAILLE='M79',
                        REFERENCE='ANALYTIQUE',VALE=0.0,
                        PRECISION=0.021,
                        GROUP_NO='O',
                        NOM_CMP='QX',
                        CRITERE='ABSOLU',),
                     _F(RESULTAT=EFF,
                        NUME_ORDRE=1,
                        NOM_CHAM='EFGE_ELNO_DEPL',
                        MAILLE='M79',
                        REFERENCE='ANALYTIQUE',VALE=0.0,
                        PRECISION=0.021,
                        GROUP_NO='O',
                        NOM_CMP='QY',
                        CRITERE='ABSOLU',),
                     _F(RESULTAT=EFF,
                        NUME_ORDRE=1,
                        NOM_CHAM='EFGE_ELNO_DEPL',
                        MAILLE='M66',
                        REFERENCE='ANALYTIQUE',VALE=0.0,
                        PRECISION=0.021,
                        GROUP_NO='O',
                        NOM_CMP='QX',
                        CRITERE='ABSOLU',),
                     _F(RESULTAT=EFF,
                        NUME_ORDRE=1,
                        NOM_CHAM='EFGE_ELNO_DEPL',
                        MAILLE='M66',
                        REFERENCE='ANALYTIQUE',VALE=0.0,
                        PRECISION=0.021,
                        GROUP_NO='O',
                        NOM_CMP='QY',
                        CRITERE='ABSOLU',),
                     _F(RESULTAT=EFF,
                        NUME_ORDRE=1,
                        NOM_CHAM='EFGE_ELNO_DEPL',
                        MAILLE='M67',
                        REFERENCE='ANALYTIQUE',VALE=0.0,
                        PRECISION=0.021,
                        GROUP_NO='O',
                        NOM_CMP='QX',
                        CRITERE='ABSOLU',),
                     _F(RESULTAT=EFF,
                        NUME_ORDRE=1,
                        NOM_CHAM='EFGE_ELNO_DEPL',
                        MAILLE='M67',
                        REFERENCE='ANALYTIQUE',VALE=0.0,
                        PRECISION=0.021,
                        GROUP_NO='O',
                        NOM_CMP='QY',
                        CRITERE='ABSOLU',),
                     _F(RESULTAT=EFF,
                        NUME_ORDRE=1,
                        NOM_CHAM='EFGE_ELNO_DEPL',
                        MAILLE='M144',
                        REFERENCE='ANALYTIQUE',VALE=0.0,
                        PRECISION=1.E-2,
                        GROUP_NO='C',
                        NOM_CMP='NXX',
                        CRITERE='ABSOLU',),
                     _F(RESULTAT=EFF,
                        NUME_ORDRE=1,
                        NOM_CHAM='EFGE_ELNO_DEPL',
                        MAILLE='M144',
                        REFERENCE='ANALYTIQUE',VALE=0.0,
                        PRECISION=1.E-2,
                        GROUP_NO='C',
                        NOM_CMP='NYY',
                        CRITERE='ABSOLU',),
                     _F(RESULTAT=EFF,
                        NUME_ORDRE=1,
                        NOM_CHAM='EFGE_ELNO_DEPL',
                        MAILLE='M144',
                        REFERENCE='ANALYTIQUE',VALE=0.0,
                        PRECISION=1.E-2,
                        GROUP_NO='C',
                        NOM_CMP='NXY',
                        CRITERE='ABSOLU',),
                     _F(RESULTAT=EFF,
                        NUME_ORDRE=1,
                        NOM_CHAM='EFGE_ELNO_DEPL',
                        MAILLE='M144',
                        REFERENCE='ANALYTIQUE',VALE=0.0,
                        PRECISION=1.E-2,
                        GROUP_NO='C',
                        NOM_CMP='MXX',
                        CRITERE='ABSOLU',),
                     _F(RESULTAT=EFF,
                        NUME_ORDRE=1,
                        NOM_CHAM='EFGE_ELNO_DEPL',
                        MAILLE='M144',
                        REFERENCE='ANALYTIQUE',VALE=0.0,
                        PRECISION=1.E-2,
                        GROUP_NO='C',
                        NOM_CMP='MYY',
                        CRITERE='ABSOLU',),
                     _F(RESULTAT=EFF,
                        NUME_ORDRE=1,
                        NOM_CHAM='EFGE_ELNO_DEPL',
                        MAILLE='M144',
                        REFERENCE='ANALYTIQUE',VALE=0.0189978,
                        PRECISION=0.03,
                        GROUP_NO='C',
                        NOM_CMP='MXY',),
                     _F(RESULTAT=EFF,
                        NUME_ORDRE=1,
                        NOM_CHAM='EFGE_ELNO_DEPL',
                        MAILLE='M144',
                        REFERENCE='ANALYTIQUE',VALE=0.0,
                        PRECISION=1.E-2,
                        GROUP_NO='C',
                        NOM_CMP='QX',
                        CRITERE='ABSOLU',),
                     _F(RESULTAT=EFF,
                        NUME_ORDRE=1,
                        NOM_CHAM='EFGE_ELNO_DEPL',
                        MAILLE='M144',
                        REFERENCE='ANALYTIQUE',VALE=0.0,
                        PRECISION=1.E-2,
                        GROUP_NO='C',
                        NOM_CMP='QY',
                        CRITERE='ABSOLU',),
                     _F(RESULTAT=EFF,
                        NUME_ORDRE=1,
                        NOM_CHAM='EFGE_ELNO_DEPL',
                        MAILLE='M133',
                        REFERENCE='ANALYTIQUE',VALE=0.0,
                        PRECISION=1.E-2,
                        GROUP_NO='D',
                        NOM_CMP='NXX',
                        CRITERE='ABSOLU',),
                     _F(RESULTAT=EFF,
                        NUME_ORDRE=1,
                        NOM_CHAM='EFGE_ELNO_DEPL',
                        MAILLE='M133',
                        REFERENCE='ANALYTIQUE',VALE=0.0,
                        PRECISION=1.E-2,
                        GROUP_NO='D',
                        NOM_CMP='NYY',
                        CRITERE='ABSOLU',),
                     _F(RESULTAT=EFF,
                        NUME_ORDRE=1,
                        NOM_CHAM='EFGE_ELNO_DEPL',
                        MAILLE='M133',
                        REFERENCE='ANALYTIQUE',VALE=0.0,
                        PRECISION=1.E-2,
                        GROUP_NO='D',
                        NOM_CMP='NXY',
                        CRITERE='ABSOLU',),
                     _F(RESULTAT=EFF,
                        NUME_ORDRE=1,
                        NOM_CHAM='EFGE_ELNO_DEPL',
                        MAILLE='M133',
                        REFERENCE='ANALYTIQUE',VALE=0.0,
                        PRECISION=1.E-2,
                        GROUP_NO='D',
                        NOM_CMP='MXX',
                        CRITERE='ABSOLU',),
                     _F(RESULTAT=EFF,
                        NUME_ORDRE=1,
                        NOM_CHAM='EFGE_ELNO_DEPL',
                        MAILLE='M133',
                        REFERENCE='ANALYTIQUE',VALE=0.0,
                        PRECISION=1.E-2,
                        GROUP_NO='D',
                        NOM_CMP='MYY',
                        CRITERE='ABSOLU',),
                     _F(RESULTAT=EFF,
                        NUME_ORDRE=1,
                        NOM_CHAM='EFGE_ELNO_DEPL',
                        MAILLE='M133',
                        REFERENCE='ANALYTIQUE',VALE=-0.0189978,
                        PRECISION=0.03,
                        GROUP_NO='D',
                        NOM_CMP='MXY',),
                     _F(RESULTAT=EFF,
                        NUME_ORDRE=1,
                        NOM_CHAM='EFGE_ELNO_DEPL',
                        MAILLE='M133',
                        REFERENCE='ANALYTIQUE',VALE=0.0,
                        PRECISION=1.E-2,
                        GROUP_NO='D',
                        NOM_CMP='QX',
                        CRITERE='ABSOLU',),
                     _F(RESULTAT=EFF,
                        NUME_ORDRE=1,
                        NOM_CHAM='EFGE_ELNO_DEPL',
                        MAILLE='M133',
                        REFERENCE='ANALYTIQUE',VALE=0.0,
                        PRECISION=1.E-2,
                        GROUP_NO='D',
                        NOM_CMP='QY',
                        CRITERE='ABSOLU',),
                     _F(RESULTAT=EFF,
                        NUME_ORDRE=1,
                        NOM_CHAM='EFGE_ELNO_DEPL',
                        MAILLE='M73',
                        REFERENCE='ANALYTIQUE',VALE=0.0,
                        PRECISION=1.E-2,
                        GROUP_NO='D1',
                        NOM_CMP='NXX',
                        CRITERE='ABSOLU',),
                     _F(RESULTAT=EFF,
                        NUME_ORDRE=1,
                        NOM_CHAM='EFGE_ELNO_DEPL',
                        MAILLE='M73',
                        REFERENCE='ANALYTIQUE',VALE=0.0,
                        PRECISION=1.E-2,
                        GROUP_NO='D1',
                        NOM_CMP='NYY',
                        CRITERE='ABSOLU',),
                     _F(RESULTAT=EFF,
                        NUME_ORDRE=1,
                        NOM_CHAM='EFGE_ELNO_DEPL',
                        MAILLE='M73',
                        REFERENCE='ANALYTIQUE',VALE=0.0,
                        PRECISION=1.E-2,
                        GROUP_NO='D1',
                        NOM_CMP='NXY',
                        CRITERE='ABSOLU',),
                     _F(RESULTAT=EFF,
                        NUME_ORDRE=1,
                        NOM_CHAM='EFGE_ELNO_DEPL',
                        MAILLE='M73',
                        REFERENCE='ANALYTIQUE',VALE=0.0,
                        PRECISION=1.E-2,
                        GROUP_NO='D1',
                        NOM_CMP='MXX',
                        CRITERE='ABSOLU',),
                     _F(RESULTAT=EFF,
                        NUME_ORDRE=1,
                        NOM_CHAM='EFGE_ELNO_DEPL',
                        MAILLE='M73',
                        REFERENCE='ANALYTIQUE',VALE=0.0,
                        PRECISION=1.E-2,
                        GROUP_NO='D1',
                        NOM_CMP='MYY',
                        CRITERE='ABSOLU',),
                     _F(RESULTAT=EFF,
                        NUME_ORDRE=1,
                        NOM_CHAM='EFGE_ELNO_DEPL',
                        MAILLE='M73',
                        REFERENCE='ANALYTIQUE',VALE=0.0,
                        PRECISION=1.E-2,
                        GROUP_NO='D1',
                        NOM_CMP='MXY',
                        CRITERE='ABSOLU',),
                     _F(RESULTAT=EFF,
                        NUME_ORDRE=1,
                        NOM_CHAM='EFGE_ELNO_DEPL',
                        MAILLE='M73',
                        REFERENCE='ANALYTIQUE',VALE=-0.159155,
                        PRECISION=0.03,
                        GROUP_NO='D1',
                        NOM_CMP='QX',),
                     _F(RESULTAT=EFF,
                        NUME_ORDRE=1,
                        NOM_CHAM='EFGE_ELNO_DEPL',
                        MAILLE='M73',
                        REFERENCE='ANALYTIQUE',VALE=0.0,
                        PRECISION=1.E-2,
                        GROUP_NO='D1',
                        NOM_CMP='QY',
                        CRITERE='ABSOLU',),
                     _F(RESULTAT=EFF,
                        NUME_ORDRE=1,
                        NOM_CHAM='EFGE_ELNO_DEPL',
                        MAILLE='M61',
                        REFERENCE='ANALYTIQUE',VALE=-0.159155,
                        PRECISION=0.03,
                        GROUP_NO='D1',
                        NOM_CMP='QX',),
                     _F(RESULTAT=EFF,
                        NUME_ORDRE=1,
                        NOM_CHAM='EFGE_ELNO_DEPL',
                        MAILLE='M61',
                        REFERENCE='ANALYTIQUE',VALE=0.0,
                        PRECISION=1.E-2,
                        GROUP_NO='D1',
                        NOM_CMP='QY',
                        CRITERE='ABSOLU',),
                     _F(RESULTAT=EFF,
                        NUME_ORDRE=1,
                        NOM_CHAM='EFGE_ELNO_DEPL',
                        MAILLE='M1',
                        REFERENCE='ANALYTIQUE',VALE=0.0,
                        PRECISION=1.E-2,
                        GROUP_NO='A',
                        NOM_CMP='NXX',
                        CRITERE='ABSOLU',),
                     _F(RESULTAT=EFF,
                        NUME_ORDRE=1,
                        NOM_CHAM='EFGE_ELNO_DEPL',
                        MAILLE='M1',
                        REFERENCE='ANALYTIQUE',VALE=0.0,
                        PRECISION=1.E-2,
                        GROUP_NO='A',
                        NOM_CMP='NYY',
                        CRITERE='ABSOLU',),
                     _F(RESULTAT=EFF,
                        NUME_ORDRE=1,
                        NOM_CHAM='EFGE_ELNO_DEPL',
                        MAILLE='M1',
                        REFERENCE='ANALYTIQUE',VALE=0.0,
                        PRECISION=1.E-2,
                        GROUP_NO='A',
                        NOM_CMP='NXY',
                        CRITERE='ABSOLU',),
                     _F(RESULTAT=EFF,
                        NUME_ORDRE=1,
                        NOM_CHAM='EFGE_ELNO_DEPL',
                        MAILLE='M1',
                        REFERENCE='ANALYTIQUE',VALE=0.0,
                        PRECISION=1.E-2,
                        GROUP_NO='A',
                        NOM_CMP='MXX',
                        CRITERE='ABSOLU',),
                     _F(RESULTAT=EFF,
                        NUME_ORDRE=1,
                        NOM_CHAM='EFGE_ELNO_DEPL',
                        MAILLE='M1',
                        REFERENCE='ANALYTIQUE',VALE=0.0,
                        PRECISION=1.E-2,
                        GROUP_NO='A',
                        NOM_CMP='MYY',
                        CRITERE='ABSOLU',),
                     _F(RESULTAT=EFF,
                        NUME_ORDRE=1,
                        NOM_CHAM='EFGE_ELNO_DEPL',
                        MAILLE='M1',
                        REFERENCE='ANALYTIQUE',VALE=0.0189978,
                        PRECISION=0.03,
                        GROUP_NO='A',
                        NOM_CMP='MXY',),
                     _F(RESULTAT=EFF,
                        NUME_ORDRE=1,
                        NOM_CHAM='EFGE_ELNO_DEPL',
                        MAILLE='M1',
                        REFERENCE='ANALYTIQUE',VALE=0.0,
                        PRECISION=1.E-2,
                        GROUP_NO='A',
                        NOM_CMP='QY',
                        CRITERE='ABSOLU',),
                     _F(RESULTAT=EFF,
                        NUME_ORDRE=1,
                        NOM_CHAM='EFGE_ELNO_DEPL',
                        MAILLE='M1',
                        REFERENCE='ANALYTIQUE',VALE=0.0,
                        PRECISION=1.E-2,
                        GROUP_NO='A',
                        NOM_CMP='QX',
                        CRITERE='ABSOLU',),
                     _F(RESULTAT=EFF,
                        NUME_ORDRE=1,
                        NOM_CHAM='EFGE_ELNO_DEPL',
                        MAILLE='M12',
                        REFERENCE='ANALYTIQUE',VALE=0.0,
                        PRECISION=1.E-2,
                        GROUP_NO='B',
                        NOM_CMP='NXX',
                        CRITERE='ABSOLU',),
                     _F(RESULTAT=EFF,
                        NUME_ORDRE=1,
                        NOM_CHAM='EFGE_ELNO_DEPL',
                        MAILLE='M12',
                        REFERENCE='ANALYTIQUE',VALE=0.0,
                        PRECISION=1.E-2,
                        GROUP_NO='B',
                        NOM_CMP='NYY',
                        CRITERE='ABSOLU',),
                     _F(RESULTAT=EFF,
                        NUME_ORDRE=1,
                        NOM_CHAM='EFGE_ELNO_DEPL',
                        MAILLE='M12',
                        REFERENCE='ANALYTIQUE',VALE=0.0,
                        PRECISION=1.E-2,
                        GROUP_NO='B',
                        NOM_CMP='NXY',
                        CRITERE='ABSOLU',),
                     _F(RESULTAT=EFF,
                        NUME_ORDRE=1,
                        NOM_CHAM='EFGE_ELNO_DEPL',
                        MAILLE='M12',
                        REFERENCE='ANALYTIQUE',VALE=0.0,
                        PRECISION=1.E-2,
                        GROUP_NO='B',
                        NOM_CMP='MXX',
                        CRITERE='ABSOLU',),
                     _F(RESULTAT=EFF,
                        NUME_ORDRE=1,
                        NOM_CHAM='EFGE_ELNO_DEPL',
                        MAILLE='M12',
                        REFERENCE='ANALYTIQUE',VALE=0.0,
                        PRECISION=1.E-2,
                        GROUP_NO='B',
                        NOM_CMP='MYY',
                        CRITERE='ABSOLU',),
                     _F(RESULTAT=EFF,
                        NUME_ORDRE=1,
                        NOM_CHAM='EFGE_ELNO_DEPL',
                        MAILLE='M12',
                        REFERENCE='ANALYTIQUE',VALE=-0.0189978,
                        PRECISION=0.03,
                        GROUP_NO='B',
                        NOM_CMP='MXY',),
                     _F(RESULTAT=EFF,
                        NUME_ORDRE=1,
                        NOM_CHAM='EFGE_ELNO_DEPL',
                        MAILLE='M12',
                        REFERENCE='ANALYTIQUE',VALE=0.0,
                        PRECISION=1.E-2,
                        GROUP_NO='B',
                        NOM_CMP='QY',
                        CRITERE='ABSOLU',),
                     _F(RESULTAT=EFF,
                        NUME_ORDRE=1,
                        NOM_CHAM='EFGE_ELNO_DEPL',
                        MAILLE='M12',
                        REFERENCE='ANALYTIQUE',VALE=0.0,
                        PRECISION=1.E-2,
                        GROUP_NO='B',
                        NOM_CMP='QX',
                        CRITERE='ABSOLU',),
                     _F(RESULTAT=EFF,
                        NUME_ORDRE=1,
                        NOM_CHAM='EFGE_ELNO_DEPL',
                        MAILLE='M6',
                        REFERENCE='ANALYTIQUE',VALE=0.0,
                        PRECISION=1.E-2,
                        GROUP_NO='B1',
                        NOM_CMP='NXX',
                        CRITERE='ABSOLU',),
                     _F(RESULTAT=EFF,
                        NUME_ORDRE=1,
                        NOM_CHAM='EFGE_ELNO_DEPL',
                        MAILLE='M6',
                        REFERENCE='ANALYTIQUE',VALE=0.0,
                        PRECISION=1.E-2,
                        GROUP_NO='B1',
                        NOM_CMP='NYY',
                        CRITERE='ABSOLU',),
                     _F(RESULTAT=EFF,
                        NUME_ORDRE=1,
                        NOM_CHAM='EFGE_ELNO_DEPL',
                        MAILLE='M6',
                        REFERENCE='ANALYTIQUE',VALE=0.0,
                        PRECISION=1.E-2,
                        GROUP_NO='B1',
                        NOM_CMP='NXY',
                        CRITERE='ABSOLU',),
                     _F(RESULTAT=EFF,
                        NUME_ORDRE=1,
                        NOM_CHAM='EFGE_ELNO_DEPL',
                        MAILLE='M6',
                        REFERENCE='ANALYTIQUE',VALE=0.0,
                        PRECISION=1.E-2,
                        GROUP_NO='B1',
                        NOM_CMP='MXX',
                        CRITERE='ABSOLU',),
                     _F(RESULTAT=EFF,
                        NUME_ORDRE=1,
                        NOM_CHAM='EFGE_ELNO_DEPL',
                        MAILLE='M6',
                        REFERENCE='ANALYTIQUE',VALE=0.0,
                        PRECISION=1.E-2,
                        GROUP_NO='B1',
                        NOM_CMP='MYY',
                        CRITERE='ABSOLU',),
                     _F(RESULTAT=EFF,
                        NUME_ORDRE=1,
                        NOM_CHAM='EFGE_ELNO_DEPL',
                        MAILLE='M6',
                        REFERENCE='ANALYTIQUE',VALE=0.0,
                        PRECISION=1.E-2,
                        GROUP_NO='B1',
                        NOM_CMP='MXY',
                        CRITERE='ABSOLU',),
                     _F(RESULTAT=EFF,
                        NUME_ORDRE=1,
                        NOM_CHAM='EFGE_ELNO_DEPL',
                        MAILLE='M6',
                        REFERENCE='ANALYTIQUE',VALE=-0.159155,
                        PRECISION=0.06,
                        GROUP_NO='B1',
                        NOM_CMP='QY',),
                    _F(RESULTAT=EFF,
                        NUME_ORDRE=1,
                        NOM_CHAM='EFGE_ELNO_DEPL',
                        MAILLE='M6',
                        REFERENCE='ANALYTIQUE',VALE=0.0,
                        PRECISION=1.E-2,
                        GROUP_NO='B1',
                        NOM_CMP='QX',
                        CRITERE='ABSOLU',),
                     _F(RESULTAT=EFF,
                        NUME_ORDRE=1,
                        NOM_CHAM='EFGE_ELNO_DEPL',
                        MAILLE='M7',
                        REFERENCE='ANALYTIQUE',VALE=0.0,
                        PRECISION=1.E-2,
                        GROUP_NO='B1',
                        NOM_CMP='NXX',
                        CRITERE='ABSOLU',),
                     _F(RESULTAT=EFF,
                        NUME_ORDRE=1,
                        NOM_CHAM='EFGE_ELNO_DEPL',
                        MAILLE='M7',
                        REFERENCE='ANALYTIQUE',VALE=0.0,
                        PRECISION=1.E-2,
                        GROUP_NO='B1',
                        NOM_CMP='NYY',
                        CRITERE='ABSOLU',),
                     _F(RESULTAT=EFF,
                        NUME_ORDRE=1,
                        NOM_CHAM='EFGE_ELNO_DEPL',
                        MAILLE='M7',
                        REFERENCE='ANALYTIQUE',VALE=0.0,
                        PRECISION=1.E-2,
                        GROUP_NO='B1',
                        NOM_CMP='NXY',
                        CRITERE='ABSOLU',),
                     _F(RESULTAT=EFF,
                        NUME_ORDRE=1,
                        NOM_CHAM='EFGE_ELNO_DEPL',
                        MAILLE='M7',
                        REFERENCE='ANALYTIQUE',VALE=0.0,
                        PRECISION=1.E-2,
                        GROUP_NO='B1',
                        NOM_CMP='MXX',
                        CRITERE='ABSOLU',),
                     _F(RESULTAT=EFF,
                        NUME_ORDRE=1,
                        NOM_CHAM='EFGE_ELNO_DEPL',
                        MAILLE='M7',
                        REFERENCE='ANALYTIQUE',VALE=0.0,
                        PRECISION=1.E-2,
                        GROUP_NO='B1',
                        NOM_CMP='MYY',
                        CRITERE='ABSOLU',),
                     _F(RESULTAT=EFF,
                        NUME_ORDRE=1,
                        NOM_CHAM='EFGE_ELNO_DEPL',
                        MAILLE='M7',
                        REFERENCE='ANALYTIQUE',VALE=0.0,
                        PRECISION=1.E-2,
                        GROUP_NO='B1',
                        NOM_CMP='MXY',
                        CRITERE='ABSOLU',),
                     _F(RESULTAT=EFF,
                        NUME_ORDRE=1,
                        NOM_CHAM='EFGE_ELNO_DEPL',
                        MAILLE='M7',
                        REFERENCE='ANALYTIQUE',VALE=-0.159155,
                        PRECISION=0.06,
                        GROUP_NO='B1',
                        NOM_CMP='QY',),
                    _F(RESULTAT=EFF,
                        NUME_ORDRE=1,
                        NOM_CHAM='EFGE_ELNO_DEPL',
                        MAILLE='M7',
                        REFERENCE='ANALYTIQUE',VALE=0.0,
                        PRECISION=1.E-2,
                        GROUP_NO='B1',
                        NOM_CMP='QX',
                        CRITERE='ABSOLU',),
                     _F(RESULTAT=SIGG,
                        NUME_ORDRE=1,
                        NOM_CHAM='SIEF_ELNO_ELGA',
                        MAILLE='M78',
                        REFERENCE='ANALYTIQUE',VALE=-0.0316628,
                        PRECISION=2.E-2,
                        GROUP_NO='O',
                        NOM_CMP='MXX',),
                     _F(RESULTAT=SIGG,
                        NUME_ORDRE=1,
                        NOM_CHAM='SIEF_ELNO_ELGA',
                        MAILLE='M78',
                        REFERENCE='ANALYTIQUE',VALE=-0.0316628,
                        PRECISION=5.E-2,
                        GROUP_NO='O',
                        NOM_CMP='MYY',),
                     _F(RESULTAT=SIGG,
                        NUME_ORDRE=1,
                        NOM_CHAM='SIEF_ELNO_ELGA',
                        MAILLE='M144',
                        REFERENCE='ANALYTIQUE',VALE=0.0189978,
                        PRECISION=0.03,
                        GROUP_NO='C',
                        NOM_CMP='MXY',),
                     _F(RESULTAT=SIGG,
                        NUME_ORDRE=1,
                        NOM_CHAM='SIEF_ELNO_ELGA',
                        MAILLE='M133',
                        REFERENCE='ANALYTIQUE',VALE=-0.0189978,
                        PRECISION=0.03,
                        GROUP_NO='D',
                        NOM_CMP='MXY',),
                     _F(RESULTAT=SIGG,
                        NUME_ORDRE=1,
                        NOM_CHAM='SIEF_ELNO_ELGA',
                        MAILLE='M73',
                        REFERENCE='ANALYTIQUE',VALE=-0.159155,
                        PRECISION=0.03,
                        GROUP_NO='D1',
                        NOM_CMP='QX',),
                      _F(RESULTAT=SIGG,
                        NUME_ORDRE=1,
                        NOM_CHAM='SIEF_ELNO_ELGA',
                        MAILLE='M61',
                        REFERENCE='ANALYTIQUE',VALE=-0.159155,
                        PRECISION=0.03,
                        GROUP_NO='D1',
                        NOM_CMP='QX',),
                     _F(RESULTAT=SIGG,
                        NUME_ORDRE=1,
                        NOM_CHAM='SIEF_ELNO_ELGA',
                        MAILLE='M1',
                        REFERENCE='ANALYTIQUE',VALE=0.0189978,
                        PRECISION=0.03,
                        GROUP_NO='A',
                        NOM_CMP='MXY',),
                     _F(RESULTAT=SIGG,
                        NUME_ORDRE=1,
                        NOM_CHAM='SIEF_ELNO_ELGA',
                        MAILLE='M12',
                        REFERENCE='ANALYTIQUE',VALE=-0.0189978,
                        PRECISION=0.03,
                        GROUP_NO='B',
                        NOM_CMP='MXY',),
                      _F(RESULTAT=SIGG,
                        NUME_ORDRE=1,
                        NOM_CHAM='SIEF_ELNO_ELGA',
                        MAILLE='M6',
                        REFERENCE='ANALYTIQUE',VALE=-0.159155,
                        PRECISION=0.06,
                        GROUP_NO='B1',
                        NOM_CMP='QY',),
                     _F(RESULTAT=SIGG,
                        NUME_ORDRE=1,
                        NOM_CHAM='SIEF_ELNO_ELGA',
                        MAILLE='M7',
                        REFERENCE='ANALYTIQUE',VALE=-0.159155,
                        PRECISION=0.06,
                        GROUP_NO='B1',
                        NOM_CMP='QY',),
),);
FIN();
