# TITRE  :  MODELISATION D UNE COQUE DOUBLEMENT SINUSOIDALE
# ======================================================================
# COPYRIGHT (C) 1991 - 2012  EDF R&D                  WWW.CODE-ASTER.ORG
# THIS PROGRAM IS FREE SOFTWARE; YOU CAN REDISTRIBUTE IT AND/OR MODIFY
# IT UNDER THE TERMS OF THE GNU GENERAL PUBLIC LICENSE AS PUBLISHED BY
# THE FREE SOFTWARE FOUNDATION; EITHER VERSION 2 OF THE LICENSE, OR
# (AT YOUR OPTION) ANY LATER VERSION.
#
# THIS PROGRAM IS DISTRIBUTED IN THE HOPE THAT IT WILL BE USEFUL, BUT
# WITHOUT ANY WARRANTY; WITHOUT EVEN THE IMPLIED WARRANTY OF
# MERCHANTABILITY OR FITNESS FOR A PARTICULAR PURPOSE. SEE THE GNU
# GENERAL PUBLIC LICENSE FOR MORE DETAILS.
#
# YOU SHOULD HAVE RECEIVED A COPY OF THE GNU GENERAL PUBLIC LICENSE
# ALONG WITH THIS PROGRAM; IF NOT, WRITE TO EDF R&D CODE_ASTER,
#    1 AVENUE DU GENERAL DE GAULLE, 92141 CLAMART CEDEX, FRANCE.
# ======================================================================
# CALCUL QUASI-STATIQUE D'UNE COQUE SOUMIS A DIFFERENTS TYPES DE CHARGES
# FORCE LINEIQUE SELON X
# FORCE LINEIQUE SELON Y
# FORCE LINEIQUE SELON Z
# MODELISATION COQUE_3D


DEBUT(CODE=_F(NOM='SSLS129B',NIV_PUB_WEB='INTERNET',VISU_EFICAS='NON'),DEBUG=_F(SDVERI='OUI'))

MAILLA=LIRE_MAILLAGE(FORMAT='MED',);
EPAI_COQ = 20;


MAIL=CREA_MAILLAGE(MAILLAGE=MAILLA,
                   MODI_MAILLE=_F(GROUP_MA='PLAQUE',
                                  OPTION='QUAD8_9',),);

MAIL=DEFI_GROUP(reuse =MAIL,
                MAILLAGE=MAIL,
                CREA_GROUP_NO=(_F(GROUP_MA='DROITE',),
                               _F(GROUP_MA='GAUCHE',),),);

MODELE=AFFE_MODELE(MAILLAGE=MAIL,
                   AFFE=_F(GROUP_MA=('PLAQUE','GAUCHE','DROITE',),
                           PHENOMENE='MECANIQUE',
                           MODELISATION='COQUE_3D',),);
# DEFINITION DU MATERIAU

ACIER=DEFI_MATERIAU(ELAS=_F(E=204000.0,
                            NU=0.3,),);
#

CHMAT=AFFE_MATERIAU(MAILLAGE=MAIL,
                    AFFE=_F(GROUP_MA='PLAQUE',
                            MATER=ACIER,),);
#

CARA_ELE=AFFE_CARA_ELEM(MODELE=MODELE,
         COQUE=_F(GROUP_MA=('PLAQUE','DROITE','GAUCHE',), EPAIS=EPAI_COQ, COQUE_NCOU=3,))


#
# DEFINITION CONDITION LIMITE

CC=AFFE_CHAR_MECA(MODELE=MODELE,
                  DDL_IMPO=_F(GROUP_MA='GAUCHE',
                              DX=0.0,
                              DY=0.0,
                              DZ=0.0,
                              DRX=0.0,
                              DRY=0.0,
                              DRZ=0.0,),);
#
# DEFINITION DES CHARGES
#
# FORCE LINEIQUE EN X SUR LA PARTIE DROITE

FORCEX=AFFE_CHAR_MECA(MODELE=MODELE,
                      FORCE_ARETE=_F(GROUP_MA='DROITE',
                                     FX=10.0,),);

# FORCE LINEIQUE EN Z SUR LA PARTIE DROITE

FORCEZ=AFFE_CHAR_MECA(MODELE=MODELE,
                      FORCE_ARETE=_F(GROUP_MA='DROITE',
                                     FZ=-10.0,),);
# RESOLUTION PAR STAT_NON_LINE

LIST=DEFI_LIST_REEL(DEBUT=0.0,
                    INTERVALLE=_F(JUSQU_A=1.0,
                                  NOMBRE=1,),);

SNL1=STAT_NON_LINE(MODELE=MODELE,
                   CHAM_MATER=CHMAT,
                   CARA_ELEM=CARA_ELE,
                   EXCIT=(_F(CHARGE=CC,),
                          _F(CHARGE=FORCEX,),),
                   COMP_INCR=_F(RELATION='ELAS',),
                   INCREMENT=_F(LIST_INST=LIST,),
                   CONVERGENCE=_F(RESI_GLOB_RELA=1e-08,),);

SNL1=CALC_CHAMP(reuse =SNL1,
             RESULTAT=SNL1,
             CONTRAINTE=('EFGE_ELNO','EFGE_NOEU'),
             FORCE='FORC_NODA',);

SNL3=STAT_NON_LINE(MODELE=MODELE,
                   CHAM_MATER=CHMAT,
                   CARA_ELEM=CARA_ELE,
                   EXCIT=(_F(CHARGE=CC,),
                          _F(CHARGE=FORCEZ,),),
                   COMP_INCR=_F(RELATION='ELAS',),
                   INCREMENT=_F(LIST_INST=LIST,),
                   CONVERGENCE=_F(RESI_GLOB_RELA=1e-08,),);

SNL3=CALC_CHAMP(reuse =SNL3,
                RESULTAT=SNL3,
                CONTRAINTE=('EFGE_ELNO','EFGE_NOEU'),
                FORCE='FORC_NODA',);

PSNL1=POST_RELEVE_T(ACTION=(_F(INTITULE='PSNL1_GAUCHE',
                              GROUP_NO='GAUCHE',
                              RESULTAT=SNL1,
                              NOM_CHAM='FORC_NODA',
                              RESULTANTE=('DX','DY','DZ',),
                              MOMENT=('DRX','DRY','DRZ',),
                              POINT=(0.0,0.0,0.0,),
                              OPERATION='EXTRACTION',),
                           _F(INTITULE='PSNL1_DROITE',
                              GROUP_NO='DROITE',
                              RESULTAT=SNL1,
                              NOM_CHAM='FORC_NODA',
                              RESULTANTE=('DX','DY','DZ',),
                              MOMENT=('DRX','DRY','DRZ',),
                              POINT=(0.0,0.0,0.0,),
                              OPERATION='EXTRACTION',),
                              ),);

PSNL3=POST_RELEVE_T(ACTION=(_F(INTITULE='PSNL3_GAUCHE',
                              GROUP_NO='GAUCHE',
                              RESULTAT=SNL3,
                              NOM_CHAM='FORC_NODA',
                              RESULTANTE=('DX','DY','DZ',),
                              MOMENT=('DRX','DRY','DRZ',),
                              POINT=(0.0,0.0,0.0,),
                              OPERATION='EXTRACTION',),
                           _F(INTITULE='PSNL3_DROITE',
                              GROUP_NO='DROITE',
                              RESULTAT=SNL3,
                              NOM_CHAM='FORC_NODA',
                              RESULTANTE=('DX','DY','DZ',),
                              MOMENT=('DRX','DRY','DRZ',),
                              POINT=(0.0,0.0,0.0,),
                              OPERATION='EXTRACTION',),
                              ),);

# Filtrage etat inital

PSNL1=CALC_TABLE(reuse =PSNL1,
               TABLE=PSNL1,
               ACTION=(_F(
                          OPERATION = 'FILTRE',
                          NOM_PARA  = 'NUME_ORDRE',
                          CRIT_COMP = 'GT',
                          VALE    = 0,
                         ),),);

PSNL3=CALC_TABLE(reuse =PSNL3,
               TABLE=PSNL3,
               ACTION=(_F(
                          OPERATION = 'FILTRE',
                          NOM_PARA  = 'NUME_ORDRE',
                          CRIT_COMP = 'GT',
                          VALE    = 0,
                         ),),);

# TEST SUR LE RESULTAT STAT_NON_LINE 1

# DEPLACEMENT

TEST_RESU(RESU=_F(NUME_ORDRE=1,
                  GROUP_NO='B',
                  REFERENCE='AUTRE_ASTER',
                  RESULTAT=SNL1,
                  NOM_CHAM='DEPL',
                  NOM_CMP='DX',
                  VALE_CALC= 5.4362194082538E-03,
                  VALE_REFE=5.6766753846415E-3,
                  CRITERE='RELATIF',
                  PRECISION=0.050000000000000003,),
          )

TEST_RESU(RESU=_F(NUME_ORDRE=1,
                  GROUP_NO='C',
                  REFERENCE='AUTRE_ASTER',
                  RESULTAT=SNL1,
                  NOM_CHAM='DEPL',
                  NOM_CMP='DX',
                  VALE_CALC= 5.6615073881321E-03,
                  VALE_REFE=5.837493523202E-3,
                  CRITERE='RELATIF',
                  PRECISION=0.050000000000000003,),
          )

# FORCES NODALES

TEST_TABLE(REFERENCE='ANALYTIQUE',
           PRECISION=1.0000000000000001E-09,
           VALE_CALC=-2.000000000E+03,
           VALE_REFE=-2000.0,
           TOLE_MACHINE=1.0000000000000001E-09,
           NOM_PARA='RESULT_X',
           TABLE=PSNL1,
           FILTRE=_F(NOM_PARA='INTITULE',
                     VALE_K='PSNL1_GAUCHE',),
           )

TEST_TABLE(REFERENCE='ANALYTIQUE',
           PRECISION=1.0000000000000001E-09,
           VALE_CALC= 2.000000000E+03,
           VALE_REFE=2000.0,
           TOLE_MACHINE=1.0000000000000001E-09,
           NOM_PARA='RESULT_X',
           TABLE=PSNL1,
           FILTRE=_F(NOM_PARA='INTITULE',
                     VALE_K='PSNL1_DROITE',),
           )

#EFFORTS GENERALISES

TEST_RESU(RESU=_F(NUME_ORDRE=1,
                  GROUP_NO='A',
                  REFERENCE='AUTRE_ASTER',
                  RESULTAT=SNL1,
                  NOM_CHAM='EFGE_NOEU',
                  NOM_CMP='NXX',
                  VALE_CALC=23.872326803936,
                  VALE_REFE=25.033163955199999,
                  CRITERE='RELATIF',
                  PRECISION=0.050000000000000003,),
          )

TEST_RESU(RESU=_F(NUME_ORDRE=1,
                  GROUP_NO='D',
                  REFERENCE='AUTRE_ASTER',
                  RESULTAT=SNL1,
                  NOM_CHAM='EFGE_NOEU',
                  NOM_CMP='NXX',
                  VALE_CALC=23.898621975296,
                  VALE_REFE=25.022855492800002,
                  CRITERE='RELATIF',
                  PRECISION=0.050000000000000003,),
          )

# TEST SUR LE RESULTAT STAT_NON_LINE 3


# DEPLACEMENT

TEST_RESU(RESU=_F(NUME_ORDRE=1,
                  GROUP_NO='B',
                  REFERENCE='AUTRE_ASTER',
                  RESULTAT=SNL3,
                  NOM_CHAM='DEPL',
                  NOM_CMP='DZ',
                  VALE_CALC=-6.0850602463027,
                  VALE_REFE=-6.2097302104193997,
                  CRITERE='RELATIF',
                  PRECISION=0.025000000000000001,),
          )

TEST_RESU(RESU=_F(NUME_ORDRE=1,
                  GROUP_NO='C',
                  REFERENCE='AUTRE_ASTER',
                  RESULTAT=SNL3,
                  NOM_CHAM='DEPL',
                  NOM_CMP='DZ',
                  VALE_CALC=-6.0824716448581,
                  VALE_REFE=-6.2082328310698003,
                  CRITERE='RELATIF',
                  PRECISION=0.025000000000000001,),
          )

# FORCES NODALES

TEST_TABLE(REFERENCE='ANALYTIQUE',
           PRECISION=1.0000000000000001E-09,
           VALE_CALC= 2.000000001E+03,
           VALE_REFE=2000.0,
           TOLE_MACHINE=1.0000000000000001E-09,
           NOM_PARA='RESULT_Z',
           TABLE=PSNL3,
           FILTRE=_F(NOM_PARA='INTITULE',
                     VALE_K='PSNL3_GAUCHE',),
           )

TEST_TABLE(REFERENCE='ANALYTIQUE',
           PRECISION=1.0000000000000001E-09,
           VALE_CALC=-2.000000000E+03,
           VALE_REFE=-2000.0,
           TOLE_MACHINE=1.0000000000000001E-09,
           NOM_PARA='RESULT_Z',
           TABLE=PSNL3,
           FILTRE=_F(NOM_PARA='INTITULE',
                     VALE_K='PSNL3_DROITE',),
           )

# EFFORTS GENERALISES

TEST_RESU(RESU=(_F(NUME_ORDRE=1,
                   GROUP_NO='A',
                   REFERENCE='AUTRE_ASTER',
                   RESULTAT=SNL3,
                   NOM_CHAM='EFGE_NOEU',
                   NOM_CMP='NXX',
                   VALE_CALC=-880.80633671096,
                   VALE_REFE=-952.57716945200002,
                   CRITERE='RELATIF',
                   PRECISION=0.089999999999999997,),
                _F(NUME_ORDRE=1,
                   GROUP_NO='D',
                   REFERENCE='AUTRE_ASTER',
                   RESULTAT=SNL3,
                   NOM_CHAM='EFGE_NOEU',
                   NOM_CMP='NXX',
                   VALE_CALC=-878.17708247344,
                   VALE_REFE=-953.72746189500003,
                   CRITERE='RELATIF',
                   PRECISION=0.10000000000000001,),
                ),
          )

# RESOLUTION PAR MECA_STATIQUE

RESU1=MECA_STATIQUE(MODELE=MODELE,
                    CHAM_MATER=CHMAT,
                    CARA_ELEM=CARA_ELE,
                    EXCIT=(_F(CHARGE=CC,),
                           _F(CHARGE=FORCEX,),),);

RESU1=CALC_CHAMP(reuse =RESU1,
                 RESULTAT=RESU1,
                 CONTRAINTE=('EFGE_ELNO','EFGE_NOEU',),
                 FORCE='FORC_NODA',);

RESU3=MECA_STATIQUE(MODELE=MODELE,
                    CHAM_MATER=CHMAT,
                    CARA_ELEM=CARA_ELE,
                    EXCIT=(_F(CHARGE=CC,),
                           _F(CHARGE=FORCEZ,),),);

RESU3=CALC_CHAMP(reuse =RESU3,
                 RESULTAT=RESU3,
                 CONTRAINTE=('EFGE_ELNO','EFGE_NOEU',),
                 FORCE='FORC_NODA',);

PSL1=POST_RELEVE_T(ACTION=(_F(INTITULE='PSL1_GAUCHE',
                              GROUP_NO='GAUCHE',
                              RESULTAT=RESU1,
                              NOM_CHAM='FORC_NODA',
                              RESULTANTE=('DX','DY','DZ',),
                              MOMENT=('DRX','DRY','DRZ',),
                              POINT=(0.0,0.0,0.0,),
                              OPERATION='EXTRACTION',),
                           _F(INTITULE='PSL1_DROITE',
                              GROUP_NO='DROITE',
                              RESULTAT=RESU1,
                              NOM_CHAM='FORC_NODA',
                              RESULTANTE=('DX','DY','DZ',),
                              MOMENT=('DRX','DRY','DRZ',),
                              POINT=(0.0,0.0,0.0,),
                              OPERATION='EXTRACTION',),
                              ),);

PSL3=POST_RELEVE_T(ACTION=(_F(INTITULE='PSL3_GAUCHE',
                              GROUP_NO='GAUCHE',
                              RESULTAT=RESU3,
                              NOM_CHAM='FORC_NODA',
                              RESULTANTE=('DX','DY','DZ',),
                              MOMENT=('DRX','DRY','DRZ',),
                              POINT=(0.0,0.0,0.0,),
                              OPERATION='EXTRACTION',),
                           _F(INTITULE='PSL3_DROITE',
                              GROUP_NO='DROITE',
                              RESULTAT=RESU3,
                              NOM_CHAM='FORC_NODA',
                              RESULTANTE=('DX','DY','DZ',),
                              MOMENT=('DRX','DRY','DRZ',),
                              POINT=(0.0,0.0,0.0,),
                              OPERATION='EXTRACTION',),
                              ),);


# TEST SUR LE RESULTAT MECA_STATIQUE 1


# DEPLACEMENT

TEST_RESU(RESU=_F(NUME_ORDRE=1,
                  GROUP_NO='B',
                  REFERENCE='AUTRE_ASTER',
                  RESULTAT=RESU1,
                  NOM_CHAM='DEPL',
                  NOM_CMP='DX',
                  VALE_CALC= 5.4365131962836E-03,
                  VALE_REFE=5.6766753846415E-3,
                  CRITERE='RELATIF',
                  PRECISION=0.050000000000000003,),
          )

TEST_RESU(RESU=_F(NUME_ORDRE=1,
                  GROUP_NO='C',
                  REFERENCE='AUTRE_ASTER',
                  RESULTAT=RESU1,
                  NOM_CHAM='DEPL',
                  NOM_CMP='DX',
                  VALE_CALC= 5.6618371797358E-03,
                  VALE_REFE=5.837493523202E-3,
                  CRITERE='RELATIF',
                  PRECISION=0.050000000000000003,),
          )

# FORCES NODALES

TEST_TABLE(REFERENCE='ANALYTIQUE',
           PRECISION=1.0000000000000001E-05,
           VALE_CALC=-1.99999935E+03,
           VALE_REFE=-2000.0,
           NOM_PARA='RESULT_X',
           TABLE=PSL1,
           FILTRE=_F(NOM_PARA='INTITULE',
                     VALE_K='PSL1_GAUCHE',),
           )

TEST_TABLE(REFERENCE='ANALYTIQUE',
           PRECISION=1.0000000000000001E-05,
           VALE_CALC= 2.00000344E+03,
           VALE_REFE=2000.0,
           NOM_PARA='RESULT_X',
           TABLE=PSL1,
           FILTRE=_F(NOM_PARA='INTITULE',
                     VALE_K='PSL1_DROITE',),
           )

# EFFORTS GENERALISES

TEST_RESU(RESU=_F(NUME_ORDRE=1,
                  GROUP_NO='A',
                  REFERENCE='AUTRE_ASTER',
                  RESULTAT=RESU1,
                  NOM_CHAM='EFGE_NOEU',
                  NOM_CMP='NXX',
                  VALE_CALC=23.876913032893,
                  VALE_REFE=25.033163955199999,
                  CRITERE='RELATIF',
                  PRECISION=0.050000000000000003,),
          )

TEST_RESU(RESU=_F(NUME_ORDRE=1,
                  GROUP_NO='D',
                  REFERENCE='AUTRE_ASTER',
                  RESULTAT=RESU1,
                  NOM_CHAM='EFGE_NOEU',
                  NOM_CMP='NXX',
                  VALE_CALC=23.902655578807,
                  VALE_REFE=25.022855492800002,
                  CRITERE='RELATIF',
                  PRECISION=0.050000000000000003,),
          )

# TEST SUR LE RESULTAT STAT_NON_LINE 3


# DEPLACEMENT

TEST_RESU(RESU=_F(NUME_ORDRE=1,
                  GROUP_NO='B',
                  REFERENCE='AUTRE_ASTER',
                  RESULTAT=RESU3,
                  NOM_CHAM='DEPL',
                  NOM_CMP='DZ',
                  VALE_CALC=-6.0861231890332,
                  VALE_REFE=-6.2097302104193997,
                  CRITERE='RELATIF',
                  PRECISION=0.025000000000000001,),
          )

TEST_RESU(RESU=_F(NUME_ORDRE=1,
                  GROUP_NO='C',
                  REFERENCE='AUTRE_ASTER',
                  RESULTAT=RESU3,
                  NOM_CHAM='DEPL',
                  NOM_CMP='DZ',
                  VALE_CALC=-6.0835219717735,
                  VALE_REFE=-6.2082328310698003,
                  CRITERE='RELATIF',
                  PRECISION=0.025000000000000001,),
          )

# FORCES NODALES

TEST_TABLE(REFERENCE='ANALYTIQUE',
           PRECISION=1.0000000000000001E-05,
           VALE_CALC= 1.99999814E+03,
           VALE_REFE=2000.0,
           NOM_PARA='RESULT_Z',
           TABLE=PSL3,
           FILTRE=_F(NOM_PARA='INTITULE',
                     VALE_K='PSL3_GAUCHE',),
           )

TEST_TABLE(REFERENCE='ANALYTIQUE',
           PRECISION=1.0000000000000001E-05,
           VALE_CALC=-2.00000073E+03,
           VALE_REFE=-2000.0,
           NOM_PARA='RESULT_Z',
           TABLE=PSL3,
           FILTRE=(_F(NOM_PARA='INTITULE',
                      VALE_K='PSL3_DROITE',),
                   _F(NOM_PARA='NUME_ORDRE',
                      VALE_I=1,),
                   ),
           )

# EFFORTS GENERALISES

TEST_RESU(RESU=(_F(NUME_ORDRE=1,
                   GROUP_NO='A',
                   REFERENCE='AUTRE_ASTER',
                   RESULTAT=RESU3,
                   NOM_CHAM='EFGE_NOEU',
                   NOM_CMP='NXX',
                   VALE_CALC=-880.94540120161,
                   VALE_REFE=-952.57716945200002,
                   CRITERE='RELATIF',
                   PRECISION=0.089999999999999997,),
                _F(NUME_ORDRE=1,
                   GROUP_NO='D',
                   REFERENCE='AUTRE_ASTER',
                   RESULTAT=RESU3,
                   NOM_CHAM='EFGE_NOEU',
                   NOM_CMP='NXX',
                   VALE_CALC=-878.49918373716,
                   VALE_REFE=-953.72746189500003,
                   CRITERE='RELATIF',
                   PRECISION=0.10000000000000001,),
                ),
          )

FIN();
