# MODIF  DATE 31/08/2004   AUTEUR JMBHH01 J.M.PROIX 
# TITRE PLAQUE ENCASTREE EN TRACTION CONSTITUEE DE 3 NAPPES D'ARMATURES
#            CONFIGURATION MANAGEMENT OF EDF VERSION
# ======================================================================
# COPYRIGHT (C) 1991 - 2001  EDF R&D                  WWW.CODE-ASTER.ORG
# THIS PROGRAM IS FREE SOFTWARE; YOU CAN REDISTRIBUTE IT AND/OR MODIFY
# IT UNDER THE TERMS OF THE GNU GENERAL PUBLIC LICENSE AS PUBLISHED BY
# THE FREE SOFTWARE FOUNDATION; EITHER VERSION 2 OF THE LICENSE, OR   
# (AT YOUR OPTION) ANY LATER VERSION.                                 
#
# THIS PROGRAM IS DISTRIBUTED IN THE HOPE THAT IT WILL BE USEFUL, BUT 
# WITHOUT ANY WARRANTY; WITHOUT EVEN THE IMPLIED WARRANTY OF          
# MERCHANTABILITY OR FITNESS FOR A PARTICULAR PURPOSE. SEE THE GNU    
# GENERAL PUBLIC LICENSE FOR MORE DETAILS.                            
#
# YOU SHOULD HAVE RECEIVED A COPY OF THE GNU GENERAL PUBLIC LICENSE   
# ALONG WITH THIS PROGRAM; IF NOT, WRITE TO EDF R&D CODE_ASTER,       
#    1 AVENUE DU GENERAL DE GAULLE, 92141 CLAMART CEDEX, FRANCE.      
# ======================================================================

DEBUT(    CODE=_F(  NOM = 'SSLS109B',NIV_PUB_WEB='INTERNET') )

#-----------------------------------------------------------------------
# VALIDATION DU MODELE GRILLE EN ELASTICITE LINEAIRE
#-----------------------------------------------------------------------

MAILL1=LIRE_MAILLAGE(   )


MAILL2=CREA_MAILLAGE( 
               MAILLAGE=MAILL1,
               CREA_GROUP_MA=_F( 
                   NOM = 'GEOBB',  
                   GROUP_MA = 'GEOB',  
                   PREF_MAILLE = 'A',  
                              )
                           )

MAILL3=CREA_MAILLAGE( 
               MAILLAGE=MAILL2,
               CREA_GROUP_MA=_F( 
                   NOM = 'GEOB1',  
                   GROUP_MA = 'GEOB',  
                   PREF_MAILLE = 'B',  
                              )
                           )

MAILL4=CREA_MAILLAGE( 
               MAILLAGE=MAILL3,
               CREA_GROUP_MA=_F( 
                   NOM = 'GEOBB1',  
                   GROUP_MA = 'GEOB',  
                   PREF_MAILLE = 'C',  
                              )
                           )


MAILL5=CREA_MAILLAGE( 
               MAILLAGE=MAILL4,
               CREA_GROUP_MA=_F( 
                   NOM = 'GEOB2',  
                   GROUP_MA = 'GEOB',  
                   PREF_MAILLE = 'D',  
                              )
                           )


MAILTOT=CREA_MAILLAGE( 
               MAILLAGE=MAILL5,
               CREA_GROUP_MA=_F( 
                   NOM = 'GEOBB2',  
                   GROUP_MA = 'GEOB',  
                   PREF_MAILLE = 'E',  
                              )
                           )



#
# -----------------------------------------------------
# DEFINITION DES MATERIAUX
# -----------------------------------------------------
#

MATER1=DEFI_MATERIAU(  ELAS=_F(  E = 1.,       NU = 0., ) ,
                        ECRO_LINE=_F(SY=1000000000,D_SIGM_EPSI=0),
                          )

MATER2=DEFI_MATERIAU(  ELAS=_F(  E = 2.,       NU = 0., ) ,
                        ECRO_LINE=_F(SY=1000000000,D_SIGM_EPSI=0),
                          )

MATER3=DEFI_MATERIAU(  ELAS=_F(  E = 3.,       NU = 0., ), 
                        ECRO_LINE=_F(SY=1000000000,D_SIGM_EPSI=0),
                          )

#
# -------------------------------------------------
# AFFECTATION DES MATERIAUX 
# -------------------------------------------------
#
MATAF=AFFE_MATERIAU(    MAILLAGE=MAILTOT,AFFE=(
                          _F(  GROUP_MA = ('GEOB','GEOBB'),    
                                 MATER = MATER1,  
                               ),
                          _F(  GROUP_MA = ('GEOB1','GEOBB1'),    
                                 MATER = MATER2,  
                               ),
                          _F(  GROUP_MA = ('GEOB2','GEOBB2'),    
                                 MATER = MATER3,  
                               )) 
                      )

#
# -------------------------------------------------
# AFFECTATION DES MODELES 
# -------------------------------------------------
#
LEMOD=AFFE_MODELE(    MAILLAGE=MAILTOT,     VERIF='MAILLE',AFFE=( 
                        _F(  GROUP_MA = ('GEOB','GEOBB'),     
                               MODELISATION = 'GRILLE',  
                               PHENOMENE = 'MECANIQUE',   
                             ),
                        _F(  GROUP_MA = ('GEOB1','GEOBB1'),     
                               MODELISATION = 'GRILLE',  
                               PHENOMENE = 'MECANIQUE',   
                             ),
                        _F(  GROUP_MA = ('GEOB2','GEOBB2'),     
                               MODELISATION = 'GRILLE',  
                               PHENOMENE = 'MECANIQUE',   
                             ))
                      )

# -------------------------------------------------
# AFFECTATION DES CARACTERISTIQUES 
# -------------------------------------------------
#
LACAR=AFFE_CARA_ELEM(    MODELE=LEMOD,GRILLE=(
                       _F( GROUP_MA = 'GEOB',   
                                SECTION = .01,    
                                ANGL_REP = (30.0, 0.0,),    
                                EXCENTREMENT = -.01,
                             ),
                       _F( GROUP_MA = 'GEOBB',
                                SECTION = .01,    
                                ANGL_REP = (120.0, 0.0,),    
                                EXCENTREMENT = -.01,
                             ),     
                       _F( GROUP_MA = 'GEOB1',
                                SECTION = .01,    
                                ANGL_REP = (10.0, 0.0,),     
                                EXCENTREMENT = 0.,
                             ),
                       _F( GROUP_MA = 'GEOBB1',
                                SECTION = .01,    
                                ANGL_REP = (100.0, 0.0,),    
                                EXCENTREMENT = 0., 
                             ),     
                       _F( GROUP_MA = 'GEOB2',
                                SECTION = .01,    
                                ANGL_REP = (-45.0, 0.0,),    
                                EXCENTREMENT = .01,
                             ), 
                       _F( GROUP_MA = 'GEOBB2',   
                                SECTION = .01,    
                                ANGL_REP = (45.0, 0.0,),     
                                EXCENTREMENT = .01,
                              ))
                        )

#
# -------------------------------------------------
# AFFECTATION DU CHARGEMENT 
# -------------------------------------------------
#
LECHAR=AFFE_CHAR_MECA(    MODELE=LEMOD,DDL_IMPO=(
              _F( NOEUD = 'NO1',   DX = 0.,    DY = 0.,    DZ = 0.,
                                  DRX = 0.,   DRY = 0.,   DRZ = 0.,  
                       ),
                       _F( NOEUD = 'NO4',   DX = 0.,    DY = 0.,    DZ = 0.,
                                  DRX = 0.,   DRY = 0.,   DRZ = 0., 
                       )),FORCE_NODALE=(
              _F( NOEUD = 'NO2',        FX = 1.,       ),
                           _F( NOEUD = 'NO3',        FX = 1.,       ))
                         )

#
# -------------------------------------------------
# CALCUL MECANIQUE STATIQUE LINEAIRE 
# -------------------------------------------------
#

RESU0=MECA_STATIQUE(    MODELE=LEMOD,       CHAM_MATER=MATAF,
                               CARA_ELEM=LACAR,
                               EXCIT=_F(  CHARGE = LECHAR,    )       )

RESU0=CALC_ELEM(reuse=RESU0,     RESULTAT=RESU0,        
                             OPTION='EFGE_ELNO_DEPL' )

RESU0=CALC_ELEM(reuse=RESU0,     RESULTAT=RESU0,       
                             OPTION='SIGM_ELNO_DEPL' )

#RESU0=CALC_ELEM(reuse=RESU0,     RESULTAT=RESU0,        
#                             OPTION='SIEF_ELGA_DEPL' )

RESU0=CALC_NO(  reuse=RESU0,   RESULTAT=RESU0,
                               TOUT='OUI',
                               OPTION='FORC_NODA',)


RESU0=CALC_ELEM(reuse=RESU0,     RESULTAT=RESU0,        
                             OPTION='EPSI_ELNO_DEPL' )

RESU0=CALC_ELEM(reuse=RESU0,     RESULTAT=RESU0,        
                             OPTION='DEGE_ELNO_DEPL' )

RESU0=CALC_ELEM(reuse=RESU0,     RESULTAT=RESU0,        
                             OPTION='SIEF_ELNO_ELGA' )

# -------------------------------------------------
# CALCUL MECANIQUE STATIQUE LINEAIRE 
# -------------------------------------------------
#

LINST=DEFI_LIST_REEL(   DEBUT=0.,INTERVALLE=(
                             _F( JUSQU_A = 1.00,   NOMBRE = 1,   ),))
FONCMULT=DEFI_FONCTION(NOM_PARA='INST',VALE=(0.,0.,1000.,1000.))
                         
RESU1=STAT_NON_LINE(    MODELE=LEMOD,       CHAM_MATER=MATAF,
                               CARA_ELEM=LACAR,
                               EXCIT=_F(  CHARGE = LECHAR, FONC_MULT=FONCMULT   ) ,
                               INCREMENT=_F(LIST_INST = LINST),
                               COMP_INCR=_F(RELATION = 'GRILLE_ISOT_LINE' ),)

RESU1=CALC_NO(  reuse=RESU1,   RESULTAT=RESU1,
                               TOUT='OUI',
                               OPTION='FORC_NODA', )

RESU1=CALC_ELEM(reuse=RESU1,     RESULTAT=RESU1,        
                             OPTION='SIEF_ELNO_ELGA' )

TEST_RESU(RESU=(

# -- TEST SUR LES DEPLACEMENTS ET LES ROTATIONS
             
                _F( 
                RESULTAT = RESU0,   
                NUME_ORDRE = 1,
                NOM_CHAM = 'DEPL',  
                MAILLE = 'DMA1',     
                NOEUD = 'NO2',      
                NOM_CMP = 'DX',   
                REFERENCE='NON_REGRESSION',VALE= 8.4625868995839E+01,       
                ),
                _F( 
                RESULTAT = RESU0,   
                NUME_ORDRE = 1,
                NOM_CHAM = 'DEPL',  
                MAILLE = 'DMA1',     
                NOEUD = 'NO2',      
                NOM_CMP = 'DY',   
                REFERENCE='NON_REGRESSION',VALE= -2.2897294052303E+01,       
                ),
                _F( 
                RESULTAT = RESU0,   
                NUME_ORDRE = 1,
                NOM_CHAM = 'DEPL',  
                MAILLE = 'DMA1',     
                NOEUD = 'NO2',      
                NOM_CMP = 'DZ',   
                REFERENCE='NON_REGRESSION',VALE= 2.5418897475038E+03,       
                ),
                _F( 
                RESULTAT = RESU0,   
                NUME_ORDRE = 1,
                NOM_CHAM = 'DEPL',  
                MAILLE = 'DMA1',     
                NOEUD = 'NO2',      
                NOM_CMP = 'DRX',   
                REFERENCE='NON_REGRESSION',VALE= -1.3560826826939E+03,       
                ),
                _F( 
                RESULTAT = RESU0,   
                NUME_ORDRE = 1,
                NOM_CHAM = 'DEPL',  
                MAILLE = 'DMA1',     
                NOEUD = 'NO2',      
                NOM_CMP = 'DRY',   
                REFERENCE='NON_REGRESSION',VALE= -4.6905005808175E+03,       
                ),

# -- TEST SUR LES DEFORMATIONS DANS LE SOLIDE 1
# LE SOLIDE 1 EST CONSTITUE DES MAILLES DMA1 (ANGLE_REP=-45)
#                                    et EMA1 (ANGLE_REP= 45)
                _F( 
                RESULTAT = RESU0,   
                NUME_ORDRE = 1,
                NOM_CHAM = 'EPSI_ELNO_DEPL',  
                MAILLE = 'DMA1',     
                NOEUD = 'NO2',      
                NOM_CMP = 'EPXX',   
                REFERENCE='NON_REGRESSION',VALE= 2.0745492846913E+01,       
                ),
                _F( 
                RESULTAT = RESU0,   
                NUME_ORDRE = 1,
                NOM_CHAM = 'EPSI_ELNO_DEPL',  
                MAILLE = 'DMA1',     
                NOEUD = 'NO2',      
                NOM_CMP = 'EPYY',   
                REFERENCE='NON_REGRESSION',VALE= 1.1531743784551E+01,       
                ),
                _F( 
                RESULTAT = RESU0,   
                NUME_ORDRE = 1,
                NOM_CHAM = 'EPSI_ELNO_DEPL',  
                MAILLE = 'DMA1',     
                NOEUD = 'NO2',      
                NOM_CMP = 'EPXY',   
                REFERENCE='NON_REGRESSION',VALE= 3.3380612297638E+01,       
                ),
                _F( 
                RESULTAT = RESU0,   
                NUME_ORDRE = 1,
                NOM_CHAM = 'EPSI_ELNO_DEPL',  
                MAILLE = 'DMA1',     
                NOEUD = 'NO2',      
                NOM_CMP = 'EPZZ',   
                REFERENCE='NON_REGRESSION',VALE= 0.0,       
                CRITERE = 'ABSOLU',    
                ),
                _F( 
                RESULTAT = RESU0,   
                NUME_ORDRE = 1,
                NOM_CHAM = 'EPSI_ELNO_DEPL',  
                MAILLE = 'EMA1',     
                NOEUD = 'NO2',      
                NOM_CMP = 'EPXX',   
                REFERENCE='NON_REGRESSION',VALE= 1.1531743784551E+01,       
                ),
                _F( 
                RESULTAT = RESU0,   
                NUME_ORDRE = 1,
                NOM_CHAM = 'EPSI_ELNO_DEPL',  
                MAILLE = 'EMA1',     
                NOEUD = 'NO2',      
                NOM_CMP = 'EPYY',   
                REFERENCE='NON_REGRESSION',VALE= 2.0745492846913E+01,       
                ),
                _F( 
                RESULTAT = RESU0,   
                NUME_ORDRE = 1,
                NOM_CHAM = 'EPSI_ELNO_DEPL',  
                MAILLE = 'EMA1',     
                NOEUD = 'NO2',      
                NOM_CMP = 'EPXY',   
                REFERENCE='NON_REGRESSION',VALE= -3.3380612297638E+01,       
                ),
                _F( 
                RESULTAT = RESU0,   
                NUME_ORDRE = 1,
                NOM_CHAM = 'EPSI_ELNO_DEPL',  
                MAILLE = 'EMA1',     
                NOEUD = 'NO2',      
                NOM_CMP = 'EPZZ',   
                REFERENCE='NON_REGRESSION',VALE= 0.0,       
                CRITERE = 'ABSOLU',    
                ),

# -- TEST SUR LES COURBURES DANS LE SOLIDE 1, mailles DMA1 et EMA1
                _F( 
                RESULTAT = RESU0,   
                NUME_ORDRE = 1,
                NOM_CHAM = 'DEGE_ELNO_DEPL',  
                MAILLE = 'DMA1',     
                NOEUD = 'NO2',      
                NOM_CMP = 'KXX',   
                REFERENCE='NON_REGRESSION',VALE= -3.4236404234436E+03,       
                ),
                _F( 
                RESULTAT = RESU0,   
                NUME_ORDRE = 1,
                NOM_CHAM = 'DEGE_ELNO_DEPL',  
                MAILLE = 'DMA1',     
                NOEUD = 'NO2',      
                NOM_CMP = 'KYY',   
                REFERENCE='NON_REGRESSION',VALE= 2.4857276100072E+02,       
                ),
                _F( 
                RESULTAT = RESU0,   
                NUME_ORDRE = 1,
                NOM_CHAM = 'DEGE_ELNO_DEPL',  
                MAILLE = 'DMA1',     
                NOEUD = 'NO2',      
                NOM_CMP = 'KXY',   
                REFERENCE='NON_REGRESSION',VALE= -1.9231300070255E+03,       
                ),
                _F( 
                RESULTAT = RESU0,   
                NUME_ORDRE = 1,
                NOM_CHAM = 'DEGE_ELNO_DEPL',  
                MAILLE = 'EMA1',     
                NOEUD = 'NO2',      
                NOM_CMP = 'KXX',   
                REFERENCE='NON_REGRESSION',VALE= 2.4857276100072E+02,       
                ),
                _F( 
                RESULTAT = RESU0,   
                NUME_ORDRE = 1,
                NOM_CHAM = 'DEGE_ELNO_DEPL',  
                MAILLE = 'EMA1',     
                NOEUD = 'NO2',      
                NOM_CMP = 'KYY',   
                REFERENCE='NON_REGRESSION',VALE= -3.4236404234436E+03,      
                ),
                _F( 
                RESULTAT = RESU0,   
                NUME_ORDRE = 1,
                NOM_CHAM = 'DEGE_ELNO_DEPL',  
                MAILLE = 'EMA1',     
                NOEUD = 'NO2',      
                NOM_CMP = 'KXY',   
                REFERENCE='NON_REGRESSION',VALE=  1.9231300070255E+03,       
                ),
# -- TEST SUR LES COURBURES DANS LE SOLIDE 2, mailles BMA1 et CMA1
                _F( 
                RESULTAT = RESU0,   
                NUME_ORDRE = 1,
                NOM_CHAM = 'DEGE_ELNO_DEPL',  
                MAILLE = 'BMA1',     
                NOEUD = 'NO2',      
                NOM_CMP = 'KXX',   
                REFERENCE='NON_REGRESSION',VALE= -2.7666994678022E+03,       
                ),
                _F( 
                RESULTAT = RESU0,   
                NUME_ORDRE = 1,
                NOM_CHAM = 'DEGE_ELNO_DEPL',  
                MAILLE = 'BMA1',     
                NOEUD = 'NO2',      
                NOM_CMP = 'KYY',   
                REFERENCE='NON_REGRESSION',VALE= -4.0836819464067E+02,       
                ),
                _F( 
                RESULTAT = RESU0,   
                NUME_ORDRE = 1,
                NOM_CHAM = 'DEGE_ELNO_DEPL',  
                MAILLE = 'BMA1',     
                NOEUD = 'NO2',      
                NOM_CMP = 'KXY',   
                REFERENCE='NON_REGRESSION',VALE= 2.3831250163243E+03,       
                ),
                _F( 
                RESULTAT = RESU0,   
                NUME_ORDRE = 1,
                NOM_CHAM = 'DEGE_ELNO_DEPL',  
                MAILLE = 'CMA1',     
                NOEUD = 'NO2',      
                NOM_CMP = 'KXX',   
                REFERENCE='NON_REGRESSION',VALE=-4.0836819464067E+02,       
                ),
                _F( 
                RESULTAT = RESU0,   
                NUME_ORDRE = 1,
                NOM_CHAM = 'DEGE_ELNO_DEPL',  
                MAILLE = 'CMA1',     
                NOEUD = 'NO2',      
                NOM_CMP = 'KYY',   
                REFERENCE='NON_REGRESSION',VALE= -2.7666994678022E+03,      
                ),
                _F( 
                RESULTAT = RESU0,   
                NUME_ORDRE = 1,
                NOM_CHAM = 'DEGE_ELNO_DEPL',  
                MAILLE = 'CMA1',     
                NOEUD = 'NO2',      
                NOM_CMP = 'KXY',   
                REFERENCE='NON_REGRESSION',VALE= -2.3831250163243E+03,       
                ),
# -- TEST SUR LES COURBURES DANS LE SOLIDE 3, mailles MA1 et AMA1
                _F( 
                RESULTAT = RESU0,   
                NUME_ORDRE = 1,
                NOM_CHAM = 'DEGE_ELNO_DEPL',  
                MAILLE = 'MA1',     
                NOEUD = 'NO2',      
                NOM_CMP = 'KXX',   
                REFERENCE='NON_REGRESSION',VALE= -9.5898388181371E+02,       
                ),
                _F( 
                RESULTAT = RESU0,   
                NUME_ORDRE = 1,
                NOM_CHAM = 'DEGE_ELNO_DEPL',  
                MAILLE = 'MA1',     
                NOEUD = 'NO2',      
                NOM_CMP = 'KYY',   
                REFERENCE='NON_REGRESSION',VALE= -2.2160837806292E+03,       
                ),
                _F( 
                RESULTAT = RESU0,   
                NUME_ORDRE = 1,
                NOM_CHAM = 'DEGE_ELNO_DEPL',  
                MAILLE = 'MA1',     
                NOEUD = 'NO2',      
                NOM_CMP = 'KXY',   
                REFERENCE='NON_REGRESSION',VALE=2.5835327369753E+03,       
                ),
                _F( 
                RESULTAT = RESU0,   
                NUME_ORDRE = 1,
                NOM_CHAM = 'DEGE_ELNO_DEPL',  
                MAILLE = 'AMA1',     
                NOEUD = 'NO2',      
                NOM_CMP = 'KXX',   
                REFERENCE='NON_REGRESSION',VALE= -2.2160837806292E+03,       
                ),
                _F( 
                RESULTAT = RESU0,   
                NUME_ORDRE = 1,
                NOM_CHAM = 'DEGE_ELNO_DEPL',  
                MAILLE = 'AMA1',     
                NOEUD = 'NO2',      
                NOM_CMP = 'KYY',   
                REFERENCE='NON_REGRESSION',VALE=-9.5898388181371E+02,      
                ),
                _F( 
                RESULTAT = RESU0,   
                NUME_ORDRE = 1,
                NOM_CHAM = 'DEGE_ELNO_DEPL',  
                MAILLE = 'AMA1',     
                NOEUD = 'NO2',      
                NOM_CMP = 'KXY',   
                REFERENCE='NON_REGRESSION',VALE= -2.5835327369753E+03,       
                ),

# -- TEST SUR LES CONTRAINTES DANS LE SOLIDE 1, mailles DMA1 et EMA1
                _F( 
                RESULTAT = RESU0,   
                NUME_ORDRE = 1,
                NOM_CHAM = 'SIGM_ELNO_DEPL',  
                MAILLE = 'DMA1',     
                NOEUD = 'NO2',      
                NOM_CMP = 'SIXX',   
                REFERENCE='NON_REGRESSION',VALE= 6.2236478540739E+01,        
                ),
                _F( 
                RESULTAT = RESU0,   
                NUME_ORDRE = 1,
                NOM_CHAM = 'SIGM_ELNO_DEPL',  
                MAILLE = 'DMA1',     
                NOEUD = 'NO2',      
                NOM_CMP = 'SIYY',   
                REFERENCE='NON_REGRESSION',VALE= 0.,       
                CRITERE = 'ABSOLU',    
                ),
                _F( 
                RESULTAT = RESU0,   
                NUME_ORDRE = 1,
                NOM_CHAM = 'SIGM_ELNO_DEPL',  
                MAILLE = 'DMA1',     
                NOEUD = 'NO2',      
                NOM_CMP = 'SIZZ',   
                REFERENCE='NON_REGRESSION',VALE= 0.,       
                CRITERE = 'ABSOLU',    
                ),
                _F( 
                RESULTAT = RESU0,   
                NUME_ORDRE = 1,
                NOM_CHAM = 'SIGM_ELNO_DEPL',  
                MAILLE = 'DMA1',     
                NOEUD = 'NO2',  
                NOM_CMP = 'SIXY',    
                REFERENCE='NON_REGRESSION',VALE= 0.,       
                CRITERE = 'ABSOLU',       
                ),

                _F( 
                RESULTAT = RESU0,   
                NUME_ORDRE = 1,
                NOM_CHAM = 'SIGM_ELNO_DEPL',  
                MAILLE = 'EMA1',     
                NOEUD = 'NO2',      
                NOM_CMP = 'SIXX',   
                REFERENCE='NON_REGRESSION',VALE= 3.4595231353654E+01,        
                ),
                _F( 
                RESULTAT = RESU0,   
                NUME_ORDRE = 1,
                NOM_CHAM = 'SIGM_ELNO_DEPL',  
                MAILLE = 'EMA1',     
                NOEUD = 'NO2',      
                NOM_CMP = 'SIYY',   
                REFERENCE='NON_REGRESSION',VALE= 0.,       
                CRITERE = 'ABSOLU',    
                ),
                _F( 
                RESULTAT = RESU0,   
                NUME_ORDRE = 1,
                NOM_CHAM = 'SIGM_ELNO_DEPL',  
                MAILLE = 'EMA1',     
                NOEUD = 'NO2',      
                NOM_CMP = 'SIZZ',   
                REFERENCE='NON_REGRESSION',VALE= 0.,       
                CRITERE = 'ABSOLU',    
                ),
                _F( 
                RESULTAT = RESU0,   
                NUME_ORDRE = 1,
                NOM_CHAM = 'SIGM_ELNO_DEPL',  
                MAILLE = 'EMA1',     
                NOEUD = 'NO2', 
                NOM_CMP = 'SIXY',     
                REFERENCE='NON_REGRESSION',VALE= 0.,       
                CRITERE = 'ABSOLU',       
                ),

# -- TEST SUR LES EFFORTS GENERALISES DANS LE SOLIDE 1, mailles MA1 et AMA1

                _F( 
                RESULTAT = RESU0,   
                NUME_ORDRE = 1,
                NOM_CHAM = 'SIEF_ELNO_ELGA',  
                MAILLE = 'MA1',     
                NOEUD = 'NO1',      
                NOM_CMP = 'NXX',   
                REFERENCE='NON_REGRESSION',VALE= 8.0403123878572E-01,       
                ),
                _F( 
                RESULTAT = RESU0,   
                NUME_ORDRE = 1,
                NOM_CHAM = 'SIEF_ELNO_ELGA',  
                MAILLE = 'AMA1',     
                NOEUD = 'NO1',      
                NOM_CMP = 'NXX',   
                REFERENCE='NON_REGRESSION',VALE= 6.3768921047384E-01,       
                ),
                _F( 
                RESULTAT = RESU0,   
                NUME_ORDRE = 1,
                NOM_CHAM = 'SIEF_ELNO_ELGA',  
                MAILLE = 'MA1',     
                NOEUD = 'NO1',      
                NOM_CMP = 'MXX',   
                REFERENCE='NON_REGRESSION',VALE= -8.0403123878572E-03,       
                ),
                _F( 
                RESULTAT = RESU0,   
                NUME_ORDRE = 1,
                NOM_CHAM = 'SIEF_ELNO_ELGA',  
                MAILLE = 'AMA1',     
                NOEUD = 'NO1',      
                NOM_CMP = 'MXX',   
                REFERENCE='NON_REGRESSION',VALE= -6.3768921047384E-03,       
                ),

# -- TEST SUR LES FORCES NODALES

                _F( 
                RESULTAT = RESU0,   
                NUME_ORDRE = 1,
                NOM_CHAM = 'FORC_NODA',  
                 NOEUD = 'NO1',      
                NOM_CMP = 'DX',   
                REFERENCE='NON_REGRESSION',VALE= -1.0000E+00,       
                ),
                _F( 
                RESULTAT = RESU0,   
                NUME_ORDRE = 1,
                NOM_CHAM = 'FORC_NODA',  
                  NOEUD = 'NO1',      
                NOM_CMP = 'DY',   
                REFERENCE='NON_REGRESSION',VALE= -4.0699083826641E-01,       
                ),
                _F( 
                RESULTAT = RESU0,   
                NUME_ORDRE = 1,
                NOM_CHAM = 'FORC_NODA',  
                NOEUD = 'NO1',      
                NOM_CMP = 'DZ',   
                REFERENCE='NON_REGRESSION',VALE= -3.5081069002394E-03,       
                ),
                _F( 
                RESULTAT = RESU0,   
                NUME_ORDRE = 1,
                NOM_CHAM = 'FORC_NODA',  
                NOEUD = 'NO1',      
                NOM_CMP = 'DRX',   
                REFERENCE='NON_REGRESSION',VALE= -2.3189339127482E-03,       
                ),
                _F( 
                RESULTAT = RESU0,   
                NUME_ORDRE = 1,
                NOM_CHAM = 'FORC_NODA',  
                NOEUD = 'NO1',      
                NOM_CMP = 'DRY',   
                REFERENCE='NON_REGRESSION',VALE= 4.0468755244076E-03,       
                ),)
              )

FIN()
#
#
