# MODIF  DATE 29/09/2009   AUTEUR GNICOLAS G.NICOLAS 
# TITRE CYLINDRE MINCE SOUS SON POIDS PROPRE (AXIS)
# ssls09c.para = tps_job 60 mem_job 128Mo mem_aster 95 ncpus 1 liste_test R
#            CONFIGURATION MANAGEMENT OF EDF VERSION
# ======================================================================
# COPYRIGHT (C) 1991 - 2004  EDF R&D                  WWW.CODE-ASTER.ORG
# THIS PROGRAM IS FREE SOFTWARE; YOU CAN REDISTRIBUTE IT AND/OR MODIFY
# IT UNDER THE TERMS OF THE GNU GENERAL PUBLIC LICENSE AS PUBLISHED BY
# THE FREE SOFTWARE FOUNDATION; EITHER VERSION 2 OF THE LICENSE, OR
# (AT YOUR OPTION) ANY LATER VERSION.
#
# THIS PROGRAM IS DISTRIBUTED IN THE HOPE THAT IT WILL BE USEFUL, BUT
# WITHOUT ANY WARRANTY; WITHOUT EVEN THE IMPLIED WARRANTY OF
# MERCHANTABILITY OR FITNESS FOR A PARTICULAR PURPOSE. SEE THE GNU
# GENERAL PUBLIC LICENSE FOR MORE DETAILS.
#
# YOU SHOULD HAVE RECEIVED A COPY OF THE GNU GENERAL PUBLIC LICENSE
# ALONG WITH THIS PROGRAM; IF NOT, WRITE TO EDF R&D CODE_ASTER,
#    1 AVENUE DU GENERAL DE GAULLE, 92141 CLAMART CEDEX, FRANCE.
# ======================================================================

DEBUT(CODE=_F(NOM='SSLS09C', NIV_PUB_WEB='INTERNET'), DEBUG=_F(SDVERI='OUI'), MEMOIRE=_F(DYNAMIQUE=400,))

MAIL=LIRE_MAILLAGE();

#
# DEFINITION DU MODELE

MODELE=AFFE_MODELE(MAILLAGE=MAIL,
                   AFFE=_F(TOUT='OUI',
                           PHENOMENE='MECANIQUE',
                           MODELISATION='AXIS_INCO',),);
#
# DEFINITION DU MATERIAU

ACIER=DEFI_MATERIAU(ELAS=_F(E=210000000000.0,
                            NU=0.3,
                            RHO=8000.0,
                            ALPHA=1e-05,),);
#
# ATTRIBUTION DU MATERIAU

CHMAT=AFFE_MATERIAU(MAILLAGE=MAIL,
                    AFFE=_F(TOUT='OUI',
                            MATER=ACIER,),);
#
# DEFINITION DES CONDITIONS AUX LIMITES ET CHARGEMENTS

CLIM=AFFE_CHAR_MECA(MODELE=MODELE,
                    DDL_IMPO=_F(GROUP_MA='APPUI',
                                DY=0.0,),);
#

F_Y=DEFI_FONCTION(NOM_PARA='Y',
                  VALE=(0.0,-78500.0,3.0,-78500.0,6.0,-78500.0,),);

CHARGT=AFFE_CHAR_MECA_F(MODELE=MODELE,
                        FORCE_INTERNE=_F(TOUT='OUI',
                                         FY=F_Y,),);

CH_PESA=AFFE_CHAR_MECA(MODELE=MODELE,
                       PESANTEUR=(9.8125,0.0,-1.0,0.0,),);
#
# RESOLUTION
#DEF=MECA_STATIQUE(    MODELE=MODELE,
#                        CHAM_MATER=CHMAT,EXCIT=(
#                        _F(  CHARGE = CLIM),
#                              _F(  CHARGE = CHARGT))
#                    )

INSTANTS=DEFI_LIST_REEL(DEBUT=0.0,
                        INTERVALLE=_F(JUSQU_A=1.0,
                                      NOMBRE=1,),);

RAMPE=DEFI_FONCTION(NOM_PARA='INST',
                    VALE=(0.0,0.0,1.0,1.0,),);
# CALCUL
#========

DEF=STAT_NON_LINE(MODELE=MODELE,
         SOLVEUR=_F(METHODE='MUMPS',PCENT_PIVOT=900.),
                  CHAM_MATER=CHMAT,
                  EXCIT=(_F(CHARGE=CH_PESA,
                            FONC_MULT=RAMPE,),
                         _F(CHARGE=CLIM,),),
                  COMP_ELAS=_F(RELATION='ELAS',),
                  INCREMENT=_F(LIST_INST=INSTANTS,),
                  NEWTON=_F(REAC_ITER=1,),);

DEF=CALC_ELEM(reuse =DEF,
              MODELE=MODELE,
              CHAM_MATER=CHMAT,
              RESULTAT=DEF,
              OPTION=('SIEF_ELNO_ELGA','ERRE_ELEM_SIGM','ERRE_ELNO_ELEM',),
              EXCIT=(
              _F(CHARGE=CLIM,),
              _F(CHARGE=CH_PESA,
                 FONC_MULT=RAMPE,),),);
#
# TEST_RESU DEPLACEMENTS

TEST_RESU(RESU=(_F(RESULTAT=DEF,
                   NUME_ORDRE=1,
                   NOM_CHAM='DEPL',
                   NOM_CMP='DY',
                   NOEUD='N452',
                   VALE=-2.99e-06,
                   PRECISION=0.001,
                   REFERENCE='ANALYTIQUE',),
                _F(RESULTAT=DEF,
                   NUME_ORDRE=1,
                   NOM_CHAM='DEPL',
                   NOM_CMP='DY',
                   NOEUD='N504',
                   VALE=-2.99e-06,
                   PRECISION=0.001,
                   REFERENCE='ANALYTIQUE',),
                _F(RESULTAT=DEF,
                   NUME_ORDRE=1,
                   NOM_CHAM='DEPL',
                   NOM_CMP='DY',
                   NOEUD='N503',
                   VALE=-2.99e-06,
                   PRECISION=0.001,
                   REFERENCE='ANALYTIQUE',),),);
#

TEST_RESU(RESU=_F(RESULTAT=DEF,
                  NUME_ORDRE=1,
                  NOM_CHAM='DEPL',
                  NOM_CMP='DX',
                  NOEUD='N51',
                  VALE=4.49e-07,
                  PRECISION=0.015,
                  REFERENCE='ANALYTIQUE',),);
#---------------------------------------------------------------------
#    TEST EN CONTRAINTES

TEST_RESU(RESU=(_F(RESULTAT=DEF,
                   NUME_ORDRE=1,
                   NOM_CHAM='SIEF_ELNO_ELGA',
                   NOM_CMP='SIYY',
                   MAILLE='M4',
                   NOEUD='N51',
                   VALE=-314000.0,
                   PRECISION=0.0001,
                   REFERENCE='ANALYTIQUE',),
                _F(RESULTAT=DEF,
                   NUME_ORDRE=1,
                   NOM_CHAM='SIEF_ELNO_ELGA',
                   NOM_CMP='SIXX',
                   MAILLE='M4',
                   NOEUD='N1',
                   VALE=0.0,
                   CRITERE='ABSOLU',
                   PRECISION=36.0,
                   REFERENCE='ANALYTIQUE',),
                _F(RESULTAT=DEF,
                   NUME_ORDRE=1,
                   NOM_CHAM='SIEF_ELNO_ELGA',
                   NOM_CMP='SIXX',
                   MAILLE='M4',
                   NOEUD='N51',
                   VALE=0.0,
                   CRITERE='ABSOLU',
                   PRECISION=30.0,
                   REFERENCE='ANALYTIQUE',),),);
#---------------------------------------------------------------------
#    ESTIMATEUR D'ERREUR EN RESIDU

TEST_RESU(RESU=(_F(RESULTAT=DEF,
                   NUME_ORDRE=1,
                   NOM_CHAM='ERRE_ELEM_SIGM',
                   NOM_CMP='NUEST',
                   MAILLE='M4',
                   POINT=1,
                   VALE=1.3962314817742e-8,
                   REFERENCE='NON_REGRESSION',
                   VERSION='9.3.15',),
                _F(RESULTAT=DEF,
                   NUME_ORDRE=1,
                   NOM_CHAM='ERRE_ELNO_ELEM',
                   NOM_CMP='ERREST',
                   MAILLE='M4',
                   NOEUD='N51',
                   VALE=1.2338367648692e-6,
                   REFERENCE='NON_REGRESSION',
                   VERSION='8.2.15',),),);

FIN();
#
