# TITRE PLAQUE EN FLEXION AVEC DIVERS ELANCEMENTS. MODELISATION SHB15 MAILLAGE REGULIER
#            CONFIGURATION MANAGEMENT OF EDF VERSION
# ======================================================================
# COPYRIGHT (C) 1991 - 2013  EDF R&D                  WWW.CODE-ASTER.ORG
# THIS PROGRAM IS FREE SOFTWARE; YOU CAN REDISTRIBUTE IT AND/OR MODIFY
# IT UNDER THE TERMS OF THE GNU GENERAL PUBLIC LICENSE AS PUBLISHED BY
# THE FREE SOFTWARE FOUNDATION; EITHER VERSION 2 OF THE LICENSE, OR
# (AT YOUR OPTION) ANY LATER VERSION.
#
# THIS PROGRAM IS DISTRIBUTED IN THE HOPE THAT IT WILL BE USEFUL, BUT
# WITHOUT ANY WARRANTY; WITHOUT EVEN THE IMPLIED WARRANTY OF
# MERCHANTABILITY OR FITNESS FOR A PARTICULAR PURPOSE. SEE THE GNU
# GENERAL PUBLIC LICENSE FOR MORE DETAILS.
#
# YOU SHOULD HAVE RECEIVED A COPY OF THE GNU GENERAL PUBLIC LICENSE
# ALONG WITH THIS PROGRAM; IF NOT, WRITE TO EDF R&D CODE_ASTER,
#    1 AVENUE DU GENERAL DE GAULLE, 92141 CLAMART CEDEX, FRANCE.
# ======================================================================

DEBUT(CODE=_F(NOM='SSLS124F', NIV_PUB_WEB='INTERNET'), DEBUG=_F(SDVERI='OUI'))

YG=2.E11
L=100.
b=10.
F=1.

MAT=DEFI_MATERIAU(ELAS=_F(E=YG,
                          NU=0.3,),);



# ===========================================================================================
# CAS 1 :

h=10.

MAIL31=LIRE_MAILLAGE(FORMAT='MED',UNITE=21);

MAIL31=MODI_MAILLAGE(reuse=MAIL31,MAILLAGE=MAIL31,
                     ORIE_SHB=_F(GROUP_MA='GEOTOT'),)

MAIL31=DEFI_GROUP(reuse =MAIL31, MAILLAGE=MAIL31,
                CREA_GROUP_NO=(_F(GROUP_MA='SUENCAS',),
                               _F(GROUP_MA='SUDEPIM',),
                               _F(GROUP_MA='LI15',),
                               _F(GROUP_MA='LI21',),
                               _F(GROUP_MA='LI87',),),);

CHMAT31=AFFE_MATERIAU(MAILLAGE=MAIL31,
                  AFFE=_F(TOUT='OUI',MATER=MAT,),);

MODMEC31=AFFE_MODELE(MAILLAGE=MAIL31,
                    AFFE=_F(TOUT='OUI',
                            PHENOMENE='MECANIQUE',
                            MODELISATION='SHB',),);


CHARG31=AFFE_CHAR_MECA(MODELE=MODMEC31,
                      DDL_IMPO=(_F(GROUP_MA=('SUENCAS'),
                                   DX=0.0,),
                                _F(GROUP_MA='LI15',
                                   DY=0.0,),
                                _F(GROUP_MA='LI21',
                                   DZ=0.0,),),
                      FORCE_ARETE=(_F(GROUP_MA='LI87',
                                      FZ=F/b,),),
                           );

RESU31=MECA_STATIQUE(MODELE=MODMEC31,
                    CHAM_MATER=CHMAT31,
                    EXCIT=_F(CHARGE=CHARG31,),
                    );

RESU31=CALC_CHAMP(reuse=RESU31,
                  RESULTAT=RESU31,
                  CONTRAINTE=('SIEF_ELNO','SIGM_ELNO'),);

RESU31=CALC_CHAMP(reuse=RESU31,
                  RESULTAT=RESU31,
                  CRITERES=('SIEQ_ELGA',),);

RESU31=CALC_CHAMP(reuse=RESU31,
                  RESULTAT=RESU31,
                  CRITERES=('SIEQ_ELNO'),);

ENGENDRE_TEST(CO=RESU31,TYPE_TEST='SOMM_ABS')

TEST_RESU(RESU=(_F(NUME_ORDRE=1,
                   TYPE_TEST='SOMM_ABS',
                   RESULTAT=RESU31,
                   NOM_CHAM='DEPL',
                   VALE_CALC=23.276615598446,
                   ),
                _F(NUME_ORDRE=1,
                   TYPE_TEST='SOMM_ABS',
                   RESULTAT=RESU31,
                   NOM_CHAM='SIEF_ELGA',
                   VALE_CALC=79.482588908550994,
                   ),
                _F(NUME_ORDRE=1,
                   TYPE_TEST='SOMM_ABS',
                   RESULTAT=RESU31,
                   NOM_CHAM='SIEF_ELNO',
                   VALE_CALC=108.82603760592001,
                   ),
                _F(NUME_ORDRE=1,
                   TYPE_TEST='SOMM_ABS',
                   RESULTAT=RESU31,
                   NOM_CHAM='SIGM_ELNO',
                   VALE_CALC=108.82603760592001,
                   ),
                _F(NUME_ORDRE=1,
                   TYPE_TEST='SOMM_ABS',
                   RESULTAT=RESU31,
                   NOM_CHAM='SIEQ_ELGA',
                   VALE_CALC=1749.2426377035999,
                   ),
                _F(NUME_ORDRE=1,
                   TYPE_TEST='SOMM_ABS',
                   RESULTAT=RESU31,
                   NOM_CHAM='SIEQ_ELNO',
                   VALE_CALC=1.8401181654357E+03,
                   ),
                ),
          )

Iy=b*h*h*h/12.
Uz=F*L*L*L/3./YG/Iy
# point de gauss maille m1 situe a x=5
moment1=(L-5.)*F
# coordonnees des points de Gauss
z1=0.90618/2.*h
z2=0.5385/2.*h
z3=0.
z4=-0.5385/2.*h
z5=-0.90618/2.*h

Sig1=moment1*z1/Iy
Sig2=moment1*z2/Iy
Sig3=moment1*z3/Iy
Sig4=moment1*z4/Iy
Sig5=moment1*z5/Iy


TEST_RESU(RESU=(_F(NUME_ORDRE=1,
                   GROUP_NO='P7',
                   REFERENCE='ANALYTIQUE',
                   RESULTAT=RESU31,
                   NOM_CHAM='DEPL',
                   NOM_CMP='DZ',
                   VALE_CALC= 2.00778652E-09,
                   VALE_REFE=Uz,
                   PRECISION=1.E-2,),
                _F(NUME_ORDRE=1,
                   GROUP_NO='P8',
                   REFERENCE='ANALYTIQUE',
                   RESULTAT=RESU31,
                   NOM_CHAM='DEPL',
                   NOM_CMP='DZ',
                   VALE_CALC= 2.01304747E-09,
                   VALE_REFE=Uz,
                   PRECISION=1.E-2,),
                ),
          )

# ===========================================================================================
# CAS 2 :

h=1.0

MAIL32=LIRE_MAILLAGE(FORMAT='MED',UNITE=22);

MAIL32=MODI_MAILLAGE(reuse=MAIL32,MAILLAGE=MAIL32,
                     ORIE_SHB=_F(GROUP_MA='GEOTOT'),)

MAIL32=DEFI_GROUP(reuse =MAIL32, MAILLAGE=MAIL32,
                CREA_GROUP_NO=(_F(GROUP_MA='SUENCAS',),
                               _F(GROUP_MA='SUDEPIM',),
                               _F(GROUP_MA='LI15',),
                               _F(GROUP_MA='LI21',),
                               _F(GROUP_MA='LI87',),),);

CHMAT32=AFFE_MATERIAU(MAILLAGE=MAIL32,
                  AFFE=_F(TOUT='OUI',MATER=MAT,),);

MODMEC32=AFFE_MODELE(MAILLAGE=MAIL32,
                    AFFE=_F(TOUT='OUI',
                            PHENOMENE='MECANIQUE',
                            MODELISATION='SHB',),);


CHARG32=AFFE_CHAR_MECA(MODELE=MODMEC32,
                      DDL_IMPO=(_F(GROUP_MA=('SUENCAS'),
                                   DX=0.0,),
                                _F(GROUP_MA='LI15',
                                   DY=0.0,),
                                _F(GROUP_MA='LI21',
                                   DZ=0.0,),),
                      FORCE_ARETE=(_F(GROUP_MA='LI87',
                                      FZ=F/b,),),
                           );

RESU32=MECA_STATIQUE(MODELE=MODMEC32,
                    CHAM_MATER=CHMAT32,
                    EXCIT=_F(CHARGE=CHARG32,),
                    );

Iy=b*h*h*h/12.
Uz=F*L*L*L/3./YG/Iy


TEST_RESU(RESU=(_F(NUME_ORDRE=1,
                   GROUP_NO='P7',
                   REFERENCE='ANALYTIQUE',
                   RESULTAT=RESU32,
                   NOM_CHAM='DEPL',
                   NOM_CMP='DZ',
                   VALE_CALC= 1.97075652E-06,
                   VALE_REFE=Uz,
                   PRECISION=0.014999999999999999,),
                _F(NUME_ORDRE=1,
                   GROUP_NO='P8',
                   REFERENCE='ANALYTIQUE',
                   RESULTAT=RESU32,
                   NOM_CHAM='DEPL',
                   NOM_CMP='DZ',
                   VALE_CALC= 1.97114964E-06,
                   VALE_REFE=Uz,
                   PRECISION=0.014999999999999999,),
                ),
          )

# ===========================================================================================
# CAS 3 :

h=0.1

MAIL33=LIRE_MAILLAGE(FORMAT='MED',UNITE=23);

MAIL33=MODI_MAILLAGE(reuse=MAIL33,MAILLAGE=MAIL33,
                     ORIE_SHB=_F(GROUP_MA='GEOTOT'),)

MAIL33=DEFI_GROUP(reuse =MAIL33, MAILLAGE=MAIL33,
                CREA_GROUP_NO=(_F(GROUP_MA='SUENCAS',),
                               _F(GROUP_MA='SUDEPIM',),
                               _F(GROUP_MA='LI15',),
                               _F(GROUP_MA='LI21',),
                               _F(GROUP_MA='LI87',),),)

CHMAT33=AFFE_MATERIAU(MAILLAGE=MAIL33,
                  AFFE=_F(TOUT='OUI',MATER=MAT,),);

MODMEC33=AFFE_MODELE(MAILLAGE=MAIL33,
                    AFFE=_F(TOUT='OUI',
                            PHENOMENE='MECANIQUE',
                            MODELISATION='SHB',),);


CHARG33=AFFE_CHAR_MECA(MODELE=MODMEC33,
                      DDL_IMPO=(_F(GROUP_MA=('SUENCAS'),
                                   DX=0.0,),
                                _F(GROUP_MA='LI15',
                                   DY=0.0,),
                                _F(GROUP_MA='LI21',
                                   DZ=0.0,),),
                      FORCE_ARETE=(_F(GROUP_MA='LI87',
                                      FZ=F/b,),),
                           );

RESU33=MECA_STATIQUE(MODELE=MODMEC33,
                    CHAM_MATER=CHMAT33,
                    EXCIT=_F(CHARGE=CHARG33,),
                    SOLVEUR=_F(METHODE ='MULT_FRONT',NPREC=11 ),
                    );

Iy=b*h*h*h/12.
Uz=F*L*L*L/3./YG/Iy


TEST_RESU(RESU=(_F(NUME_ORDRE=1,
                   GROUP_NO='P7',
                   REFERENCE='ANALYTIQUE',
                   RESULTAT=RESU33,
                   NOM_CHAM='DEPL',
                   NOM_CMP='DZ',
                   VALE_CALC= 1.96679298E-03,
                   VALE_REFE=Uz,
                   TOLE_MACHINE=1.e-4,
                   PRECISION=0.017000000000000001,),
                _F(NUME_ORDRE=1,
                   GROUP_NO='P8',
                   REFERENCE='ANALYTIQUE',
                   RESULTAT=RESU33,
                   NOM_CHAM='DEPL',
                   NOM_CMP='DZ',
                   VALE_CALC= 1.96693395E-03,
                   VALE_REFE=Uz,
                   TOLE_MACHINE=1.e-4,
                   PRECISION=0.017000000000000001,),
                ),
          )

# ===========================================================================================
# CAS 4 :

h=0.05

MAIL34=LIRE_MAILLAGE(FORMAT='MED',UNITE=24);

MAIL34=MODI_MAILLAGE(reuse=MAIL34,MAILLAGE=MAIL34,
                     ORIE_SHB=_F(GROUP_MA='GEOTOT'),)

MAIL34=DEFI_GROUP(reuse =MAIL34, MAILLAGE=MAIL34,
                CREA_GROUP_NO=(_F(GROUP_MA='SUENCAS',),
                               _F(GROUP_MA='SUDEPIM',),
                               _F(GROUP_MA='LI15',),
                               _F(GROUP_MA='LI21',),
                               _F(GROUP_MA='LI87',),),)

CHMAT34=AFFE_MATERIAU(MAILLAGE=MAIL34,
                  AFFE=_F(TOUT='OUI',MATER=MAT,),);

MODMEC34=AFFE_MODELE(MAILLAGE=MAIL34,
                    AFFE=_F(TOUT='OUI',
                            PHENOMENE='MECANIQUE',
                            MODELISATION='SHB',),);


CHARG34=AFFE_CHAR_MECA(MODELE=MODMEC34,
                      DDL_IMPO=(_F(GROUP_MA=('SUENCAS'),
                                   DX=0.0,),
                                _F(GROUP_MA='LI15',
                                   DY=0.0,),
                                _F(GROUP_MA='LI21',
                                   DZ=0.0,),),
                      FORCE_ARETE=(_F(GROUP_MA='LI87',
                                      FZ=F/b,),),
                           );

RESU34=MECA_STATIQUE(MODELE=MODMEC34,
                    CHAM_MATER=CHMAT34,
                    EXCIT=_F(CHARGE=CHARG34,),
                    SOLVEUR=_F(METHODE ='MULT_FRONT',NPREC=18 ),
                    );

Iy=b*h*h*h/12.
Uz=F*L*L*L/3./YG/Iy


TEST_RESU(RESU=(_F(NUME_ORDRE=1,
                   GROUP_NO='P7',
                   REFERENCE='ANALYTIQUE',
                   RESULTAT=RESU34,
                   NOM_CHAM='DEPL',
                   NOM_CMP='DZ',
                   VALE_CALC=0.015750871364735,
                   VALE_REFE=Uz,
                   TOLE_MACHINE=5.e-3,      #TODO variabilite
                   PRECISION=0.02,),
                _F(NUME_ORDRE=1,
                   GROUP_NO='P8',
                   REFERENCE='ANALYTIQUE',
                   RESULTAT=RESU34,
                   NOM_CHAM='DEPL',
                   NOM_CMP='DZ',
                   VALE_CALC=0.015751906894420,
                   VALE_REFE=Uz,
                   TOLE_MACHINE=5.e-3,      #TODO variabilite
                   PRECISION=0.02,),
                ),
          )

FIN()
