# person_in_charge: xavier.desroches at edf.fr
# TITRE PLAQUE STRATIFIEE EN FLEXION - DSQ - B/A = 1
# ======================================================================
# COPYRIGHT (C) 1991 - 2012  EDF R&D                  WWW.CODE-ASTER.ORG
# THIS PROGRAM IS FREE SOFTWARE; YOU CAN REDISTRIBUTE IT AND/OR MODIFY
# IT UNDER THE TERMS OF THE GNU GENERAL PUBLIC LICENSE AS PUBLISHED BY
# THE FREE SOFTWARE FOUNDATION; EITHER VERSION 2 OF THE LICENSE, OR
# (AT YOUR OPTION) ANY LATER VERSION.
#
# THIS PROGRAM IS DISTRIBUTED IN THE HOPE THAT IT WILL BE USEFUL, BUT
# WITHOUT ANY WARRANTY; WITHOUT EVEN THE IMPLIED WARRANTY OF
# MERCHANTABILITY OR FITNESS FOR A PARTICULAR PURPOSE. SEE THE GNU
# GENERAL PUBLIC LICENSE FOR MORE DETAILS.
#
# YOU SHOULD HAVE RECEIVED A COPY OF THE GNU GENERAL PUBLIC LICENSE
# ALONG WITH THIS PROGRAM; IF NOT, WRITE TO EDF R&D CODE_ASTER,
#    1 AVENUE DU GENERAL DE GAULLE, 92141 CLAMART CEDEX, FRANCE.
# ======================================================================
# SSLS111B
# PLAQUE DE STRATIFIE RECTANGULAIRE EXCENTREE
# CALCUL 1 : 1 BICOUCHE , CE CALCUL SERT DE REFERENCE
# CALCUL 2 : 2 MONOCOUCHES EXCENTRES
# LE BICOUCHE PRESENTE UNE SYMETRIE MATERIELLE PAR RAPPORT AU
# PLAN MOYEN
# MODELISATION DST
#             66 NOEUDS  100 MAILLES TRI3
#----------------------------------------------------------------------
#POINTS:  A4                          A3
#           -------------------------
#           -                       -
#           -                       -
#           -                       -
#           -                       -
#           -------------------------
#         A1                          A2
#
# ______________________________________________________________________
#
#
#


DEBUT(CODE=_F(NIV_PUB_WEB='INTERNET'),DEBUG=_F(SDVERI='OUI'))
#
#
#

MA1=LIRE_MAILLAGE(FORMAT='MED',);

DEFI_GROUP(reuse =MA1,
               MAILLAGE=MA1,
               CREA_GROUP_MA=_F(NOM='TOUT',
                                TOUT='OUI',),);

MA=CREA_MAILLAGE(MAILLAGE=MA1,
                 CREA_MAILLE=_F(NOM='PLAQ2',
                                  GROUP_MA='PLAQ1',
                                  PREF_MAILLE='MAIL',),);

DEFI_GROUP(reuse =MA,
              MAILLAGE=MA,
              CREA_GROUP_NO=(_F(GROUP_MA='PLAQ1',
                                NOM='PLAQ1',),
                             _F(GROUP_MA='PLAQ2',
                                NOM='PLAQ2',),),);

MA=MODI_MAILLAGE(reuse=MA,
                 MAILLAGE=MA,
                 ORIE_NORM_COQUE=_F(GROUP_MA=('PLAQ1','PLAQ2',),
                                    GROUP_NO='A1',
                                    VECT_NORM=(0,0,+1),),);

# 2 PLAQUES EXCENTREES
#
#
#
#
#


MO=AFFE_MODELE(MAILLAGE=MA,
               AFFE=_F(TOUT='OUI',
                       PHENOMENE='MECANIQUE',
                       MODELISATION='DST',),);
# UNE PLAQUE BICOUCHE
#
#
#
#
#


MO1=AFFE_MODELE(MAILLAGE=MA,
                AFFE=_F(GROUP_MA='PLAQ1',
                        PHENOMENE='MECANIQUE',
                        MODELISATION='DST',),);

EP=AFFE_CARA_ELEM(MODELE=MO,
                  COQUE=(_F(GROUP_MA='TOUT',
                            EPAIS=0.20000000000000001,
                            INER_ROTA='OUI',),
                         _F(GROUP_MA='PLAQ1',
                            EPAIS=0.20000000000000001,
                            ANGL_REP=(0.0,0.0),
                            EXCENTREMENT=0.10000000000000001,
                            INER_ROTA='OUI',),
                         _F(GROUP_MA='PLAQ2',
                            EPAIS=0.20000000000000001,
                            ANGL_REP=(0.0,0.0),
                            EXCENTREMENT=-0.10000000000000001,
                            INER_ROTA='OUI',),),);

EP1=AFFE_CARA_ELEM(MODELE=MO1,
                   COQUE=_F(GROUP_MA='TOUT',
                            EPAIS=0.40000000000000002,
                            COQUE_NCOU=2,
                            ANGL_REP=(0.0,0.0),
                            INER_ROTA='OUI',),);

MATA=DEFI_MATERIAU(ELAS_ORTH=_F(E_L=2.E10,
                                E_T=2.E10,
                                NU_LT=0.29999999999999999,
                                G_LT=2.E9,
                                RHO=1000.0,),);

MATB=DEFI_MATERIAU(ELAS_ORTH=_F(E_L=1.5000000000E10,
                                E_T=1.5000000000E10,
                                NU_LT=0.29999999999999999,
                                G_LT=1.500000000E9,
                                RHO=1000.0,),);

MU1=DEFI_COMPOSITE(COUCHE=(_F(EPAIS=0.20000000000000001,
                              MATER=MATB,
                              ORIENTATION=0.0,),
                           _F(EPAIS=0.20000000000000001,
                              MATER=MATA,
                              ORIENTATION=0.0,),),);

MUA=DEFI_COMPOSITE(COUCHE=_F(EPAIS=0.20000000000000001,
                             MATER=MATA,
                             ORIENTATION=0.0,),);

MUB=DEFI_COMPOSITE(COUCHE=_F(EPAIS=0.20000000000000001,
                             MATER=MATB,
                             ORIENTATION=0.0,),);

CHMAT=AFFE_MATERIAU(MAILLAGE=MA,
                    AFFE=(_F(GROUP_MA='PLAQ1',
                             MATER=MUA,),
                          _F(GROUP_MA='PLAQ2',
                             MATER=MUB,),),);

CHMUL1=AFFE_MATERIAU(MAILLAGE=MA,
                     AFFE=_F(TOUT='OUI',
                             MATER=MU1,),);

CHME=AFFE_CHAR_MECA(MODELE=MO,
                    DDL_IMPO=(_F(GROUP_NO='A1',
                                 DX=0.0,
                                 DY=0.0,
                                 DZ=0.0,
                                 DRX=0.0,
                                 DRY=0.0,
                                 DRZ=0.0,),
                              _F(GROUP_NO='A2',
                                 DX=0.0,
                                 DY=0.0,),),
                    FORCE_NODALE=_F(GROUP_NO='A3',
                                    FZ=-1000.0,),
                    FORCE_COQUE=_F(MAILLE=('M1','M2','M3'),
                                   F1=200.0,
                                   F2=-500.0,
                                   F3=-500.0,
                                   PLAN='SUP',),);

CHME1=AFFE_CHAR_MECA(MODELE=MO1,
                     DDL_IMPO=(_F(GROUP_NO='A1',
                                  DX=0.0,
                                  DY=0.0,
                                  DZ=0.0,
                                  DRX=0.0,
                                  DRY=0.0,
                                  DRZ=0.0,),
                               _F(GROUP_NO='A2',
                                  DX=0.0,
                                  DY=0.0,),),
                     FORCE_NODALE=_F(GROUP_NO='A3',
                                     FZ=-1000.0,),
                     FORCE_COQUE=_F(MAILLE=('M1','M2','M3'),
                                    F1=200.0,
                                    F2=-500.0,
                                    F3=-500.0,
                                    MF1=100.0,
                                    MF2=40.0,
                                    PLAN='MAIL',),);
# ______________________________________________________________________
#
#                         2 PLAQUES EXCENTREES
# ______________________________________________________________________
#
#


MEL=CALC_MATR_ELEM(OPTION='RIGI_MECA',
                   MODELE=MO,
                   CHAM_MATER=CHMAT,
                   CARA_ELEM=EP,
                   CHARGE=CHME,);

MASEL=CALC_MATR_ELEM(OPTION='MASS_MECA',
                     MODELE=MO,
                     CHAM_MATER=CHMAT,
                     CARA_ELEM=EP,
                     CHARGE=CHME,);

VEL=CALC_VECT_ELEM(OPTION='CHAR_MECA',
                   CHARGE=CHME,
                   CHAM_MATER=CHMAT,
                   CARA_ELEM=EP,);

NU=NUME_DDL(MATR_RIGI=MEL,);

MATASS=ASSE_MATRICE(MATR_ELEM=MEL,
                    NUME_DDL=NU,);

MATASM=ASSE_MATRICE(MATR_ELEM=MASEL,
                    NUME_DDL=NU,);

VECASS=ASSE_VECTEUR(VECT_ELEM=VEL,
                    NUME_DDL=NU,);

MODES=CALC_MODES(MATR_RIGI=MATASS,
                 OPTION='PLUS_PETITE',
                 CALC_FREQ=_F(NMAX_FREQ=4,
                              ),
                 MATR_MASS=MATASM,
                 )


MESTAT=MECA_STATIQUE(MODELE=MO,
                     CHAM_MATER=CHMAT,
                     CARA_ELEM=EP,
                     EXCIT=_F(CHARGE=CHME,),);

EFSUP=CALC_CHAMP(GROUP_MA='PLAQ1',CONTRAINTE=('EFGE_ELNO'),RESULTAT=MESTAT)


EFINF=CALC_CHAMP(GROUP_MA='PLAQ2',CONTRAINTE=('EFGE_ELNO'),RESULTAT=MESTAT)


CALC_CHAMP(reuse =EFSUP,
              RESULTAT=EFSUP,
              CONTRAINTE='EFGE_NOEU',


              GROUP_MA='PLAQ1',);

CALC_CHAMP(reuse =EFINF,
              RESULTAT=EFINF,
              CONTRAINTE='EFGE_NOEU',


              GROUP_MA='PLAQ2',);

DEP=CREA_CHAMP(TYPE_CHAM='NOEU_DEPL_R',
               OPERATION='EXTR',
               RESULTAT=MESTAT,
               NOM_CHAM='DEPL',);

EFNSUP=CREA_CHAMP(TYPE_CHAM='NOEU_SIEF_R',
                  OPERATION='EXTR',
                  RESULTAT=EFSUP,
                  NOM_CHAM='EFGE_NOEU',);

EFNINF=CREA_CHAMP(TYPE_CHAM='NOEU_SIEF_R',
                  OPERATION='EXTR',
                  RESULTAT=EFINF,
                  NOM_CHAM='EFGE_NOEU',);

EFF=CREA_CHAMP(TYPE_CHAM='NOEU_SIEF_R',
               OPERATION='ASSE',
               MAILLAGE=MA,
               ASSE=(_F(TOUT='OUI',
                        CHAM_GD=EFNINF,
                        CUMUL='OUI',
                        COEF_R=1.0,),
                     _F(TOUT='OUI',
                        CHAM_GD=EFNSUP,
                        CUMUL='OUI',
                        COEF_R=1.0,),),);
#  PLAQUE BICOUCHE
#
#
#
#
#


MEL1=CALC_MATR_ELEM(OPTION='RIGI_MECA',
                    MODELE=MO1,
                    CHAM_MATER=CHMUL1,
                    CARA_ELEM=EP1,
                    CHARGE=CHME1,);

MASEL1=CALC_MATR_ELEM(OPTION='MASS_MECA',
                      MODELE=MO1,
                      CHAM_MATER=CHMUL1,
                      CARA_ELEM=EP1,
                      CHARGE=CHME1,);

VEL1=CALC_VECT_ELEM(OPTION='CHAR_MECA',
                    CHARGE=CHME1,
                    CHAM_MATER=CHMUL1,
                    CARA_ELEM=EP1,);

NU1=NUME_DDL(MATR_RIGI=MEL1,);

MATASS1=ASSE_MATRICE(MATR_ELEM=MEL1,
                     NUME_DDL=NU1,);

MATASM1=ASSE_MATRICE(MATR_ELEM=MASEL1,
                     NUME_DDL=NU1,);

VECASS1=ASSE_VECTEUR(VECT_ELEM=VEL1,
                     NUME_DDL=NU1,);

MODE1=CALC_MODES(MATR_RIGI=MATASS1,
                 OPTION='PLUS_PETITE',
                 CALC_FREQ=_F(NMAX_FREQ=4,
                              ),
                 MATR_MASS=MATASM1,
                 )



MESTAT1=MECA_STATIQUE(MODELE=MO1,
                       CHAM_MATER=CHMUL1,
                       CARA_ELEM=EP1,
                       EXCIT=_F(CHARGE=CHME1,),
                       );

CALC_CHAMP(reuse=MESTAT1,RESULTAT=MESTAT1,CONTRAINTE=('EFGE_ELNO'))


CALC_CHAMP(reuse =MESTAT1,
                RESULTAT=MESTAT1,
                CONTRAINTE='EFGE_NOEU',
                );

DEP1=CREA_CHAMP(TYPE_CHAM='NOEU_DEPL_R',
                OPERATION='EXTR',
                RESULTAT=MESTAT1,
                NOM_CHAM='DEPL',);

EFF1=CREA_CHAMP(TYPE_CHAM='NOEU_SIEF_R',
                OPERATION='EXTR',
                RESULTAT=MESTAT1,
                NOM_CHAM='EFGE_NOEU',);

#  PLAQUE BICOUCHE SERT DE REFERENCE
#
TEST_RESU(
          CHAM_NO=(_F(
                      REFERENCE='NON_DEFINI',
                      NOM_CMP='DX',
                      GROUP_NO='A3',
                      PRECISION=1.5E-3,
                      CHAM_GD=DEP1,
                      VALE_CALC=-6.5053933483822E-06,
                      VALE_REFE=-6.4967858152543997E-06,),
                   _F(
                      REFERENCE='NON_DEFINI',
                      NOM_CMP='DY',
                      GROUP_NO='A3',
                      PRECISION=4.0000000000000001E-3,
                      CHAM_GD=DEP1,
                      VALE_CALC=-6.1086979951315E-07,
                      VALE_REFE=-6.0893243064038996E-07,),
                   _F(
                      REFERENCE='NON_DEFINI',
                      NOM_CMP='DZ',
                      GROUP_NO='A3',
                      PRECISION=4.0000000000000001E-3,
                      CHAM_GD=DEP1,
                      VALE_CALC=-5.356325833309E-03,
                      VALE_REFE=-5.3384436672281998E-3,),
                   _F(
                      REFERENCE='NON_DEFINI',
                      NOM_CMP='DRX',
                      GROUP_NO='A3',
                      PRECISION=3.0000000000000001E-3,
                      CHAM_GD=DEP1,
                      VALE_CALC=-4.3034716148844E-04,
                      VALE_REFE=-4.2918239158320001E-4,),
                   _F(
                      REFERENCE='NON_DEFINI',
                      NOM_CMP='DRY',
                      GROUP_NO='A3',
                      PRECISION=3.0000000000000001E-3,
                      CHAM_GD=DEP1,
                      VALE_CALC=4.7693902328079E-04,
                      VALE_REFE=4.7560194094256001E-4,),
                   _F(NOEUD='N53',
                      REFERENCE='NON_DEFINI',
                      NOM_CMP='DX',
                      PRECISION=2.E-3,
                      CHAM_GD=DEP1,
                      VALE_CALC=-3.5878201243694E-06,
                      VALE_REFE=-3.5829337426419E-06,),
                   _F(NOEUD='N53',
                      REFERENCE='NON_DEFINI',
                      NOM_CMP='DY',
                      PRECISION=4.0000000000000001E-3,
                      CHAM_GD=DEP1,
                      VALE_CALC=-1.1916841525835E-06,
                      VALE_REFE=-1.1878834008611001E-06,),
                   _F(NOEUD='N53',
                      REFERENCE='NON_DEFINI',
                      NOM_CMP='DZ',
                      PRECISION=4.0000000000000001E-3,
                      CHAM_GD=DEP1,
                      VALE_CALC=-3.6519090710228E-03,
                      VALE_REFE=-3.6388530257862998E-3,),
                   _F(NOEUD='N53',
                      REFERENCE='NON_DEFINI',
                      NOM_CMP='DRX',
                      PRECISION=3.5000000000000001E-3,
                      CHAM_GD=DEP1,
                      VALE_CALC=-4.0633821841707E-04,
                      VALE_REFE=-4.0517546206615999E-4,),
                   _F(NOEUD='N53',
                      REFERENCE='NON_DEFINI',
                      NOM_CMP='DRY',
                      PRECISION=3.5000000000000001E-3,
                      CHAM_GD=DEP1,
                      VALE_CALC=4.2444796210042E-04,
                      VALE_REFE=4.2311672014173001E-4,),
                   _F(
                      REFERENCE='NON_DEFINI',
                      NOM_CMP='NXX',
                      GROUP_NO='A1',
                      PRECISION=3.5000000000000001E-3,
                      CHAM_GD=EFF1,
                      VALE_CALC=17052.296764355,
                      VALE_REFE=1.7000514418737999E4,),
                   _F(
                      REFERENCE='NON_DEFINI',
                      NOM_CMP='NYY',
                      GROUP_NO='A1',
                      PRECISION=5.0000000000000001E-3,
                      CHAM_GD=EFF1,
                      VALE_CALC=11494.602046185,
                      VALE_REFE=1.1443847736616999E4,),
                   _F(
                      REFERENCE='NON_DEFINI',
                      NOM_CMP='NXY',
                      GROUP_NO='A1',
                      PRECISION=8.9999999999999993E-3,
                      CHAM_GD=EFF1,
                      VALE_CALC=3565.6598684144,
                      VALE_REFE=3535.9843435229,),
                   _F(
                      REFERENCE='NON_DEFINI',
                      NOM_CMP='MXX',
                      GROUP_NO='A1',
                      PRECISION=4.0000000000000001E-3,
                      CHAM_GD=EFF1,
                      VALE_CALC=21531.36487679,
                      VALE_REFE=2.1458517334156E4,),
                   _F(
                      REFERENCE='NON_DEFINI',
                      NOM_CMP='MYY',
                      GROUP_NO='A1',
                      PRECISION=5.0000000000000001E-3,
                      CHAM_GD=EFF1,
                      VALE_CALC=15376.658116222,
                      VALE_REFE=1.5309443848404E4,),
                   _F(
                      REFERENCE='NON_DEFINI',
                      NOM_CMP='MXY',
                      GROUP_NO='A1',
                      PRECISION=6.4999999999999997E-3,
                      CHAM_GD=EFF1,
                      VALE_CALC=5746.1888683411,
                      VALE_REFE=5713.3191669495,),
                   _F(
                      REFERENCE='NON_DEFINI',
                      NOM_CMP='QX',
                      GROUP_NO='A1',
                      PRECISION=5.4999999999999997E-3,
                      CHAM_GD=EFF1,
                      VALE_CALC=-3018.5518275996,
                      VALE_REFE=-3033.8093625410002,),
                   _F(
                      REFERENCE='NON_DEFINI',
                      NOM_CMP='QY',
                      GROUP_NO='A1',
                      PRECISION=0.014999999999999999,
                      CHAM_GD=EFF1,
                      VALE_CALC=1781.9334033386,
                      VALE_REFE=1764.3682622700001,),
                   ),)

TEST_RESU(RESU=(_F(NUME_ORDRE=1,
                   PARA='FREQ',
                   RESULTAT=MODE1,
                   VALE_CALC=1.0118185315727,
                   CRITERE='RELATIF',
                   ),
                _F(NUME_ORDRE=2,
                   PARA='FREQ',
                   RESULTAT=MODE1,
                   VALE_CALC=4.270033579415,
                   CRITERE='RELATIF',
                   ),
                _F(NUME_ORDRE=3,
                   PARA='FREQ',
                   RESULTAT=MODE1,
                   VALE_CALC=8.3915135887215,
                   CRITERE='RELATIF',
                   ),
                _F(NUME_ORDRE=4,
                   PARA='FREQ',
                   RESULTAT=MODE1,
                   VALE_CALC=17.230543649185,
                   CRITERE='RELATIF',
                   ),
                ),
          )

#
#
# ______________________________________________________________________
#
#                         2 PLAQUES EXCENTREES
# ______________________________________________________________________
#
# N53 : POINT DE COORDONNEES (9,2,0)
#


TEST_RESU(
          CHAM_NO=(_F(REFERENCE='AUTRE_ASTER',
                      NOM_CMP='DX',
                      GROUP_NO='A3',
                      PRECISION=1.E-2,
                      CHAM_GD=DEP,
                      VALE_CALC=-6.5106523176162E-06,
                      VALE_REFE=-6.4967858152543997E-06,),
                   _F(REFERENCE='AUTRE_ASTER',
                      NOM_CMP='DY',
                      GROUP_NO='A3',
                      PRECISION=1.E-2,
                      CHAM_GD=DEP,
                      VALE_CALC=-6.1225838443955E-07,
                      VALE_REFE=-6.0893243064038996E-07,),
                   _F(REFERENCE='AUTRE_ASTER',
                      NOM_CMP='DZ',
                      GROUP_NO='A3',
                      PRECISION=1.E-2,
                      CHAM_GD=DEP,
                      VALE_CALC=-5.3785048682327E-03,
                      VALE_REFE=-5.3384436672281998E-3,),
                   _F(REFERENCE='AUTRE_ASTER',
                      NOM_CMP='DRX',
                      GROUP_NO='A3',
                      PRECISION=1.E-2,
                      CHAM_GD=DEP,
                      VALE_CALC=-4.3074975619646E-04,
                      VALE_REFE=-4.2918239158320001E-4,),
                   _F(REFERENCE='AUTRE_ASTER',
                      NOM_CMP='DRY',
                      GROUP_NO='A3',
                      PRECISION=1.E-2,
                      CHAM_GD=DEP,
                      VALE_CALC=4.7883979325325E-04,
                      VALE_REFE=4.7560194094256001E-4,),
                   _F(NOEUD='N53',
                      REFERENCE='AUTRE_ASTER',
                      NOM_CMP='DX',
                      PRECISION=1.E-2,
                      CHAM_GD=DEP,
                      VALE_CALC=-3.5919442677225E-06,
                      VALE_REFE=-3.5829337426419E-06,),
                   _F(NOEUD='N53',
                      REFERENCE='AUTRE_ASTER',
                      NOM_CMP='DY',
                      PRECISION=1.E-2,
                      CHAM_GD=DEP,
                      VALE_CALC=-1.1939350278164E-06,
                      VALE_REFE=-1.1878834008611001E-06,),
                   _F(NOEUD='N53',
                      REFERENCE='AUTRE_ASTER',
                      NOM_CMP='DZ',
                      PRECISION=1.E-2,
                      CHAM_GD=DEP,
                      VALE_CALC=-3.6711653584526E-03,
                      VALE_REFE=-3.6388530257862998E-3,),
                   _F(NOEUD='N53',
                      REFERENCE='AUTRE_ASTER',
                      NOM_CMP='DRX',
                      PRECISION=1.E-2,
                      CHAM_GD=DEP,
                      VALE_CALC=-4.0648390492839E-04,
                      VALE_REFE=-4.0517546206615999E-4,),
                   _F(NOEUD='N53',
                      REFERENCE='AUTRE_ASTER',
                      NOM_CMP='DRY',
                      PRECISION=1.E-2,
                      CHAM_GD=DEP,
                      VALE_CALC=4.2666338361753E-04,
                      VALE_REFE=4.2311672014173001E-4,),
                   _F(REFERENCE='AUTRE_ASTER',
                      NOM_CMP='NXX',
                      GROUP_NO='A1',
                      PRECISION=1.E-2,
                      CHAM_GD=EFF,
                      VALE_CALC=16895.839741636,
                      VALE_REFE=1.7000514418737999E4,),
                   _F(REFERENCE='AUTRE_ASTER',
                      NOM_CMP='NYY',
                      GROUP_NO='A1',
                      PRECISION=0.016,
                      CHAM_GD=EFF,
                      VALE_CALC=11316.848464325,
                      VALE_REFE=1.1443847736616999E4,),
                   _F(REFERENCE='AUTRE_ASTER',
                      NOM_CMP='NXY',
                      GROUP_NO='A1',
                      PRECISION=0.021999999999999999,
                      CHAM_GD=EFF,
                      VALE_CALC=3600.9537280621,
                      VALE_REFE=3535.9843435229,),
                   _F(REFERENCE='AUTRE_ASTER',
                      NOM_CMP='MXX',
                      GROUP_NO='A1',
                      PRECISION=1.E-2,
                      CHAM_GD=EFF,
                      VALE_CALC=21379.523117238,
                      VALE_REFE=2.1458517334156E4,),
                   _F(REFERENCE='AUTRE_ASTER',
                      NOM_CMP='MYY',
                      GROUP_NO='A1',
                      PRECISION=0.012,
                      CHAM_GD=EFF,
                      VALE_CALC=15205.08239171,
                      VALE_REFE=1.5309443848404E4,),
                   _F(REFERENCE='AUTRE_ASTER',
                      NOM_CMP='MXY',
                      GROUP_NO='A1',
                      PRECISION=0.02,
                      CHAM_GD=EFF,
                      VALE_CALC=5795.8049350983,
                      VALE_REFE=5713.3191669495,),
                   _F(REFERENCE='AUTRE_ASTER',
                      NOM_CMP='QX',
                      GROUP_NO='A1',
                      PRECISION=0.080000000000000002,
                      CHAM_GD=EFF,
                      VALE_CALC=-2801.2260027375,
                      VALE_REFE=-3033.8093625410002,),
                   _F(REFERENCE='AUTRE_ASTER',
                      NOM_CMP='QY',
                      GROUP_NO='A1',
                      PRECISION=0.025000000000000001,
                      CHAM_GD=EFF,
                      VALE_CALC=1805.5035588448,
                      VALE_REFE=1764.3682622700001,),
                   ),)

TEST_RESU(RESU=(_F(NUME_ORDRE=1,
                   PARA='FREQ',
                   REFERENCE='AUTRE_ASTER',
                   RESULTAT=MODES,
                   VALE_CALC=1.0091033555999,
                   VALE_REFE=1.0118185315754999,
                   CRITERE='RELATIF',
                   PRECISION=3.0000000000000001E-3,),
                _F(NUME_ORDRE=2,
                   PARA='FREQ',
                   REFERENCE='AUTRE_ASTER',
                   RESULTAT=MODES,
                   VALE_CALC=4.2607048515972,
                   VALE_REFE=4.2700335794153004,
                   CRITERE='RELATIF',
                   PRECISION=3.0000000000000001E-3,),
                _F(NUME_ORDRE=3,
                   PARA='FREQ',
                   REFERENCE='AUTRE_ASTER',
                   RESULTAT=MODES,
                   VALE_CALC=8.3651725266834,
                   VALE_REFE=8.3915135887214998,
                   CRITERE='RELATIF',
                   PRECISION=4.0000000000000001E-3,),
                _F(NUME_ORDRE=4,
                   PARA='FREQ',
                   REFERENCE='AUTRE_ASTER',
                   RESULTAT=MODES,
                   VALE_CALC=17.135868517272,
                   VALE_REFE=17.230543649185002,
                   CRITERE='RELATIF',
                   PRECISION=6.0000000000000001E-3,),
                ),
          )


FIN();
