# TITRE PLAQUE CIRCULAIRE POSEE     SOUS PRESSION DKQ  169 N - 147 QUAD4
# ======================================================================
# COPYRIGHT (C) 1991 - 2013  EDF R&D                  WWW.CODE-ASTER.ORG
# THIS PROGRAM IS FREE SOFTWARE; YOU CAN REDISTRIBUTE IT AND/OR MODIFY
# IT UNDER THE TERMS OF THE GNU GENERAL PUBLIC LICENSE AS PUBLISHED BY
# THE FREE SOFTWARE FOUNDATION; EITHER VERSION 2 OF THE LICENSE, OR
# (AT YOUR OPTION) ANY LATER VERSION.
#
# THIS PROGRAM IS DISTRIBUTED IN THE HOPE THAT IT WILL BE USEFUL, BUT
# WITHOUT ANY WARRANTY; WITHOUT EVEN THE IMPLIED WARRANTY OF
# MERCHANTABILITY OR FITNESS FOR A PARTICULAR PURPOSE. SEE THE GNU
# GENERAL PUBLIC LICENSE FOR MORE DETAILS.
#
# YOU SHOULD HAVE RECEIVED A COPY OF THE GNU GENERAL PUBLIC LICENSE
# ALONG WITH THIS PROGRAM; IF NOT, WRITE TO EDF R&D CODE_ASTER,
#    1 AVENUE DU GENERAL DE GAULLE, 92141 CLAMART CEDEX, FRANCE.
# ======================================================================

DEBUT(CODE=_F(NIV_PUB_WEB='INTERNET'),DEBUG=_F(SDVERI='OUI'))

#----------------------------------------------------------------------
# POINTS: O      MAILLES  M1
#         A               M147
#         B               M98   M111
#         C               M14
#         D               M85   M99
#         E               M7    M8
#         F               M91   M92    M105
#----------------------------------------------------------------------


T=0.1

R=1.

P=1.

MATER=DEFI_MATERIAU( ELAS=_F(  E = 1., NU = 0.3,  RHO = 1.) )

MAILL=LIRE_MAILLAGE(FORMAT='MED',)

MAILL=DEFI_GROUP( reuse=MAILL,   MAILLAGE=MAILL,
                  CREA_GROUP_MA=_F(  NOM = 'TOUT', TOUT = 'OUI'))

CHMAT=AFFE_MATERIAU(  MAILLAGE=MAILL,
                      AFFE=_F(  TOUT = 'OUI',   MATER = MATER) )

MODEL=AFFE_MODELE(  MAILLAGE=MAILL,    
                    AFFE=_F( TOUT = 'OUI',   MODELISATION = 'DKT',
                             PHENOMENE = 'MECANIQUE') )

CINE=AFFE_CHAR_MECA(   MODELE=MODEL,
             DDL_IMPO=(_F( GROUP_NO = 'GRNO_ABC', DX = 0.,  DY = 0.,  DZ = 0.),
                       _F( GROUP_NO = 'GRNO_OA',  DY = 0.,  DRX = 0.,  DRZ = 0.),
                       _F( NOEUD = 'A',                 DRX = 0.,  DRZ = 0.),
                       _F( GROUP_NO = 'GRNO_OC',  DX = 0.,  DRY = 0.,  DRZ = 0.),
                       _F( NOEUD = 'C',                 DRY = 0.,  DRZ = 0.),
                       _F( NOEUD = 'O',        DX = 0.,  DY = 0.,
                                          DRX = 0.,  DRY = 0.,  DRZ = 0.))
                           )

PRES=AFFE_CHAR_MECA(   MODELE=MODEL,
                    FORCE_COQUE=_F(  TOUT = 'OUI', PRES = P)   )

CHF3=AFFE_CHAR_MECA(   MODELE=MODEL,
                    FORCE_COQUE=_F(  TOUT = 'OUI',  F3 = -1.)   )

CHPE=AFFE_CHAR_MECA(   MODELE=MODEL,
                      PESANTEUR=_F(GRAVITE= 10.,
                                   DIRECTION=(0., 0., -1., ), ),)

CARELEM=AFFE_CARA_ELEM(  MODELE=MODEL,
                         COQUE=_F( GROUP_MA = 'TOUT',
                                   EPAIS = T) )

DEPR=MECA_STATIQUE(MODELE=MODEL,
                   CHAM_MATER=CHMAT,
                   CARA_ELEM=CARELEM,
                   EXCIT=(_F(CHARGE=CINE,),
                          _F(CHARGE=PRES,),),);

DEF3=MECA_STATIQUE(MODELE=MODEL,
                   CHAM_MATER=CHMAT,
                   CARA_ELEM=CARELEM,
                   EXCIT=(_F(CHARGE=CINE,),
                          _F(CHARGE=CHF3,),),);

DEPE=MECA_STATIQUE(MODELE=MODEL,
                   CHAM_MATER=CHMAT,
                   CARA_ELEM=CARELEM,
                   EXCIT=(_F(CHARGE=CINE,),
                          _F(CHARGE=CHPE,),),);


#--------------------------------------------------------------------

TEST_RESU(RESU=(_F(NUME_ORDRE=1,
                   REFERENCE='ANALYTIQUE',
                   RESULTAT=DEPR,
                   NOM_CHAM='DEPL',
                   NOEUD='O',
                   NOM_CMP='DZ',
                   VALE_CALC=-695.009162511,
                   VALE_REFE=-695.62559999999996,
                   CRITERE='RELATIF',
                   PRECISION=1.E-3,),
                _F(NUME_ORDRE=1,
                   REFERENCE='ANALYTIQUE',
                   RESULTAT=DEPR,
                   NOM_CHAM='DEPL',
                   NOEUD='A',
                   NOM_CMP='DZ',
                   VALE_CALC= 4.8225312632E-16,
                   VALE_REFE=0.0,
                   CRITERE='ABSOLU',
                   PRECISION=1.E-10,),
                _F(NUME_ORDRE=1,
                   REFERENCE='ANALYTIQUE',
                   RESULTAT=DEPR,
                   NOM_CHAM='DEPL',
                   NOEUD='B',
                   NOM_CMP='DZ',
                   VALE_CALC=-1.6583956430E-15,
                   VALE_REFE=0.0,
                   CRITERE='ABSOLU',
                   PRECISION=1.E-10,),
                _F(NUME_ORDRE=1,
                   REFERENCE='ANALYTIQUE',
                   RESULTAT=DEPR,
                   NOM_CHAM='DEPL',
                   NOEUD='C',
                   NOM_CMP='DZ',
                   VALE_CALC= 6.8087896432E-17,
                   VALE_REFE=0.0,
                   CRITERE='ABSOLU',
                   PRECISION=1.E-10,),
                _F(NUME_ORDRE=1,
                   REFERENCE='ANALYTIQUE',
                   RESULTAT=DEPR,
                   NOM_CHAM='DEPL',
                   NOEUD='D',
                   NOM_CMP='DZ',
                   VALE_CALC=-489.197276379,
                   VALE_REFE=-489.72699999999998,
                   CRITERE='RELATIF',
                   PRECISION=1.5E-3,),
                _F(NUME_ORDRE=1,
                   REFERENCE='ANALYTIQUE',
                   RESULTAT=DEPR,
                   NOM_CHAM='DEPL',
                   NOEUD='E',
                   NOM_CMP='DZ',
                   VALE_CALC=-489.196889570,
                   VALE_REFE=-489.72699999999998,
                   CRITERE='RELATIF',
                   PRECISION=1.5E-3,),
                _F(NUME_ORDRE=1,
                   REFERENCE='ANALYTIQUE',
                   RESULTAT=DEPR,
                   NOM_CHAM='DEPL',
                   NOEUD='F',
                   NOM_CMP='DZ',
                   VALE_CALC=-435.377016197,
                   VALE_REFE=-435.8974,
                   CRITERE='RELATIF',
                   PRECISION=1.5E-3,),
                _F(NUME_ORDRE=1,
                   REFERENCE='ANALYTIQUE',
                   RESULTAT=DEF3,
                   NOM_CHAM='DEPL',
                   NOEUD='O',
                   NOM_CMP='DZ',
                   VALE_CALC=-695.009162511,
                   VALE_REFE=-695.62559999999996,
                   CRITERE='RELATIF',
                   PRECISION=1.E-3,),
                _F(NUME_ORDRE=1,
                   REFERENCE='ANALYTIQUE',
                   RESULTAT=DEF3,
                   NOM_CHAM='DEPL',
                   NOEUD='A',
                   NOM_CMP='DZ',
                   VALE_CALC= 4.8225312632E-16,
                   VALE_REFE=0.0,
                   CRITERE='ABSOLU',
                   PRECISION=1.E-10,),
                _F(NUME_ORDRE=1,
                   REFERENCE='ANALYTIQUE',
                   RESULTAT=DEF3,
                   NOM_CHAM='DEPL',
                   NOEUD='B',
                   NOM_CMP='DZ',
                   VALE_CALC=-1.6583956430E-15,
                   VALE_REFE=0.0,
                   CRITERE='ABSOLU',
                   PRECISION=1.E-10,),
                _F(NUME_ORDRE=1,
                   REFERENCE='ANALYTIQUE',
                   RESULTAT=DEF3,
                   NOM_CHAM='DEPL',
                   NOEUD='C',
                   NOM_CMP='DZ',
                   VALE_CALC= 6.8087896432E-17,
                   VALE_REFE=0.0,
                   CRITERE='ABSOLU',
                   PRECISION=1.E-10,),
                _F(NUME_ORDRE=1,
                   REFERENCE='ANALYTIQUE',
                   RESULTAT=DEF3,
                   NOM_CHAM='DEPL',
                   NOEUD='D',
                   NOM_CMP='DZ',
                   VALE_CALC=-489.197276379,
                   VALE_REFE=-489.72699999999998,
                   CRITERE='RELATIF',
                   PRECISION=1.5E-3,),
                _F(NUME_ORDRE=1,
                   REFERENCE='ANALYTIQUE',
                   RESULTAT=DEF3,
                   NOM_CHAM='DEPL',
                   NOEUD='E',
                   NOM_CMP='DZ',
                   VALE_CALC=-489.196889570,
                   VALE_REFE=-489.72699999999998,
                   CRITERE='RELATIF',
                   PRECISION=1.5E-3,),
                _F(NUME_ORDRE=1,
                   REFERENCE='ANALYTIQUE',
                   RESULTAT=DEF3,
                   NOM_CHAM='DEPL',
                   NOEUD='F',
                   NOM_CMP='DZ',
                   VALE_CALC=-435.377016197,
                   VALE_REFE=-435.8974,
                   CRITERE='RELATIF',
                   PRECISION=1.5E-3,),
                _F(NUME_ORDRE=1,
                   REFERENCE='ANALYTIQUE',
                   RESULTAT=DEPE,
                   NOM_CHAM='DEPL',
                   NOEUD='O',
                   NOM_CMP='DZ',
                   VALE_CALC=-695.009162511,
                   VALE_REFE=-695.62559999999996,
                   CRITERE='RELATIF',
                   PRECISION=1.E-3,),
                _F(NUME_ORDRE=1,
                   REFERENCE='ANALYTIQUE',
                   RESULTAT=DEPE,
                   NOM_CHAM='DEPL',
                   NOEUD='A',
                   NOM_CMP='DZ',
                   VALE_CALC= 4.8225312632E-16,
                   VALE_REFE=0.0,
                   CRITERE='ABSOLU',
                   PRECISION=1.E-10,),
                _F(NUME_ORDRE=1,
                   REFERENCE='ANALYTIQUE',
                   RESULTAT=DEPE,
                   NOM_CHAM='DEPL',
                   NOEUD='B',
                   NOM_CMP='DZ',
                   VALE_CALC=-1.6583956430E-15,
                   VALE_REFE=0.0,
                   CRITERE='ABSOLU',
                   PRECISION=1.E-10,),
                _F(NUME_ORDRE=1,
                   REFERENCE='ANALYTIQUE',
                   RESULTAT=DEPE,
                   NOM_CHAM='DEPL',
                   NOEUD='C',
                   NOM_CMP='DZ',
                   VALE_CALC= 6.8087896432E-17,
                   VALE_REFE=0.0,
                   CRITERE='ABSOLU',
                   PRECISION=1.E-10,),
                _F(NUME_ORDRE=1,
                   REFERENCE='ANALYTIQUE',
                   RESULTAT=DEPE,
                   NOM_CHAM='DEPL',
                   NOEUD='D',
                   NOM_CMP='DZ',
                   VALE_CALC=-489.197276379,
                   VALE_REFE=-489.72699999999998,
                   CRITERE='RELATIF',
                   PRECISION=1.5E-3,),
                _F(NUME_ORDRE=1,
                   REFERENCE='ANALYTIQUE',
                   RESULTAT=DEPE,
                   NOM_CHAM='DEPL',
                   NOEUD='E',
                   NOM_CMP='DZ',
                   VALE_CALC=-489.196889570,
                   VALE_REFE=-489.72699999999998,
                   CRITERE='RELATIF',
                   PRECISION=1.5E-3,),
                _F(NUME_ORDRE=1,
                   REFERENCE='ANALYTIQUE',
                   RESULTAT=DEPE,
                   NOM_CHAM='DEPL',
                   NOEUD='F',
                   NOM_CMP='DZ',
                   VALE_CALC=-435.377016197,
                   VALE_REFE=-435.8974,
                   CRITERE='RELATIF',
                   PRECISION=1.5E-3,),
                ),
          )

#--------------------------------------------------------------------

EPOT_PR=POST_ELEM(  RESULTAT=DEPR, NUME_ORDRE=1, MODELE=MODEL,
                        CHAM_MATER=CHMAT,     CARA_ELEM=CARELEM,
                            ENER_POT=_F(  TOUT = 'OUI')     )

EPOT_F3=POST_ELEM(  RESULTAT=DEF3, NUME_ORDRE=1, MODELE=MODEL,
                        CHAM_MATER=CHMAT,     CARA_ELEM=CARELEM,
                            ENER_POT=_F(  TOUT = 'OUI')     )

EPOT_PE=POST_ELEM(  RESULTAT=DEPE, NUME_ORDRE=1, MODELE=MODEL,
                        CHAM_MATER=CHMAT,     CARA_ELEM=CARELEM,
                            ENER_POT=_F(  TOUT = 'OUI')     )

# LES VALEURS DE REFERENCE SONT CELLES D'ASTER VERSION 3.02.21
# DU CAS TEST SSLS101B (MAILLAGE FIN EN DKT).
# DEPLACEMENTS PRESSION

TEST_TABLE(REFERENCE='NON_DEFINI',
           PRECISION=2.E-3,
           VALE_CALC=124.864073256,
           VALE_REFE=124.997,
           NOM_PARA='TOTALE',
           TABLE=EPOT_PR,
           FILTRE=_F(NOM_PARA='LIEU',
                     VALE_K='MAILL',),
           )

# DEPLACEMENTS F3

TEST_TABLE(REFERENCE='NON_DEFINI',
           PRECISION=2.E-3,
           VALE_CALC=124.864073256,
           VALE_REFE=124.997,
           NOM_PARA='TOTALE',
           TABLE=EPOT_F3,
           FILTRE=_F(NOM_PARA='LIEU',
                     VALE_K='MAILL',),
           )

# DEPLACEMENTS PESANTEUR

TEST_TABLE(REFERENCE='NON_DEFINI',
           PRECISION=2.E-3,
           VALE_CALC=124.864073256,
           VALE_REFE=124.997,
           NOM_PARA='TOTALE',
           TABLE=EPOT_PE,
           FILTRE=_F(NOM_PARA='LIEU',
                     VALE_K='MAILL',),
           )

#--------------------------------------------------------------------
DEPR=CALC_CHAMP(reuse=DEPR,RESULTAT=DEPR,CONTRAINTE=('EFGE_ELNO'))

#--------------------------------------------------------------------
RELEVE_1=POST_RELEVE_T(
                   ACTION=_F(  NOEUD = ( 'O',  'A',  'B',  'C',  'D',  'E',  'F', ),
                            INTITULE = 'EFGE',
                            RESULTAT = DEPR,
                            NUME_ORDRE=1,
                            NOM_CHAM='EFGE_ELNO',
                            NOM_CMP = ( 'MXX', 'MYY', ),
                            OPERATION = 'EXTRACTION')
                          )

#

TEST_TABLE(REFERENCE='ANALYTIQUE',
           PRECISION=1.E-3,
           VALE_CALC=-0.206390776,
           VALE_REFE=-0.20624999999999999,
           NOM_PARA='MXX',
           TABLE=RELEVE_1,
           FILTRE=_F(NOM_PARA='NOEUD',
                     VALE_K='O',),
           )

TEST_TABLE(REFERENCE='ANALYTIQUE',
           PRECISION=1.E-3,
           VALE_CALC=-0.206390998,
           VALE_REFE=-0.20624999999999999,
           NOM_PARA='MYY',
           TABLE=RELEVE_1,
           FILTRE=_F(NOM_PARA='NOEUD',
                     VALE_K='O',),
           )

TEST_TABLE(CRITERE='ABSOLU',
           REFERENCE='ANALYTIQUE',
           PRECISION=4.0000000000000002E-4,
           VALE_CALC= 3.60043109E-04,
           VALE_REFE=0.0,
           NOM_PARA='MXX',
           TABLE=RELEVE_1,
           FILTRE=_F(NOM_PARA='NOEUD',
                     VALE_K='A',),
           )

TEST_TABLE(REFERENCE='ANALYTIQUE',
           PRECISION=5.0000000000000001E-3,
           VALE_CALC=-0.087104575,
           VALE_REFE=-0.087499999999999994,
           NOM_PARA='MYY',
           TABLE=RELEVE_1,
           FILTRE=_F(NOM_PARA='NOEUD',
                     VALE_K='A',),
           )

TEST_TABLE(REFERENCE='ANALYTIQUE',
           PRECISION=0.010999999999999999,
           VALE_CALC=-0.043302904,
           VALE_REFE=-0.043749999999999997,
           NOM_PARA='MXX',
           TABLE=RELEVE_1,
           FILTRE=_F(NOM_PARA='NOEUD',
                     VALE_K='B',),
           )

TEST_TABLE(REFERENCE='ANALYTIQUE',
           PRECISION=0.010999999999999999,
           VALE_CALC=-0.043322065,
           VALE_REFE=-0.043749999999999997,
           NOM_PARA='MYY',
           TABLE=RELEVE_1,
           FILTRE=_F(NOM_PARA='NOEUD',
                     VALE_K='B',),
           )

TEST_TABLE(REFERENCE='ANALYTIQUE',
           PRECISION=5.0000000000000001E-3,
           VALE_CALC=-0.087133542,
           VALE_REFE=-0.087499999999999994,
           NOM_PARA='MXX',
           TABLE=RELEVE_1,
           FILTRE=_F(NOM_PARA='NOEUD',
                     VALE_K='C',),
           )

TEST_TABLE(CRITERE='ABSOLU',
           REFERENCE='ANALYTIQUE',
           PRECISION=4.0000000000000002E-4,
           VALE_CALC= 3.44579257E-04,
           VALE_REFE=0.0,
           NOM_PARA='MYY',
           TABLE=RELEVE_1,
           FILTRE=_F(NOM_PARA='NOEUD',
                     VALE_K='C',),
           )

TEST_TABLE(REFERENCE='ANALYTIQUE',
           PRECISION=5.0000000000000001E-3,
           VALE_CALC=-0.155066479,
           VALE_REFE=-0.15468999999999999,
           NOM_PARA='MXX',
           TABLE=RELEVE_1,
           FILTRE=_F(NOM_PARA='NOEUD',
                     VALE_K='D',),
           )

TEST_TABLE(REFERENCE='ANALYTIQUE',
           PRECISION=1.E-2,
           VALE_CALC=-0.177904519,
           VALE_REFE=-0.17655999999999999,
           NOM_PARA='MYY',
           TABLE=RELEVE_1,
           FILTRE=_F(NOM_PARA='NOEUD',
                     VALE_K='D',),
           )

TEST_TABLE(REFERENCE='ANALYTIQUE',
           PRECISION=1.E-2,
           VALE_CALC=-0.177905179,
           VALE_REFE=-0.17655999999999999,
           NOM_PARA='MXX',
           TABLE=RELEVE_1,
           FILTRE=_F(NOM_PARA='NOEUD',
                     VALE_K='E',),
           )

TEST_TABLE(REFERENCE='ANALYTIQUE',
           PRECISION=5.0000000000000001E-3,
           VALE_CALC=-0.155068296,
           VALE_REFE=-0.15468999999999999,
           NOM_PARA='MYY',
           TABLE=RELEVE_1,
           FILTRE=_F(NOM_PARA='NOEUD',
                     VALE_K='E',),
           )

TEST_TABLE(REFERENCE='ANALYTIQUE',
           PRECISION=3.5000000000000001E-3,
           VALE_CALC=-0.153801824,
           VALE_REFE=-0.15425,
           NOM_PARA='MXX',
           TABLE=RELEVE_1,
           FILTRE=_F(NOM_PARA='NOEUD',
                     VALE_K='F',),
           )

TEST_TABLE(REFERENCE='ANALYTIQUE',
           PRECISION=3.5000000000000001E-3,
           VALE_CALC=-0.153774030,
           VALE_REFE=-0.15425,
           NOM_PARA='MYY',
           TABLE=RELEVE_1,
           FILTRE=_F(NOM_PARA='NOEUD',
                     VALE_K='F',),
           )

#======================================================================
#               MATERIAU  FONCTION  DE  LA  TEMPERATURE
#======================================================================

TINF1=45.

TSUP1=65.

T1=50.

TR1=T1 + ( ( TSUP1 + TINF1 - ( 2. * T1 ) ) / 6. )

TINF2=70.

TSUP2=90.

T2=75.

TR2=T2 + ( ( TSUP2 + TINF2 - ( 2. * T2 ) ) / 6. )

TINF3=95.

TSUP3=115.

T3=100.

TR3=T3 + ( ( TSUP3 + TINF3 - ( 2. * T3 ) ) / 6. )

E1=1.

E2=1.1

E3=1.2

E_F=DEFI_FONCTION(  NOM_PARA='TEMP',
                 PROL_DROITE='LINEAIRE',
                 PROL_GAUCHE='LINEAIRE',
                        VALE=( TR1, E1,  TR2, E2,  TR3, E3, )  )

NU1=0.3

NU2=0.33

NU3=0.35

NU_F=DEFI_FONCTION(  NOM_PARA='TEMP',
                 PROL_DROITE='LINEAIRE',
                 PROL_GAUCHE='LINEAIRE',
                         VALE=( TR1, NU1,  TR2, NU2,  TR3, NU3, )  )

ALPHA_F=DEFI_FONCTION(  NOM_PARA='TEMP',
                 PROL_DROITE='LINEAIRE',
                 PROL_GAUCHE='LINEAIRE',
                         VALE=(0., 0., TR1, 0.,  TR2, 0.,  TR3, 0., )  )

MATER_F=DEFI_MATERIAU(  ELAS_FO=_F(  E = E_F,   NU = NU_F,
                                       ALPHA = ALPHA_F,TEMP_DEF_ALPHA=0.) )


CHT0=CREA_CHAMP( OPERATION='AFFE', TYPE_CHAM='NOEU_TEMP_R',
                   MAILLAGE=MAILL,
                   AFFE=_F( TOUT='OUI',
                            NOM_CMP=('TEMP_INF','TEMP_MIL','TEMP_SUP'),
                            VALE=   (    0.0   ,  0.0 ,    0.0   ), ), )

CHT1=CREA_CHAMP( OPERATION='AFFE', TYPE_CHAM='NOEU_TEMP_R',
                  MAILLAGE=MAILL,
                      AFFE=_F(  TOUT = 'OUI',
                             NOM_CMP = ('TEMP_MIL', 'TEMP_INF', 'TEMP_SUP',),
                                VALE = ( T1,     TINF1,      TSUP1, )))

CHT2=CREA_CHAMP( OPERATION='AFFE', TYPE_CHAM='NOEU_TEMP_R',
                  MAILLAGE=MAILL,
                      AFFE=_F(  TOUT = 'OUI',
                             NOM_CMP = ('TEMP_MIL', 'TEMP_INF', 'TEMP_SUP',),
                                VALE = ( T2,     TINF2,      TSUP2, )))

CHT3=CREA_CHAMP( OPERATION='AFFE', TYPE_CHAM='NOEU_TEMP_R',
                  MAILLAGE=MAILL,
                      AFFE=_F(  TOUT = 'OUI',
                             NOM_CMP = ('TEMP_MIL', 'TEMP_INF', 'TEMP_SUP',),
                                VALE = ( T3,     TINF3,      TSUP3, )))

LINST=DEFI_LIST_REEL( VALE=( 0.,  1. ,  2. ,  3.  )  )

TEMP=CREA_RESU(  OPERATION='AFFE', TYPE_RESU='EVOL_THER',
                       NOM_CHAM='TEMP',
                       AFFE=( _F(  INST = 0.,  CHAM_GD = CHT0),
                              _F(  INST = 1.,  CHAM_GD = CHT1),
                              _F(  INST = 2.,  CHAM_GD = CHT2),
                              _F(  INST = 3.,  CHAM_GD = CHT3))
                  )
TEMPER1=CREA_RESU(  OPERATION='PREP_VRC2', TYPE_RESU='EVOL_THER',
    PREP_VRC2= _F(  MODELE=MODEL, CARA_ELEM=CARELEM, EVOL_THER = TEMP, ),)

CHMAT_F=AFFE_MATERIAU(  MAILLAGE=MAILL,
                  AFFE=_F(  TOUT = 'OUI',      MATER = MATER_F),
                  AFFE_VARC=  _F(TOUT='OUI',EVOL=TEMPER1,NOM_VARC='TEMP',
                                     NOM_CHAM='TEMP',VALE_REF=0.0), )

CHG1=AFFE_CHAR_MECA(  MODELE = MODEL,
             DDL_IMPO=(_F( GROUP_NO = 'GRNO_ABC', DX = 0.,  DY = 0.,   DZ = 0.),
                       _F( GROUP_NO = 'GRNO_OA',  DY = 0.,  DRX = 0.,  DRZ = 0.),
                       _F( NOEUD = 'A',                     DRX = 0.,  DRZ = 0.),
                       _F( GROUP_NO = 'GRNO_OC',  DX = 0.,  DRY = 0.,  DRZ = 0.),
                       _F( NOEUD = 'C',                     DRY = 0.,  DRZ = 0.),
                       _F( NOEUD = 'O',           DX = 0.,  DY = 0.,
                                                  DRX = 0.,  DRY = 0.,  DRZ = 0.)),
               FORCE_COQUE=_F(  TOUT = 'OUI', PRES = P) )

U2=STAT_NON_LINE(
                  MODELE=MODEL,
              CHAM_MATER=CHMAT_F,
               CARA_ELEM=CARELEM,
               COMPORTEMENT=_F(RELATION='ELAS'),
                   EXCIT=_F( CHARGE = CHG1),
               INCREMENT=_F(LIST_INST=LINST,),
                         )

TEST_RESU(RESU=(_F(NUME_ORDRE=1,
                   RESULTAT=U2,
                   NOM_CHAM='DEPL',
                   NOEUD='O',
                   NOM_CMP='DZ',
                   VALE_CALC=-681.99666693233996,),
                _F(NUME_ORDRE=2,
                   RESULTAT=U2,
                   NOM_CHAM='DEPL',
                   NOEUD='O',
                   NOM_CMP='DZ',
                   VALE_CALC=-563.45183163436002,),
                _F(NUME_ORDRE=3,
                   RESULTAT=U2,
                   NOM_CHAM='DEPL',
                   NOEUD='O',
                   NOM_CMP='DZ',
                   VALE_CALC=-463.54216713555002,),
                ),
          )

#----------------------------------------------------------------------
FIN( )
#
