# TITRE POUTRE CANTILEVER A AME EXCENTREE
# ======================================================================
# COPYRIGHT (C) 1991 - 2014  EDF R&D                  WWW.CODE-ASTER.ORG
# THIS PROGRAM IS FREE SOFTWARE; YOU CAN REDISTRIBUTE IT AND/OR MODIFY
# IT UNDER THE TERMS OF THE GNU GENERAL PUBLIC LICENSE AS PUBLISHED BY
# THE FREE SOFTWARE FOUNDATION; EITHER VERSION 2 OF THE LICENSE, OR
# (AT YOUR OPTION) ANY LATER VERSION.
#
# THIS PROGRAM IS DISTRIBUTED IN THE HOPE THAT IT WILL BE USEFUL, BUT
# WITHOUT ANY WARRANTY; WITHOUT EVEN THE IMPLIED WARRANTY OF
# MERCHANTABILITY OR FITNESS FOR A PARTICULAR PURPOSE. SEE THE GNU
# GENERAL PUBLIC LICENSE FOR MORE DETAILS.
#
# YOU SHOULD HAVE RECEIVED A COPY OF THE GNU GENERAL PUBLIC LICENSE
# ALONG WITH THIS PROGRAM; IF NOT, WRITE TO EDF R&D CODE_ASTER,
#    1 AVENUE DU GENERAL DE GAULLE, 92141 CLAMART CEDEX, FRANCE.
# ======================================================================
DEBUT(CODE=_F(NIV_PUB_WEB='INTERNET'),DEBUG=_F(SDVERI='OUI'))

#

MA=LIRE_MAILLAGE( )


BETON=DEFI_MATERIAU(ELAS=_F( E = 3.0E+10,NU = 0.2,RHO = 2500.E0,) )

GF=DEFI_GEOM_FIBRE(
           FIBRE = (_F( GROUP_FIBRE='SBET',
                       CARA = 'SURFACE',
                          #  COOR_AXE_POUTRE = (0.0,0.0,),
                            COOR_AXE_POUTRE = (0.0,-0.5,),
                            VALE =( -0.1, 0.375,0.05,
                                    -0.1, 0.125,0.05,
                                    -0.1, -0.125,0.05,
                                    -0.1, -0.375,0.05,
                                    0.1, 0.375,0.05,
                                    0.1, 0.125,0.05,
                                    0.1, -0.125,0.05,
                                    0.1, -0.375,0.05,
                                    ),),
                    ),

            )

COMPF=DEFI_COMPOR(GEOM_FIBRE=GF,MATER_SECT=BETON,
                  MULTIFIBRE=(
                              _F(GROUP_FIBRE='SBET',
                                 MATER=BETON, RELATION='ELAS'),
                                ),
                                )

MODELE=AFFE_MODELE( MAILLAGE=MA,
                        AFFE=_F( GROUP_MA = 'POUTRE',PHENOMENE = 'MECANIQUE',
                                        MODELISATION ='POU_D_EM') )

CAREL=AFFE_CARA_ELEM(INFO=2,
                     MODELE=MODELE,
                     POUTRE=_F(GROUP_MA='POUTRE',
                    SECTION='GENERALE',
                               CARA=('A','IY','IZ','JX'),
                               VALE=(0.4,0.13125,0.004,1.),
                               ),
                     GEOM_FIBRE=GF,
                     MULTIFIBRE=_F(GROUP_MA = 'POUTRE',PREC_AIRE=1.E2, PREC_INERTIE=1.E2,GROUP_FIBRE=('SBET')),
                     )
CHMAT=AFFE_MATERIAU(MAILLAGE=MA, AFFE=_F( GROUP_MA = 'POUTRE',MATER = (BETON)),
                        AFFE_COMPOR=_F(GROUP_MA = 'POUTRE',COMPOR=COMPF))



# CONDITIONS AUX LIMITES

ENCAST=AFFE_CHAR_MECA( MODELE=MODELE,
                        DDL_IMPO=(
                                    _F( GROUP_NO ='ENCAST',
                                        DX =0.,DY=0.,DZ = 0.,DRX = 0.,DRY = 0.,DRZ=0.),

                                ),
            )
#CHARGE
FORC = AFFE_CHAR_MECA( MODELE=MODELE,
                        FORCE_NODALE=(
                                    _F( GROUP_NO ='APPUI',
                                        FZ = -1.0E6),
                                ),
            )


LINE=DEFI_FONCTION(NOM_PARA='INST',
                   VALE=(0.0,0.0,1.,1.),
                   PROL_DROITE='EXCLU',
                   PROL_GAUCHE='EXCLU',)

LINST=DEFI_LIST_REEL(DEBUT=0.0,
                     INTERVALLE=(_F(JUSQU_A=1.,
                                    NOMBRE=1,),
                                ),
                    )

U =STAT_NON_LINE(   MODELE=MODELE,     CHAM_MATER=CHMAT,
                    CARA_ELEM=CAREL,EXCIT=( _F( CHARGE = ENCAST),
                                            _F( CHARGE = FORC, FONC_MULT = LINE),),
                    COMPORTEMENT=_F(RELATION='MULTIFIBRE',
                                GROUP_MA='POUTRE',),
                    INCREMENT=_F(LIST_INST=LINST,),
                                            )
U = CALC_CHAMP(reuse=U,RESULTAT=U,DEFORMATION='EPSI_ELGA',INST=1,MAILLE='M1')
U = CALC_CHAMP(reuse=U,RESULTAT=U,DEFORMATION='DEGE_ELNO',INST=1,MAILLE='M1')
U = CALC_CHAMP(reuse=U,RESULTAT=U,CONTRAINTE='SIEF_ELNO',INST=1,MAILLE='M1')


IMPR_RESU(RESU=_F(RESULTAT=U,INST=1. , NOM_CHAM=('SIEF_ELGA','EPSI_ELGA',),MAILLE='M1',))
IMPR_RESU(RESU=_F(RESULTAT=U,INST=1. , NOM_CHAM=('SIEF_ELNO','DEGE_ELNO'),MAILLE='M1',))
IMPR_RESU(RESU=_F(RESULTAT=U,INST=1. , NOM_CHAM=('DEPL')))


TEST_RESU(RESU=(
   _F(RESULTAT=U,
      INST=1.,
      NOM_CHAM='DEPL',
      NOM_CMP='DZ',
      GROUP_NO='APPUI',
      VALE_REFE=-3.55555E-4,
      VALE_CALC=-3.555555555555555E-4,
      REFERENCE='ANALYTIQUE',
      CRITERE='RELATIF',
      PRECISION=1.E-5,
      ),
   _F(RESULTAT=U,
      INST=1.,
      NOM_CHAM='SIEF_ELGA',
      NOM_CMP='SIXX',
      MAILLE='M1',
      POINT=2,
      SOUS_POINT=1,
      VALE_REFE=9.46410161e6,
      VALE_CALC=9.46410161513778e6,
      REFERENCE='ANALYTIQUE',
      CRITERE='RELATIF',
      PRECISION=1.E-5,
      ),
   _F(RESULTAT=U,
      INST=1.,
      NOM_CHAM='SIEF_ELGA',
      NOM_CMP='SIXX',
      MAILLE='M1',
      POINT=2,
      SOUS_POINT=4,
      VALE_REFE=-9.4641016e6,
      VALE_CALC=-9.46410161513778e6,
      REFERENCE='ANALYTIQUE',
      CRITERE='RELATIF',
      PRECISION=1.E-5,
      ),
   _F(RESULTAT=U,
      INST=1.,
      NOM_CHAM='EPSI_ELGA',
      NOM_CMP='EPXX',
      MAILLE='M1',
      POINT=2,
      SOUS_POINT=1,
      VALE_REFE=3.1547e-4,
      VALE_CALC=3.15470053837926e-4,
      REFERENCE='ANALYTIQUE',
      CRITERE='RELATIF',
      PRECISION=1.E-5,
      ),
   _F(RESULTAT=U,
      INST=1.,
      NOM_CHAM='EPSI_ELGA',
      NOM_CMP='EPXX',
      MAILLE='M1',
      POINT=2,
      SOUS_POINT=4,
      VALE_REFE=-3.1547e-4,
      VALE_CALC=-3.15470053837926e-4,
      REFERENCE='ANALYTIQUE',
      CRITERE='RELATIF',
      PRECISION=1.E-5,
      ),

   _F(RESULTAT=U,
      INST=1.,
      NOM_CHAM='DEGE_ELNO',
      NOM_CMP='KY',
      MAILLE='M1',
      NOEUD='N1',
      VALE_REFE=1.06666E-3,
      VALE_CALC=1.0666666666666667E-3,
      REFERENCE='ANALYTIQUE',
      CRITERE='RELATIF',
      PRECISION=1.E-5,
      ),
   _F(RESULTAT=U,
      INST=1.,
      NOM_CHAM='DEGE_ELNO',
      NOM_CMP='EPXX',
      MAILLE='M1',
      NOEUD='N1',
      VALE_REFE=-5.3333E-04,
      VALE_CALC=-5.3333333333333E-04,
      REFERENCE='ANALYTIQUE',
      CRITERE='RELATIF',
      PRECISION=1.E-5,
      ),
))


# TEST AVEC MECA_STATIQUE
U1=MECA_STATIQUE(  MODELE=MODELE,     CHAM_MATER=CHMAT,
                    CARA_ELEM=CAREL,EXCIT=( _F( CHARGE = ENCAST),
                                            _F( CHARGE = FORC, FONC_MULT = LINE),),
                   LIST_INST=LINST)

U1 = CALC_CHAMP(reuse=U1,RESULTAT=U1,DEFORMATION='EPSI_ELGA',INST=1,MAILLE='M1')
U1 = CALC_CHAMP(reuse=U1,RESULTAT=U1,DEFORMATION='DEGE_ELNO',INST=1,MAILLE='M1')
U1 = CALC_CHAMP(reuse=U1,RESULTAT=U1,CONTRAINTE='SIEF_ELNO',INST=1,MAILLE='M1')


TEST_RESU(RESU=(
   _F(RESULTAT=U1,
      INST=1.,
      NOM_CHAM='DEPL',
      NOM_CMP='DZ',
      GROUP_NO='APPUI',
      VALE_REFE=-3.55555E-4,
      VALE_CALC=-3.555555555555555E-4,
      REFERENCE='ANALYTIQUE',
      CRITERE='RELATIF',
      PRECISION=1.E-5,
      ),
   _F(RESULTAT=U1,
      INST=1.,
      NOM_CHAM='SIEF_ELGA',
      NOM_CMP='SIXX',
      MAILLE='M1',
      POINT=2,
      SOUS_POINT=1,
      VALE_REFE=9.46410161e6,
      VALE_CALC=9.46410161513778e6,
      REFERENCE='ANALYTIQUE',
      CRITERE='RELATIF',
      PRECISION=1.E-5,
      ),
   _F(RESULTAT=U1,
      INST=1.,
      NOM_CHAM='SIEF_ELGA',
      NOM_CMP='SIXX',
      MAILLE='M1',
      POINT=2,
      SOUS_POINT=4,
      VALE_REFE=-9.4641016e6,
      VALE_CALC=-9.46410161513778e6,
      REFERENCE='ANALYTIQUE',
      CRITERE='RELATIF',
      PRECISION=1.E-5,
      ),
   _F(RESULTAT=U1,
      INST=1.,
      NOM_CHAM='EPSI_ELGA',
      NOM_CMP='EPXX',
      MAILLE='M1',
      POINT=2,
      SOUS_POINT=1,
      VALE_REFE=3.1547e-4,
      VALE_CALC=3.15470053837926e-4,
      REFERENCE='ANALYTIQUE',
      CRITERE='RELATIF',
      PRECISION=1.E-5,
      ),
   _F(RESULTAT=U1,
      INST=1.,
      NOM_CHAM='EPSI_ELGA',
      NOM_CMP='EPXX',
      MAILLE='M1',
      POINT=2,
      SOUS_POINT=4,
      VALE_REFE=-3.1547e-4,
      VALE_CALC=-3.15470053837926e-4,
      REFERENCE='ANALYTIQUE',
      CRITERE='RELATIF',
      PRECISION=1.E-5,
      ),

   _F(RESULTAT=U1,
      INST=1.,
      NOM_CHAM='DEGE_ELNO',
      NOM_CMP='KY',
      MAILLE='M1',
      NOEUD='N1',
      VALE_REFE=1.06666E-3,
      VALE_CALC=1.0666666666666667E-3,
      REFERENCE='ANALYTIQUE',
      CRITERE='RELATIF',
      PRECISION=1.E-5,
      ),
   _F(RESULTAT=U1,
      INST=1.,
      NOM_CHAM='DEGE_ELNO',
      NOM_CMP='EPXX',
      MAILLE='M1',
      NOEUD='N1',
      VALE_REFE=-5.3333E-04,
      VALE_CALC=-5.3333333333333E-04,
      REFERENCE='ANALYTIQUE',
      CRITERE='RELATIF',
      PRECISION=1.E-5,
      ),
))




FIN()
