# MODIF  DATE 17/01/2012   AUTEUR SELLENET N.SELLENET 
# TITRE PLAQUE RECTANGULAIRE SIMPLEMENT APPUIEE COMPRIMEE
#            CONFIGURATION MANAGEMENT OF EDF VERSION
# ======================================================================
# COPYRIGHT (C) 1991 - 2012  EDF R&D                  WWW.CODE-ASTER.ORG
# THIS PROGRAM IS FREE SOFTWARE; YOU CAN REDISTRIBUTE IT AND/OR MODIFY
# IT UNDER THE TERMS OF THE GNU GENERAL PUBLIC LICENSE AS PUBLISHED BY
# THE FREE SOFTWARE FOUNDATION; EITHER VERSION 2 OF THE LICENSE, OR
# (AT YOUR OPTION) ANY LATER VERSION.
#
# THIS PROGRAM IS DISTRIBUTED IN THE HOPE THAT IT WILL BE USEFUL, BUT
# WITHOUT ANY WARRANTY; WITHOUT EVEN THE IMPLIED WARRANTY OF
# MERCHANTABILITY OR FITNESS FOR A PARTICULAR PURPOSE. SEE THE GNU
# GENERAL PUBLIC LICENSE FOR MORE DETAILS.
#
# YOU SHOULD HAVE RECEIVED A COPY OF THE GNU GENERAL PUBLIC LICENSE
# ALONG WITH THIS PROGRAM; IF NOT, WRITE TO EDF R&D CODE_ASTER,
#    1 AVENUE DU GENERAL DE GAULLE, 92141 CLAMART CEDEX, FRANCE.
# ======================================================================

DEBUT(CODE=_F( NOM = 'SSLS110A',NIV_PUB_WEB='INTERNET'),DEBUG=_F(SDVERI='OUI'))

# MAILLAGE 1/4 DE LA PLAQUE
#
# MODELISATION MEC3QU9H OU MEC3TR7H
#
#
#

MATERI_1=DEFI_MATERIAU( ELAS=_F(  E = 210000.,     NU = 0.3000, ) )

#

MAILLA_1=LIRE_MAILLAGE(FORMAT='MED',   )

MAILLA_1=DEFI_GROUP( reuse=MAILLA_1,   MAILLAGE=MAILLA_1,
  CREA_GROUP_MA=_F(  NOM = 'TOUT',   TOUT = 'OUI',   ))

#

CH_MAT_1=AFFE_MATERIAU(  MAILLAGE=MAILLA_1,
                            AFFE=_F(  TOUT = 'OUI',   MATER = MATERI_1,  ) )

#

MODELE_1=AFFE_MODELE(  MAILLAGE=MAILLA_1, VERIF='MAILLE',
                     AFFE=_F( TOUT = 'OUI', MODELISATION = 'COQUE_3D',
                                PHENOMENE = 'MECANIQUE', ) )

#

CHARGE_1=AFFE_CHAR_MECA(MODELE=MODELE_1,DDL_IMPO=(
                  _F( GROUP_NO = 'G_23',                   DZ = 0.,
                                                                   ),
                           _F( GROUP_NO = 'G_34',                   DZ = 0.,
                                                                   ),
                           _F( GROUP_NO = 'G_12',           DY = 0.,
                                           DRX = 0.,          DRZ = 0.,  ),
                           _F( GROUP_NO = 'G_41',   DX = 0.,
                                                   DRY = 0.,    DRZ = 0.,)),
                  FORCE_ARETE=_F(  GROUP_MA = 'G_2233',       FX = -1.,   )
#
                  )

CARAC_1=AFFE_CARA_ELEM(   MODELE=MODELE_1,
                               COQUE=_F(
       GROUP_MA = 'TOUT',
  EPAIS = 5.,
###                                          A_CIS: 1.D5
                                                             )
                           )

MATELE_1=CALC_MATR_ELEM(   MODELE=MODELE_1,     CHARGE=CHARGE_1,
                               CARA_ELEM=CARAC_1,
                               CHAM_MATER=CH_MAT_1,
                               OPTION='RIGI_MECA' )

NU=NUME_DDL(   MATR_RIGI=MATELE_1 )

MATASS_1=ASSE_MATRICE(   MATR_ELEM=MATELE_1,   NUME_DDL=NU )

RESU=MECA_STATIQUE(MODELE=MODELE_1,
                   CHAM_MATER=CH_MAT_1,
                   CARA_ELEM=CARAC_1,
                   EXCIT=_F(CHARGE=CHARGE_1,),
                   INFO=2);

#
#
####################################################################
#
###### ETAT DE CONTRAINTES
#

SIGMA_1=CREA_CHAMP( OPERATION='EXTR', TYPE_CHAM='ELGA_SIEF_R',
                    RESULTAT=RESU, NUME_ORDRE=1,
                    NOM_CHAM='SIEF_ELGA', INFO=2),

#
#
#
###### MATRICE DE RIGIDITE GEOMETRIQUE ELEMENTAIRE
#

RIGELG_1=CALC_MATR_ELEM(  MODELE=MODELE_1, OPTION='RIGI_GEOM',
                             CARA_ELEM=CARAC_1,  SIEF_ELGA=SIGMA_1 )

#
#
###### MATRICE DE RIGIDITE GEOMETRIQUE ASSEMBLEE
#
#

RIGASG_1=ASSE_MATRICE(MATR_ELEM=RIGELG_1,NUME_DDL=NU)

#
#

##### RESOLUTION DU PROBLEME DE VALEURS PROPRES
#
#

MOD_1=MODE_ITER_SIMULT(                   MATR_A=MATASS_1,
                                              MATR_B=RIGASG_1,
######                             NUME_MODE_NEGA        : 'NON'
                TYPE_RESU='MODE_FLAMB',
                CALC_FREQ=_F(  NMAX_FREQ = 9,    DIM_SOUS_ESPACE = 30,       ),
                            )

#
#
#
#
#
##### CHARGE CRITIQUE 1 ( MODE 1 ) = MODE 1 TOUTE LA PLAQUE
#

TEST_RESU(    RESU=_F( RESULTAT = MOD_1, NUME_MODE = 9,  PARA = 'CHAR_CRIT',
    VALE = -3.796001692726676E+02,   CRITERE = 'RELATIF', PRECISION = 1.E-2,))

#
#
##### CHARGE CRITIQUE 2 ( MODE 2 ) = MODE 3 TOUTE LA PLAQUE
#

TEST_RESU(    RESU=_F( RESULTAT = MOD_1, NUME_MODE = 8,  PARA = 'CHAR_CRIT',
    VALE = -1.054444914646299E+03,   CRITERE = 'RELATIF', PRECISION = 0.6E-2,))

#
#
#
##### CHARGE CRITIQUE 3 ( MODE 3 ) = MODE 5 TOUTE LA PLAQUE
#

TEST_RESU(    RESU=_F( RESULTAT = MOD_1, NUME_MODE = 7,  PARA = 'CHAR_CRIT',
    VALE = -2.566097144283234E+03,  CRITERE = 'RELATIF', PRECISION = 0.4E-2,))

#
#
#
FIN()
#


