# MODIF  DATE 13/09/2010   AUTEUR DESROCHES X.DESROCHES 
# RESPONSABLE JMBHH01 J.M.PROIX
# TITRE PLAQUE STRATIFIEE EN FLEXION - DSQ -
#            CONFIGURATION MANAGEMENT OF EDF VERSION
# ======================================================================
# COPYRIGHT (C) 1991 - 2001  EDF R&D                  WWW.CODE-ASTER.ORG
# THIS PROGRAM IS FREE SOFTWARE; YOU CAN REDISTRIBUTE IT AND/OR MODIFY
# IT UNDER THE TERMS OF THE GNU GENERAL PUBLIC LICENSE AS PUBLISHED BY
# THE FREE SOFTWARE FOUNDATION; EITHER VERSION 2 OF THE LICENSE, OR
# (AT YOUR OPTION) ANY LATER VERSION.
#
# THIS PROGRAM IS DISTRIBUTED IN THE HOPE THAT IT WILL BE USEFUL, BUT
# WITHOUT ANY WARRANTY; WITHOUT EVEN THE IMPLIED WARRANTY OF
# MERCHANTABILITY OR FITNESS FOR A PARTICULAR PURPOSE. SEE THE GNU
# GENERAL PUBLIC LICENSE FOR MORE DETAILS.
#
# YOU SHOULD HAVE RECEIVED A COPY OF THE GNU GENERAL PUBLIC LICENSE
# ALONG WITH THIS PROGRAM; IF NOT, WRITE TO EDF R&D CODE_ASTER,
#    1 AVENUE DU GENERAL DE GAULLE, 92141 CLAMART CEDEX, FRANCE.
# ======================================================================
# SSLS117D
# PLAQUE DE STRATIFIE RECTANGULAIRE EXCENTREE
# CALCUL 1 : 1 BICOUCHE , CE CALCUL SERT DE REFERENCE
# CALCUL 2 : 2 MONOCOUCHES EXCENTRES
#
# MODELISATION DSQ
#             66 NOEUDS  50 MAILLES QUAD4
#----------------------------------------------------------------------
#POINTS:  A4                          A3
#           -------------------------
#           -                       -
#           -                       -
#           -                       -
#           -                       -
#           -------------------------
#         A1                          A2
#
# ______________________________________________________________________
#
#


DEBUT(CODE=_F(NOM='SSLS117D', NIV_PUB_WEB='INTERNET'), DEBUG=_F(SDVERI='OUI'))

PRE_GIBI();

MA1=LIRE_MAILLAGE();

DEFI_GROUP(reuse =MA1,
               MAILLAGE=MA1,
               CREA_GROUP_MA=_F(NOM='TOUT',
                                TOUT='OUI',),);

MA=CREA_MAILLAGE(MAILLAGE=MA1,
                 CREA_GROUP_MA=_F(NOM='PLAQ2',
                                  GROUP_MA='PLAQ1',
                                  PREF_MAILLE='MAIL',),);

DEFI_GROUP(reuse =MA,
              MAILLAGE=MA,
              CREA_GROUP_NO=(_F(GROUP_MA='PLAQ1',
                                NOM='PLAQ1',),
                             _F(GROUP_MA='PLAQ2',
                                NOM='PLAQ2',),),);

MO=AFFE_MODELE(MAILLAGE=MA,
               AFFE=_F(TOUT='OUI',
                       PHENOMENE='MECANIQUE',
                       MODELISATION='DST',),);

MO1=AFFE_MODELE(MAILLAGE=MA,
                AFFE=_F(GROUP_MA='PLAQ1',
                        PHENOMENE='MECANIQUE',
                        MODELISATION='DST',),);

EP=AFFE_CARA_ELEM(MODELE=MO,
                  COQUE=(_F(GROUP_MA='TOUT',
                            EPAIS=0.20000000000000001,
                            INER_ROTA='OUI',),
                         _F(GROUP_MA='PLAQ1',
                            EPAIS=0.40000000000000002,
                            ANGL_REP=(0.0,0.0),
                            EXCENTREMENT=0.10000000000000001,
                            INER_ROTA='OUI',),
                         _F(GROUP_MA='PLAQ2',
                            EPAIS=0.20000000000000001,
                            ANGL_REP=(0.0,0.0),
                            EXCENTREMENT=-0.20000000000000001,
                            INER_ROTA='OUI',),),);

EP1=AFFE_CARA_ELEM(MODELE=MO1,
                   COQUE=_F(GROUP_MA='TOUT',COQUE_NCOU=2,
                            EPAIS=0.59999999999999998,
                            ANGL_REP=(0.0,0.0),
                            INER_ROTA='OUI',),);

MAT1A=DEFI_MATERIAU(ELAS_ORTH=_F(E_L=2.E10,
                                 E_T=2.E10,
                                 NU_LT=0.29999999999999999,
                                 G_LT=2.E9,
                                 RHO=1000.0,),);

MAT1B=DEFI_MATERIAU(ELAS_ORTH=_F(E_L=1.5000000000E10,
                                 E_T=1.5000000000E10,
                                 NU_LT=0.29999999999999999,
                                 G_LT=1.500000000E9,
                                 RHO=1000.0,),);

MU=DEFI_COQU_MULT(COUCHE=(_F(EPAIS=0.20000000000000001,
                             MATER=MAT1B,
                             ORIENTATION=0.0,),
                          _F(EPAIS=0.40000000000000002,
                             MATER=MAT1A,
                             ORIENTATION=0.0,),),);

MU1=DEFI_COQU_MULT(COUCHE=_F(EPAIS=0.40000000000000002,
                             MATER=MAT1A,
                             ORIENTATION=0.0,),);

MU2=DEFI_COQU_MULT(COUCHE=_F(EPAIS=0.20000000000000001,
                             MATER=MAT1B,
                             ORIENTATION=0.0,),);

CHMUL1=AFFE_MATERIAU(MAILLAGE=MA,
                     AFFE=_F(TOUT='OUI',
                             MATER=MU,),);

CHMAT=AFFE_MATERIAU(MAILLAGE=MA,
                    AFFE=(_F(GROUP_MA='PLAQ1',
                             MATER=MU1,),
                          _F(GROUP_MA='PLAQ2',
                             MATER=MU2,),),);

CHME=AFFE_CHAR_MECA(MODELE=MO,
                    DDL_IMPO=(_F(GROUP_NO='A1',
                                 DX=0.0,
                                 DY=0.0,
                                 DZ=0.0,
                                 DRX=0.0,
                                 DRY=0.0,
                                 DRZ=0.0,),
                              _F(GROUP_NO='A2',
                                 DX=0.0,
                                 DY=0.0,),),
                    FORCE_NODALE=_F(GROUP_NO='A3',
                                    FZ=-1000.0,),
                    FORCE_COQUE=_F(MAILLE=('M1','M2','M3'),
                                   FX=200.0,
                                   FY=-500.0,
                                   FZ=-500.0,
                                   PLAN='SUP',),);

CHME1=AFFE_CHAR_MECA(MODELE=MO1,
                     DDL_IMPO=(_F(GROUP_NO='A1',
                                  DX=0.0,
                                  DY=0.0,
                                  DZ=0.0,
                                  DRX=0.0,
                                  DRY=0.0,
                                  DRZ=0.0,),
                               _F(GROUP_NO='A2',
                                  DX=0.0,
                                  DY=0.0,),),
                     FORCE_NODALE=_F(GROUP_NO='A3',
                                     FZ=-1000.0,),
                     FORCE_COQUE=_F(MAILLE=('M1','M2','M3'),
                                    FX=200.0,
                                    FY=-500.0,
                                    FZ=-500.0,
                                    MX=100.0,
                                    MY=40.0,
                                    PLAN='MAIL',),);
# ______________________________________________________________________
#
#                         RESOLUTION
# ______________________________________________________________________
#
#


MEL=CALC_MATR_ELEM(OPTION='RIGI_MECA',
                   MODELE=MO,
                   CHAM_MATER=CHMAT,
                   CARA_ELEM=EP,
                   CHARGE=(CHME),);

MASEL=CALC_MATR_ELEM(OPTION='MASS_MECA',
                     MODELE=MO,
                     CHAM_MATER=CHMAT,
                     CARA_ELEM=EP,
                     CHARGE=(CHME),);

VEL=CALC_VECT_ELEM(OPTION='CHAR_MECA',
                   CHARGE=(CHME),
                   CHAM_MATER=CHMAT,
                   CARA_ELEM=EP,);

NU=NUME_DDL(MATR_RIGI=MEL,);

MATASS=ASSE_MATRICE(MATR_ELEM=MEL,
                    NUME_DDL=NU,);

MATASM=ASSE_MATRICE(MATR_ELEM=MASEL,
                    NUME_DDL=NU,);

VECASS=ASSE_VECTEUR(VECT_ELEM=VEL,
                    NUME_DDL=NU,);

MODES=MODE_ITER_SIMULT(MATR_A=MATASS,
                       MATR_B=MATASM,
                       CALC_FREQ=_F(OPTION='PLUS_PETITE',
                                    NMAX_FREQ=4,),);

MESTAT=MECA_STATIQUE(MODELE=MO,
                     CHAM_MATER=CHMAT,
                     CARA_ELEM=EP,
                     EXCIT=_F(CHARGE=CHME,),);

DEP=CREA_CHAMP(TYPE_CHAM='NOEU_DEPL_R',
               OPERATION='EXTR',
               RESULTAT=MESTAT,
               NOM_CHAM='DEPL',);
# POUR OBTENIR LES EFFORTS, IL FUAT SOMMER LES CONTRIBUTIONS
# DES DEUX PLAQUES
#


EFINF=CALC_ELEM(GROUP_MA='PLAQ1',
                OPTION='EFGE_ELNO_DEPL',
                RESULTAT=MESTAT,
                REPE_COQUE=_F(PLAN='MAIL',),);

EFSUP=CALC_ELEM(GROUP_MA='PLAQ2',
                OPTION='EFGE_ELNO_DEPL',
                RESULTAT=MESTAT,
                REPE_COQUE=_F(PLAN='MAIL',),);

CALC_NO(reuse =EFINF,
              RESULTAT=EFINF,
              OPTION='EFGE_NOEU_DEPL',


              GROUP_MA='PLAQ1',);

CALC_NO(reuse =EFSUP,
              RESULTAT=EFSUP,
              OPTION='EFGE_NOEU_DEPL',


              GROUP_MA='PLAQ2',);

EFNINF=CREA_CHAMP(TYPE_CHAM='NOEU_SIEF_R',
                  OPERATION='EXTR',
                  RESULTAT=EFINF,
                  NOM_CHAM='EFGE_NOEU_DEPL',);

EFNSUP=CREA_CHAMP(TYPE_CHAM='NOEU_SIEF_R',
                  OPERATION='EXTR',
                  RESULTAT=EFSUP,
                  NOM_CHAM='EFGE_NOEU_DEPL',);

EFF=CREA_CHAMP(TYPE_CHAM='NOEU_SIEF_R',
               OPERATION='ASSE',
               MAILLAGE=MA,
               ASSE=(_F(TOUT='OUI',
                        CHAM_GD=EFNINF,
                        CUMUL='OUI',
                        COEF_R=1.0,),
                     _F(TOUT='OUI',
                        CHAM_GD=EFNSUP,
                        CUMUL='OUI',
                        COEF_R=1.0,),),);
# ______________________________________________________________________
#
#
#  BICOUCHE
# ______________________________________________________________________
#
#


MEL1=CALC_MATR_ELEM(OPTION='RIGI_MECA',
                    MODELE=MO1,
                    CHAM_MATER=CHMUL1,
                    CARA_ELEM=EP1,
                    CHARGE=CHME1,);

MASEL1=CALC_MATR_ELEM(OPTION='MASS_MECA',
                      MODELE=MO1,
                      CHAM_MATER=CHMUL1,
                      CARA_ELEM=EP1,
                      CHARGE=(CHME1),);

VEL1=CALC_VECT_ELEM(OPTION='CHAR_MECA',
                    CHARGE=CHME1,
                    CHAM_MATER=CHMUL1,
                    CARA_ELEM=EP1,);

NU1=NUME_DDL(MATR_RIGI=MEL1,);

MATASS1=ASSE_MATRICE(MATR_ELEM=MEL1,
                     NUME_DDL=NU1,);

MATASM1=ASSE_MATRICE(MATR_ELEM=MASEL1,
                     NUME_DDL=NU1,);

VECASS1=ASSE_VECTEUR(VECT_ELEM=VEL1,
                     NUME_DDL=NU1,);

MODE1=MODE_ITER_SIMULT(MATR_A=MATASS1,
                       MATR_B=MATASM1,
                       CALC_FREQ=_F(OPTION='PLUS_PETITE',
                                    NMAX_FREQ=4,),);


MESTAT1=MECA_STATIQUE(MODELE=MO1,
                       CHAM_MATER=CHMUL1,
                       CARA_ELEM=EP1,
                       EXCIT=_F(CHARGE=CHME1,),);

CALC_ELEM( reuse= MESTAT1 ,RESULTAT= MESTAT1 ,
           OPTION='EFGE_ELNO_DEPL',
           REPE_COQUE=_F(PLAN='MAIL',),);

CALC_NO(reuse =MESTAT1,
                RESULTAT=MESTAT1,
                OPTION='EFGE_NOEU_DEPL',
                );

DEP1=CREA_CHAMP(TYPE_CHAM='NOEU_DEPL_R',
                OPERATION='EXTR',
                RESULTAT=MESTAT1,
                NOM_CHAM='DEPL',);

EFF1=CREA_CHAMP(TYPE_CHAM='NOEU_SIEF_R',
                OPERATION='EXTR',
                RESULTAT=MESTAT1,
                NOM_CHAM='EFGE_NOEU_DEPL',);
# ______________________________________________________________________
#
# REFERENCE : BICOUCHE
# ______________________________________________________________________
#
#


TEST_RESU(CHAM_NO=(_F(CHAM_GD=DEP1,
                      GROUP_NO='A4',
                      NOM_CMP='DX',
                      VALE=-2.3453900000000002E-06,
                      REFERENCE='NON_REGRESSION',
                      VERSION='6.2.13',),
                   _F(CHAM_GD=DEP1,
                      GROUP_NO='A4',
                      NOM_CMP='DY',
                      VALE=-1.9694000000000002E-06,
                      REFERENCE='NON_REGRESSION',
                      VERSION='6.2.13',),
                   _F(CHAM_GD=DEP1,
                      GROUP_NO='A4',
                      NOM_CMP='DZ',
                      VALE=-2.2427999999999999E-4,
                      REFERENCE='NON_REGRESSION',
                      VERSION='6.2.13',),
                   _F(CHAM_GD=DEP1,
                      GROUP_NO='A4',
                      NOM_CMP='DRX',
                      VALE=-6.2983000000000003E-05,
                      REFERENCE='NON_REGRESSION',
                      VERSION='6.2.13',),
                   _F(CHAM_GD=DEP1,
                      GROUP_NO='A4',
                      NOM_CMP='DRY',
                      VALE=1.5823000000000001E-4,
                      REFERENCE='NON_REGRESSION',
                      VERSION='6.2.13',),
                   _F(CHAM_GD=DEP1,
                      GROUP_NO='A3',
                      NOM_CMP='DX',
                      VALE=-3.0023E-06,
                      REFERENCE='NON_REGRESSION',
                      VERSION='6.2.13',),
                   _F(CHAM_GD=DEP1,
                      GROUP_NO='A3',
                      NOM_CMP='DY',
                      VALE=-4.6611999999999999E-07,
                      REFERENCE='NON_REGRESSION',
                      VERSION='6.2.13',),
                   _F(CHAM_GD=DEP1,
                      GROUP_NO='A3',
                      NOM_CMP='DZ',
                      VALE=-1.8841999999999999E-3,
                      REFERENCE='NON_REGRESSION',
                      VERSION='6.2.13',),
                   _F(CHAM_GD=DEP1,
                      GROUP_NO='A3',
                      NOM_CMP='DRX',
                      VALE=-1.2768E-4,
                      REFERENCE='NON_REGRESSION',
                      VERSION='6.2.13',),
                   _F(CHAM_GD=DEP1,
                      GROUP_NO='A3',
                      NOM_CMP='DRY',
                      VALE=1.7064000000000001E-4,
                      REFERENCE='NON_REGRESSION',
                      VERSION='6.2.13',),),);

TEST_RESU(CHAM_NO=(_F(CHAM_GD=EFF1,
                      GROUP_NO='A1',
                      NOM_CMP='NXX',
                      VALE=8683.7248397450003,
                      REFERENCE='NON_REGRESSION',
                      VERSION='6.2.13',),
                   _F(CHAM_GD=EFF1,
                      GROUP_NO='A1',
                      NOM_CMP='NYY',
                      VALE=-4106.9378125979001,
                      REFERENCE='NON_REGRESSION',
                      VERSION='6.2.13',),
                   _F(CHAM_GD=EFF1,
                      GROUP_NO='A1',
                      NOM_CMP='NXY',
                      VALE=390.19096986845,
                      REFERENCE='NON_REGRESSION',
                      VERSION='6.2.13',),
                   _F(CHAM_GD=EFF1,
                      GROUP_NO='A1',
                      NOM_CMP='MXX',
                      VALE=3.4766348994371998E4,
                      REFERENCE='NON_REGRESSION',
                      VERSION='6.2.13',),
                   _F(CHAM_GD=EFF1,
                      GROUP_NO='A1',
                      NOM_CMP='MYY',
                      VALE=1.5245193621124001E4,
                      REFERENCE='NON_REGRESSION',
                      VERSION='6.2.13',),
                   _F(CHAM_GD=EFF1,
                      GROUP_NO='A1',
                      NOM_CMP='MXY',
                      VALE=6344.8904522235998,
                      REFERENCE='NON_REGRESSION',
                      VERSION='6.2.13',),
                   _F(CHAM_GD=EFF1,
                      GROUP_NO='A1',
                      NOM_CMP='QX',
                      VALE=-1.7043983257067001E4,
                      REFERENCE='NON_REGRESSION',
                      VERSION='6.2.13',),
                   _F(CHAM_GD=EFF1,
                      GROUP_NO='A1',
                      NOM_CMP='QY',
                      VALE=-9828.1919152804003,
                      REFERENCE='NON_REGRESSION',
                      VERSION='6.2.13',),),);

TEST_RESU(RESU=(_F(RESULTAT=MODE1,
                   NUME_ORDRE=1,
                   PARA='FREQ',
                   VALE=1.4218999999999999,
                   CRITERE='RELATIF',
                   REFERENCE='NON_REGRESSION',
                   VERSION='6.2.13',),
                _F(RESULTAT=MODE1,
                   NUME_ORDRE=2,
                   PARA='FREQ',
                   VALE=5.2995000000000001,
                   CRITERE='RELATIF',
                   REFERENCE='NON_REGRESSION',
                   VERSION='6.2.13',),
                _F(RESULTAT=MODE1,
                   NUME_ORDRE=3,
                   PARA='FREQ',
                   VALE=12.15,
                   CRITERE='RELATIF',
                   REFERENCE='NON_REGRESSION',
                   VERSION='6.2.13',),
                _F(RESULTAT=MODE1,
                   NUME_ORDRE=4,
                   PARA='FREQ',
                   VALE=24.385000000000002,
                   CRITERE='RELATIF',
                   REFERENCE='NON_REGRESSION',
                   VERSION='6.2.13',),),);
# ______________________________________________________________________
# VALIDATION : 2 PLAQUES EXCENTREES
# ______________________________________________________________________
#
#


TEST_RESU(CHAM_NO=(_F(CHAM_GD=DEP,
                      GROUP_NO='A4',
                      NOM_CMP='DX',
                      VALE=-2.3453900000000002E-06,
                      PRECISION=1.E-2,
                      REFERENCE='AUTRE_ASTER',),
                   _F(CHAM_GD=DEP,
                      GROUP_NO='A4',
                      NOM_CMP='DY',
                      VALE=-1.9694000000000002E-06,
                      PRECISION=0.017999999999999999,
                      REFERENCE='AUTRE_ASTER',),
                   _F(CHAM_GD=DEP,
                      GROUP_NO='A4',
                      NOM_CMP='DZ',
                      VALE=-2.2427999999999999E-4,
                      PRECISION=0.057000000000000002,
                      REFERENCE='AUTRE_ASTER',),
                   _F(CHAM_GD=DEP,
                      GROUP_NO='A4',
                      NOM_CMP='DRX',
                      VALE=-6.2983000000000003E-05,
                      PRECISION=0.050999999999999997,
                      REFERENCE='AUTRE_ASTER',),
                   _F(CHAM_GD=DEP,
                      GROUP_NO='A4',
                      NOM_CMP='DRY',
                      VALE=1.5823000000000001E-4,
                      PRECISION=0.012,
                      REFERENCE='AUTRE_ASTER',),
                   _F(CHAM_GD=DEP,
                      GROUP_NO='A3',
                      NOM_CMP='DX',
                      VALE=-3.0023E-06,
                      PRECISION=1.E-2,
                      REFERENCE='AUTRE_ASTER',),
                   _F(CHAM_GD=DEP,
                      GROUP_NO='A3',
                      NOM_CMP='DY',
                      VALE=-4.6611999999999999E-07,
                      PRECISION=1.E-2,
                      REFERENCE='AUTRE_ASTER',),
                   _F(CHAM_GD=DEP,
                      GROUP_NO='A3',
                      NOM_CMP='DZ',
                      VALE=-1.8841999999999999E-3,
                      PRECISION=1.E-2,
                      REFERENCE='AUTRE_ASTER',),
                   _F(CHAM_GD=DEP,
                      GROUP_NO='A3',
                      NOM_CMP='DRX',
                      VALE=-1.2768E-4,
                      PRECISION=0.024,
                      REFERENCE='AUTRE_ASTER',),
                   _F(CHAM_GD=DEP,
                      GROUP_NO='A3',
                      NOM_CMP='DRY',
                      VALE=1.7064000000000001E-4,
                      PRECISION=0.012,
                      REFERENCE='AUTRE_ASTER',),),);

TEST_RESU(CHAM_NO=(_F(CHAM_GD=EFF,
                      GROUP_NO='A1',
                      NOM_CMP='NXX',
                      VALE=8683.7248397450003,
                      PRECISION=1.1,
                      REFERENCE='AUTRE_ASTER',),
                   _F(CHAM_GD=EFF,
                      GROUP_NO='A1',
                      NOM_CMP='NYY',
                      VALE=-4106.9378125979001,
                      PRECISION=0.55,
                      REFERENCE='AUTRE_ASTER',),
                   _F(CHAM_GD=EFF,
                      GROUP_NO='A1',
                      NOM_CMP='NXY',
                      VALE=390.19096986845,
                      PRECISION=0.17000000000000001,
                      REFERENCE='AUTRE_ASTER',),
                   _F(CHAM_GD=EFF,
                      GROUP_NO='A1',
                      NOM_CMP='MXX',
                      VALE=3.4766348994371998E4,
                      PRECISION=0.02,
                      REFERENCE='AUTRE_ASTER',),
                   _F(CHAM_GD=EFF,
                      GROUP_NO='A1',
                      NOM_CMP='MYY',
                      VALE=1.5245193621124001E4,
                      PRECISION=0.050000000000000003,
                      REFERENCE='AUTRE_ASTER',),
                   _F(CHAM_GD=EFF,
                      GROUP_NO='A1',
                      NOM_CMP='MXY',
                      VALE=6344.8904522235998,
                      PRECISION=0.014999999999999999,
                      REFERENCE='AUTRE_ASTER',),
                   _F(CHAM_GD=EFF,
                      GROUP_NO='A1',
                      NOM_CMP='QX',
                      VALE=-1.7043983257067001E4,
                      PRECISION=0.089999999999999997,
                      REFERENCE='AUTRE_ASTER',),
                   _F(CHAM_GD=EFF,
                      GROUP_NO='A1',
                      NOM_CMP='QY',
                      VALE=-9828.1919152804003,
                      PRECISION=0.080000000000000001,
                      REFERENCE='AUTRE_ASTER',),),);

TEST_RESU(RESU=(_F(RESULTAT=MODES,
                   NUME_ORDRE=1,
                   PARA='FREQ',
                   VALE=1.4218999999999999,
                   CRITERE='RELATIF',
                   PRECISION=1.E-2,
                   REFERENCE='AUTRE_ASTER',),
                _F(RESULTAT=MODES,
                   NUME_ORDRE=2,
                   PARA='FREQ',
                   VALE=5.2995000000000001,
                   CRITERE='RELATIF',
                   PRECISION=0.017000000000000001,
                   REFERENCE='AUTRE_ASTER',),
                _F(RESULTAT=MODES,
                   NUME_ORDRE=3,
                   PARA='FREQ',
                   VALE=12.15,
                   CRITERE='RELATIF',
                   PRECISION=1.E-2,
                   REFERENCE='AUTRE_ASTER',),
                _F(RESULTAT=MODES,
                   NUME_ORDRE=4,
                   PARA='FREQ',
                   VALE=24.385000000000002,
                   CRITERE='RELATIF',
                   PRECISION=0.012999999999999999,
                   REFERENCE='AUTRE_ASTER',),),);

FIN();
