# MODIF  DATE 17/01/2012   AUTEUR SELLENET N.SELLENET 
# TITRE CYLINDRE MINCE SOUS CHARGE AXIALE UNIFORME (AXIS) -ancien SSLP07c
#            CONFIGURATION MANAGEMENT OF EDF VERSION
# ======================================================================
# COPYRIGHT (C) 1991 - 2012  EDF R&D                  WWW.CODE-ASTER.ORG
# THIS PROGRAM IS FREE SOFTWARE; YOU CAN REDISTRIBUTE IT AND/OR MODIFY  
# IT UNDER THE TERMS OF THE GNU GENERAL PUBLIC LICENSE AS PUBLISHED BY  
# THE FREE SOFTWARE FOUNDATION; EITHER VERSION 2 OF THE LICENSE, OR     
# (AT YOUR OPTION) ANY LATER VERSION.                                                    
#                                                                       
# THIS PROGRAM IS DISTRIBUTED IN THE HOPE THAT IT WILL BE USEFUL, BUT   
# WITHOUT ANY WARRANTY; WITHOUT EVEN THE IMPLIED WARRANTY OF            
# MERCHANTABILITY OR FITNESS FOR A PARTICULAR PURPOSE. SEE THE GNU      
# GENERAL PUBLIC LICENSE FOR MORE DETAILS.                              
#                                                                       
# YOU SHOULD HAVE RECEIVED A COPY OF THE GNU GENERAL PUBLIC LICENSE     
# ALONG WITH THIS PROGRAM; IF NOT, WRITE TO EDF R&D CODE_ASTER,         
#    1 AVENUE DU GENERAL DE GAULLE, 92141 CLAMART CEDEX, FRANCE.        
# ======================================================================
#
# RESPONSABLE  g8bhhxd X.DESROCHES

DEBUT( CODE=_F(  NOM = 'SSLS07B',NIV_PUB_WEB='INTERNET') )

MAIL=LIRE_MAILLAGE(FORMAT='MED',)

#
# DEFINITION DES GROUPES DE NOEUDS
MAIL=DEFI_GROUP( reuse=MAIL,   MAILLAGE=MAIL,CREA_GROUP_NO=(
                       _F(  GROUP_MA = 'APPUI'),
                       _F(  GROUP_MA = 'BORD_CH'),
                       _F(  GROUP_MA = 'LEF'))
                   )

#
# DEFINITION DU MODELE
MODELE=AFFE_MODELE(    MAILLAGE=MAIL,
                         AFFE=_F(  TOUT = 'OUI',
                       PHENOMENE = 'MECANIQUE',
                       MODELISATION = 'AXIS')  )

#
# DEFINITION DU MATERIAU
ACIER=DEFI_MATERIAU(    ELAS=_F(  E = 2.1E11,  NU = 0.3,
                                 ALPHA = 1.E-5,  RHO = 7800.)
                      )

#
# ATTRIBUTION DU MATERIAU
CHMAT=AFFE_MATERIAU(    MAILLAGE=MAIL,
                          AFFE=_F(  TOUT = 'OUI',
                                 MATER = ACIER)  )

#
# DEFINITION DES CONDITIONS AUX LIMITES ET CHARGEMENTS
CLIM=AFFE_CHAR_MECA(     MODELE=MODELE,
                           DDL_IMPO=_F(  GROUP_NO = 'APPUI',  DY = 0.)
                        )

#
F_X1=DEFI_FONCTION(    NOM_PARA='X',
                         VALE=( 0.99,  0.,    1.01,  500000., )
                     )

F_X2=DEFI_FONCTION(    NOM_PARA='X',
                         VALE=( 0.99,  500000.,    1.01,  0., )
                     )

CHARGT1=AFFE_CHAR_MECA_F(    MODELE=MODELE,
                             FORCE_CONTOUR=_F(  GROUP_MA = 'BORD_CH',
                                             FY = F_X1)
                          )

CHARGT2=AFFE_CHAR_MECA_F(    MODELE=MODELE,
                             FORCE_CONTOUR=_F(  GROUP_MA = 'BORD_CH',
                                             FY = F_X2)
                          )

#
# RESOLUTION
DEF1=MECA_STATIQUE(    MODELE=MODELE,
                        CHAM_MATER=CHMAT,EXCIT=(
                        _F(  CHARGE = CLIM),
                              _F(  CHARGE = CHARGT1))
                    )

DEF2=MECA_STATIQUE(    MODELE=MODELE,
                        CHAM_MATER=CHMAT,EXCIT=(
                        _F(  CHARGE = CLIM),
                              _F(  CHARGE = CHARGT2))
                    )

#
# RECUPERATION DU CHAMP DE DEPLACEMENTS
U1=CREA_CHAMP(  OPERATION='EXTR', TYPE_CHAM='NOEU_DEPL_R',
NOM_CHAM='DEPL', RESULTAT=DEF1,
                 NUME_ORDRE=1
                  )

#
U2=CREA_CHAMP(  OPERATION='EXTR', TYPE_CHAM='NOEU_DEPL_R',
NOM_CHAM='DEPL', RESULTAT=DEF2,
                 NUME_ORDRE=1
                  )

#
# TEST_RESU DEPLACEMENTS
#
TEST_RESU(CHAM_NO=(   _F(  CHAM_GD = U1,
                        NOEUD = 'N51',
                        NOM_CMP = 'DX',
                        REFERENCE='ANALYTIQUE',
                        VALE = -3.583E-7,
                        PRECISION = 0.001),
              _F(  CHAM_GD = U1,
                        NOEUD = 'N202',
                        NOM_CMP = 'DX',
                        REFERENCE='ANALYTIQUE',
                        VALE = -3.583E-7,
                        PRECISION = 0.001),
              _F(  CHAM_GD = U1,
                        NOEUD = 'N503',
                        NOM_CMP = 'DX',
                        REFERENCE='ANALYTIQUE',
                        VALE = -1.012E-6,
                        PRECISION = 0.001),
              _F(  CHAM_GD = U2,
                        NOEUD = 'N51',
                        NOM_CMP = 'DX',
                        REFERENCE='ANALYTIQUE',
                        VALE = -3.559E-7,
                        PRECISION = 0.001),
              _F(  CHAM_GD = U2,
                        NOEUD = 'N202',
                        NOM_CMP = 'DX',
                        REFERENCE='ANALYTIQUE',
                        VALE = -3.559E-7,
                        PRECISION = 0.001),
              _F(  CHAM_GD = U2,
                        NOEUD = 'N503',
                        NOM_CMP = 'DX',
                        REFERENCE='ANALYTIQUE',
                        VALE = 2.973E-7,
                        PRECISION = 0.001))
          )

#
TEST_RESU(CHAM_NO=(   _F(  CHAM_GD = U1,
                        NOEUD = 'N452',
                        NOM_CMP = 'DY',
                        REFERENCE='ANALYTIQUE',
                        VALE = 4.896E-6,
                        PRECISION = 0.001),
              _F(  CHAM_GD = U1,
                        NOEUD = 'N504',
                        NOM_CMP = 'DY',
                        REFERENCE='ANALYTIQUE',
                        VALE = 4.658E-6,
                        PRECISION = 0.001),
              _F(  CHAM_GD = U1,
                        NOEUD = 'N503',
                        NOM_CMP = 'DY',
                        REFERENCE='ANALYTIQUE',
                        VALE = 4.777E-6,
                        PRECISION = 0.001),
              _F(  CHAM_GD = U2,
                        NOEUD = 'N452',
                        NOM_CMP = 'DY',
                        REFERENCE='ANALYTIQUE',
                        VALE = 4.627E-6,
                        PRECISION = 0.001),
              _F(  CHAM_GD = U2,
                        NOEUD = 'N504',
                        NOM_CMP = 'DY',
                        REFERENCE='ANALYTIQUE',
                        VALE = 4.865E-6,
                        PRECISION = 0.001),
              _F(  CHAM_GD = U2,
                        NOEUD = 'N503',
                        NOM_CMP = 'DY',
                        REFERENCE='ANALYTIQUE',
                        VALE = 4.746E-6,
                        PRECISION = 0.001))
          )

#
FIN( )
#
#
