# person_in_charge: jean-michel.proix at edf.fr
# ======================================================================
# COPYRIGHT (C) 1991 - 2016  EDF R&D                  WWW.CODE-ASTER.ORG
# THIS PROGRAM IS FREE SOFTWARE; YOU CAN REDISTRIBUTE IT AND/OR MODIFY
# IT UNDER THE TERMS OF THE GNU GENERAL PUBLIC LICENSE AS PUBLISHED BY
# THE FREE SOFTWARE FOUNDATION; EITHER VERSION 2 OF THE LICENSE, OR
# (AT YOUR OPTION) ANY LATER VERSION.
#
# THIS PROGRAM IS DISTRIBUTED IN THE HOPE THAT IT WILL BE USEFUL, BUT
# WITHOUT ANY WARRANTY; WITHOUT EVEN THE IMPLIED WARRANTY OF
# MERCHANTABILITY OR FITNESS FOR A PARTICULAR PURPOSE. SEE THE GNU
# GENERAL PUBLIC LICENSE FOR MORE DETAILS.
#
# YOU SHOULD HAVE RECEIVED A COPY OF THE GNU GENERAL PUBLIC LICENSE
# ALONG WITH THIS PROGRAM; IF NOT, WRITE TO EDF R&D CODE_ASTER,
#    1 AVENUE DU GENERAL DE GAULLE, 92141 CLAMART CEDEX, FRANCE.
# ======================================================================
# ELEMENTS MEC3QU9H
#
#
#
DEBUT(CODE=_F(NIV_PUB_WEB='INTERNET'),DEBUG=_F(SDVERI='OUI'))

MAIL=LIRE_MAILLAGE(VERI_MAIL=_F(VERIF='OUI'),FORMAT='MED',);

MODMECA=AFFE_MODELE(MAILLAGE=MAIL,
                    AFFE=_F(TOUT='OUI',
                            PHENOMENE='MECANIQUE',
                            MODELISATION='AXIS',),);

MODI_MAILLAGE(reuse =MAIL,
                   MAILLAGE=MAIL,
                   ORIE_PEAU_2D=_F(GROUP_MA='LIGNEGAU',),
                   );

E  = 210000000000.0
Nu = 0.3


ACIER1=DEFI_MATERIAU( ELAS=_F( E  = E,
                               NU = Nu, ),);

EL=2.1E11
ET=4.E10
EN=2.1E11
GLT=0.45E10
GTN=0.45E10
GLN=0.35E10
NULT=0.075
NULN=0.075
NUTN=0.0142857143
ACIER2=DEFI_MATERIAU(   ELAS_ORTH=_F(  E_L   = EL,
                                       E_T   = ET,
                                       E_N   = EN,
                                       G_LT  = GLT,
                                       G_TN  = GTN,
                                       G_LN  = GLN,
                                       NU_LT = NULT,
                                       NU_LN = NULN,
                                       NU_TN = NUTN,
                                       )
                      )

CHMAT1=AFFE_MATERIAU(MAILLAGE=MAIL,
                    AFFE=_F(GROUP_MA='VIROLE',
                            MATER=ACIER1,),);
CHMAT2=AFFE_MATERIAU(MAILLAGE=MAIL,
                    AFFE=_F(GROUP_MA='VIROLE',
                            MATER=ACIER2,),);

CARAELE=AFFE_CARA_ELEM(MODELE=MODMECA,
                       MASSIF=_F(GROUP_MA='VIROLE',
                                ANGL_REP=(0.0),),);

BLOCAGE=AFFE_CHAR_MECA(MODELE=MODMECA,
                       DDL_IMPO=(_F(GROUP_NO='PM',
                                    DY=0.0,)
                                  ),)

PHYDR=DEFI_FONCTION(NOM_PARA='Y',
                    NOM_RESU='TOUTRESU',
                    VALE=(0.0,15000.0,16.0,0.0),);

PH=AFFE_CHAR_MECA_F(MODELE=MODMECA,
                    FORCE_CONTOUR=_F(GROUP_MA='LIGNEGAU',
                                   FX=PHYDR,),);

# CAS ISOTROPE : SOLUTION ANALYTIQUE EPAISSEUR 0.04


ELAS1=MECA_STATIQUE(MODELE=MODMECA,
                    CHAM_MATER=CHMAT1,
                    EXCIT=(_F(CHARGE=BLOCAGE,),
                           _F(CHARGE=PH,),),
                    );

CALC_CHAMP(reuse=ELAS1,RESULTAT=ELAS1,CONTRAINTE=('SIGM_ELNO'))


R = 5.7;

L = 16.0;

h = 0.04;

P = 15000.0;

DZMAX = (-Nu*P*R*L)/E/h/2.
DXMAX = P*R*R/E/h
SIG   = P*R/h


TEST_RESU(RESU=_F(NUME_ORDRE=1,
                  GROUP_NO='A3',
                  REFERENCE='ANALYTIQUE',
                  RESULTAT=ELAS1,
                  NOM_CHAM='DEPL',
                  NOM_CMP='DY',
                  VALE_CALC=-2.41851386E-05,
                  VALE_REFE=-2.4428571428571427E-05,
                  PRECISION=1.E-2,),
          )

TEST_RESU(RESU=_F(NUME_ORDRE=1,
                  GROUP_NO='A4',
                  REFERENCE='ANALYTIQUE',
                  RESULTAT=ELAS1,
                  NOM_CHAM='DEPL',
                  NOM_CMP='DY',
                  VALE_CALC=-2.43298257E-05,
                  VALE_REFE=-2.4428571428571427E-05,
                  PRECISION=1.E-2,),
          )

TEST_RESU(RESU=_F(NUME_ORDRE=1,
                  GROUP_NO='PM',
                  REFERENCE='ANALYTIQUE',
                  RESULTAT=ELAS1,
                  NOM_CHAM='DEPL',
                  NOM_CMP='DX',
                  VALE_CALC= 5.78746786E-05,
                  VALE_REFE=5.8017857142857143E-05,
                  PRECISION=1.E-2,),
          )

TEST_RESU(RESU=_F(NUME_ORDRE=1,
                  GROUP_NO='PM',
                  REFERENCE='ANALYTIQUE',
                  RESULTAT=ELAS1,
                  NOM_CHAM='SIGM_ELNO',
                  NOM_CMP='SIZZ',
                  VALE_CALC= 2.12998155E+06,
                  VALE_REFE=2.137500E6,
                  PRECISION=1.E-2,
                  MAILLE='M2',),
          )

# CAS ORTHOTROPE : SOLUTION ANALYTIQUE

Nuthetaz=NUTN*EN/ET
Etheta=EN
Er=EL
DZMAX2 = (-(Nuthetaz)*P*R*L)/Etheta/h/2.
DXMAX2  = P*R**2/(h*Er)

ELAS2=MECA_STATIQUE(MODELE=MODMECA,
                    CHAM_MATER=CHMAT2,
                    CARA_ELEM=CARAELE,
                    EXCIT=(_F(CHARGE=BLOCAGE,),
                           _F(CHARGE=PH,),),);

CALC_CHAMP(reuse=ELAS2,RESULTAT=ELAS2,CONTRAINTE=('SIGM_ELNO'))


TEST_RESU(RESU=_F(NUME_ORDRE=1,
                  GROUP_NO='A3',
                  REFERENCE='ANALYTIQUE',
                  RESULTAT=ELAS2,
                  NOM_CHAM='DEPL',
                  NOM_CMP='DY',
                  VALE_CALC=-5.99208432E-06,
                  VALE_REFE=-6.1071428632500006E-06,
                  PRECISION=0.02,),
          )

TEST_RESU(RESU=_F(NUME_ORDRE=1,
                  GROUP_NO='A4',
                  REFERENCE='ANALYTIQUE',
                  RESULTAT=ELAS2,
                  NOM_CHAM='DEPL',
                  NOM_CMP='DY',
                  VALE_CALC=-6.13665743E-06,
                  VALE_REFE=-6.1071428632500006E-06,
                  PRECISION=1.E-2,),
          )

TEST_RESU(RESU=_F(NUME_ORDRE=1,
                  GROUP_NO='PM',
                  REFERENCE='ANALYTIQUE',
                  RESULTAT=ELAS2,
                  NOM_CHAM='DEPL',
                  NOM_CMP='DX',
                  VALE_CALC= 5.78291161E-05,
                  VALE_REFE=5.8017857142857149E-05,
                  PRECISION=1.E-2,),
          )

TEST_RESU(RESU=_F(NUME_ORDRE=1,
                  GROUP_NO='PM',
                  REFERENCE='ANALYTIQUE',
                  RESULTAT=ELAS2,
                  NOM_CHAM='SIGM_ELNO',
                  NOM_CMP='SIZZ',
                  VALE_CALC= 2.12998101E+06,
                  VALE_REFE=2.137500E6,
                  PRECISION=1.E-2,
                  MAILLE='M2',),
          )

LIST=DEFI_LIST_REEL(DEBUT=0.0,
                    INTERVALLE=_F(JUSQU_A=1.0,
                                  NOMBRE=1,),);

ELAS3=STAT_NON_LINE(MODELE=MODMECA,
                    CHAM_MATER=CHMAT2,
                    CARA_ELEM=CARAELE,
                    COMPORTEMENT=_F(RELATION='ELAS'),
                    INCREMENT=_F(LIST_INST=LIST,),
                    EXCIT=(_F(CHARGE=BLOCAGE,),
                           _F(CHARGE=PH,),),);

CALC_CHAMP(reuse=ELAS3,RESULTAT=ELAS3,CONTRAINTE=('SIGM_ELNO'))



TEST_RESU(RESU=_F(NUME_ORDRE=1,
                  GROUP_NO='A3',
                  REFERENCE='ANALYTIQUE',
                  RESULTAT=ELAS3,
                  NOM_CHAM='DEPL',
                  NOM_CMP='DY',
                  VALE_CALC=-5.99208432E-06,
                  VALE_REFE=-6.1071428632500006E-06,
                  PRECISION=0.02,),
          )

TEST_RESU(RESU=_F(NUME_ORDRE=1,
                  GROUP_NO='A4',
                  REFERENCE='ANALYTIQUE',
                  RESULTAT=ELAS3,
                  NOM_CHAM='DEPL',
                  NOM_CMP='DY',
                  VALE_CALC=-6.13665743E-06,
                  VALE_REFE=-6.1071428632500006E-06,
                  PRECISION=1.E-2,),
          )

TEST_RESU(RESU=_F(NUME_ORDRE=1,
                  GROUP_NO='PM',
                  REFERENCE='ANALYTIQUE',
                  RESULTAT=ELAS3,
                  NOM_CHAM='DEPL',
                  NOM_CMP='DX',
                  VALE_CALC= 5.78291161E-05,
                  VALE_REFE=5.8017857142857149E-05,
                  PRECISION=1.E-2,),
          )

TEST_RESU(RESU=_F(NUME_ORDRE=1,
                  GROUP_NO='PM',
                  REFERENCE='ANALYTIQUE',
                  RESULTAT=ELAS3,
                  NOM_CHAM='SIGM_ELNO',
                  NOM_CMP='SIZZ',
                  VALE_CALC= 2.12998101E+06,
                  VALE_REFE=2.137500E6,
                  PRECISION=1.E-2,
                  MAILLE='M2',),
          )

FIN();
