
# MODIF  DATE 10/10/2012   AUTEUR COURTOIS M.COURTOIS 
# TITRE PLAQUE CIRCULAIRE ENCASTREE SOUS PRESSION DSQ  169 N - 147 QUAD4
# ssls100g.para = tps_job 60 mem_job 512Mo ncpus 1 liste_test S
#            CONFIGURATION MANAGEMENT OF EDF VERSION
# ======================================================================
# COPYRIGHT (C) 1991 - 2012  EDF R&D                  WWW.CODE-ASTER.ORG
# THIS PROGRAM IS FREE SOFTWARE; YOU CAN REDISTRIBUTE IT AND/OR MODIFY
# IT UNDER THE TERMS OF THE GNU GENERAL PUBLIC LICENSE AS PUBLISHED BY
# THE FREE SOFTWARE FOUNDATION; EITHER VERSION 2 OF THE LICENSE, OR
# (AT YOUR OPTION) ANY LATER VERSION.
#
# THIS PROGRAM IS DISTRIBUTED IN THE HOPE THAT IT WILL BE USEFUL, BUT
# WITHOUT ANY WARRANTY; WITHOUT EVEN THE IMPLIED WARRANTY OF
# MERCHANTABILITY OR FITNESS FOR A PARTICULAR PURPOSE. SEE THE GNU
# GENERAL PUBLIC LICENSE FOR MORE DETAILS.
#
# YOU SHOULD HAVE RECEIVED A COPY OF THE GNU GENERAL PUBLIC LICENSE
# ALONG WITH THIS PROGRAM; IF NOT, WRITE TO EDF R&D CODE_ASTER,
#    1 AVENUE DU GENERAL DE GAULLE, 92141 CLAMART CEDEX, FRANCE.
# ======================================================================

DEBUT(CODE=_F(NOM='SSLS100G',NIV_PUB_WEB='INTERNET'),DEBUG=_F(SDVERI='OUI'))
#----------------------------------------------------------------------
# POINTS: 0=N1   MAILLES  M1
#         A=N169          M147
#         B=N120          M98   M111
#         C=N15           M14
#         D=N106          M85   M99
#         E=N8            M7    M8
#         F=N113          M91   M92    M105
#----------------------------------------------------------------------

MATER=DEFI_MATERIAU(ELAS=_F(E=1.0,
                            NU=0.3,
                            RHO=1.0,),);

MAILL=LIRE_MAILLAGE(FORMAT='MED',);

MAILL=DEFI_GROUP(reuse =MAILL,
                 MAILLAGE=MAILL,
                 CREA_GROUP_MA=_F(NOM='TOUT',
                                  TOUT='OUI',),);

CHMAT=AFFE_MATERIAU(MAILLAGE=MAILL,
                    AFFE=_F(TOUT='OUI',
                            MATER=MATER,),);

MODEL=AFFE_MODELE(MAILLAGE=MAILL,
                  VERIF='MAILLE',
                  AFFE=_F(TOUT='OUI',
                          PHENOMENE='MECANIQUE',
                          MODELISATION='DST',),);

CINE=AFFE_CHAR_MECA(MODELE=MODEL,
                    DDL_IMPO=(_F(GROUP_NO='GRNO_ABC',
                                 DX=0.0,
                                 DY=0.0,
                                 DZ=0.0,
                                 DRX=0.0,
                                 DRY=0.0,
                                 DRZ=0.0,),
                              _F(GROUP_NO='GRNO_OA',
                                 DY=0.0,
                                 DRX=0.0,
                                 DRZ=0.0,),
                              _F(GROUP_NO='GRNO_OC',
                                 DX=0.0,
                                 DRY=0.0,
                                 DRZ=0.0,),
                              _F(NOEUD='O',
                                 DX=0.0,
                                 DY=0.0,
                                 DRX=0.0,
                                 DRY=0.0,
                                 DRZ=0.0,),),);

PRES=AFFE_CHAR_MECA(MODELE=MODEL,
                    FORCE_COQUE=_F(TOUT='OUI',
                                   PRES=1.0,),);

CHF3=AFFE_CHAR_MECA(MODELE=MODEL,
                    FORCE_COQUE=_F(TOUT='OUI',
                                   F3=-1.0,),);

CHPE=AFFE_CHAR_MECA(MODELE=MODEL,
                    PESANTEUR=_F(GRAVITE=10.0,
                               DIRECTION=(0.0,0.0,-1.0,),),);

CARELEM=AFFE_CARA_ELEM(MODELE=MODEL,
                       COQUE=_F(GROUP_MA='TOUT',
                                EPAIS=0.1,),);

DEP=MACRO_ELAS_MULT(MODELE=MODEL,
                    CHAM_MATER=CHMAT,
                    CARA_ELEM=CARELEM,
                    CHAR_MECA_GLOBAL=CINE,
                    CAS_CHARGE=(_F(NOM_CAS='CHARGE1',
                                   CHAR_MECA=PRES,),
                                _F(NOM_CAS='CHARGE2',
                                   CHAR_MECA=CHF3,),
                                _F(NOM_CAS='CHARGE3',
                                   CHAR_MECA=CHPE,),),);
#--------------------------------------------------------------------

TEST_RESU(RESU=(_F(NUME_ORDRE=1,
                   REFERENCE='ANALYTIQUE',
                   RESULTAT=DEP,
                   NOM_CHAM='DEPL',
                   NOEUD='O',
                   NOM_CMP='DZ',
                   VALE_CALC=-178.754219467,
                   VALE_REFE=-178.41900000000001,
                   CRITERE='RELATIF',
                   PRECISION=3.0000000000000001E-3,),
                _F(NUME_ORDRE=1,
                   REFERENCE='ANALYTIQUE',
                   RESULTAT=DEP,
                   NOM_CHAM='DEPL',
                   NOEUD='A',
                   NOM_CMP='DZ',
                   VALE_CALC=-8.5001450323E-17,
                   VALE_REFE=0.0,
                   TOLE_MACHINE=1.E-10,
                   CRITERE='ABSOLU',
                   PRECISION=1.E-10,),
                _F(NUME_ORDRE=1,
                   REFERENCE='ANALYTIQUE',
                   RESULTAT=DEP,
                   NOM_CHAM='DEPL',
                   NOEUD='B',
                   NOM_CMP='DZ',
                   VALE_CALC= 1.0408340856E-16,
                   VALE_REFE=0.0,
                   TOLE_MACHINE=1.E-10,
                   CRITERE='ABSOLU',
                   PRECISION=1.E-10,),
                _F(NUME_ORDRE=1,
                   REFERENCE='ANALYTIQUE',
                   RESULTAT=DEP,
                   NOM_CHAM='DEPL',
                   NOEUD='C',
                   NOM_CMP='DZ',
                   VALE_CALC=-1.2663481375E-16,
                   VALE_REFE=0.0,
                   TOLE_MACHINE=1.E-10,
                   CRITERE='ABSOLU',
                   PRECISION=1.E-10,),
                _F(NUME_ORDRE=1,
                   REFERENCE='ANALYTIQUE',
                   RESULTAT=DEP,
                   NOM_CHAM='DEPL',
                   NOEUD='D',
                   NOM_CMP='DZ',
                   VALE_CALC=-102.015034015,
                   VALE_REFE=-101.81999999999999,
                   CRITERE='RELATIF',
                   PRECISION=3.0000000000000001E-3,),
                _F(NUME_ORDRE=1,
                   REFERENCE='ANALYTIQUE',
                   RESULTAT=DEP,
                   NOM_CHAM='DEPL',
                   NOEUD='E',
                   NOM_CMP='DZ',
                   VALE_CALC=-102.014468370,
                   VALE_REFE=-101.81999999999999,
                   CRITERE='RELATIF',
                   PRECISION=3.0000000000000001E-3,),
                _F(NUME_ORDRE=1,
                   REFERENCE='ANALYTIQUE',
                   RESULTAT=DEP,
                   NOM_CHAM='DEPL',
                   NOEUD='F',
                   NOM_CMP='DZ',
                   VALE_CALC=-84.317787324,
                   VALE_REFE=-84.197999999999993,
                   CRITERE='RELATIF',
                   PRECISION=3.0000000000000001E-3,),
                _F(NUME_ORDRE=2,
                   REFERENCE='ANALYTIQUE',
                   RESULTAT=DEP,
                   NOM_CHAM='DEPL',
                   NOEUD='O',
                   NOM_CMP='DZ',
                   VALE_CALC=-178.754219467,
                   VALE_REFE=-178.41900000000001,
                   CRITERE='RELATIF',
                   PRECISION=3.0000000000000001E-3,),
                _F(NUME_ORDRE=2,
                   REFERENCE='ANALYTIQUE',
                   RESULTAT=DEP,
                   NOM_CHAM='DEPL',
                   NOEUD='A',
                   NOM_CMP='DZ',
                   VALE_CALC=-8.5001450323E-17,
                   VALE_REFE=0.0,
                   TOLE_MACHINE=1.E-10,
                   CRITERE='ABSOLU',
                   PRECISION=1.E-10,),
                _F(NUME_ORDRE=2,
                   REFERENCE='ANALYTIQUE',
                   RESULTAT=DEP,
                   NOM_CHAM='DEPL',
                   NOEUD='B',
                   NOM_CMP='DZ',
                   VALE_CALC= 1.0408340856E-16,
                   VALE_REFE=0.0,
                   TOLE_MACHINE=1.E-10,
                   CRITERE='ABSOLU',
                   PRECISION=1.E-10,),
                _F(NUME_ORDRE=2,
                   REFERENCE='ANALYTIQUE',
                   RESULTAT=DEP,
                   NOM_CHAM='DEPL',
                   NOEUD='C',
                   NOM_CMP='DZ',
                   VALE_CALC=-1.2663481375E-16,
                   VALE_REFE=0.0,
                   TOLE_MACHINE=1.E-10,
                   CRITERE='ABSOLU',
                   PRECISION=1.E-10,),
                _F(NUME_ORDRE=2,
                   REFERENCE='ANALYTIQUE',
                   RESULTAT=DEP,
                   NOM_CHAM='DEPL',
                   NOEUD='D',
                   NOM_CMP='DZ',
                   VALE_CALC=-102.015034015,
                   VALE_REFE=-101.81999999999999,
                   CRITERE='RELATIF',
                   PRECISION=3.0000000000000001E-3,),
                _F(NUME_ORDRE=2,
                   REFERENCE='ANALYTIQUE',
                   RESULTAT=DEP,
                   NOM_CHAM='DEPL',
                   NOEUD='E',
                   NOM_CMP='DZ',
                   VALE_CALC=-102.014468370,
                   VALE_REFE=-101.81999999999999,
                   CRITERE='RELATIF',
                   PRECISION=3.0000000000000001E-3,),
                _F(NUME_ORDRE=2,
                   REFERENCE='ANALYTIQUE',
                   RESULTAT=DEP,
                   NOM_CHAM='DEPL',
                   NOEUD='F',
                   NOM_CMP='DZ',
                   VALE_CALC=-84.317787324,
                   VALE_REFE=-84.197999999999993,
                   CRITERE='RELATIF',
                   PRECISION=3.0000000000000001E-3,),
                _F(NUME_ORDRE=3,
                   REFERENCE='ANALYTIQUE',
                   RESULTAT=DEP,
                   NOM_CHAM='DEPL',
                   NOEUD='O',
                   NOM_CMP='DZ',
                   VALE_CALC=-178.754219467,
                   VALE_REFE=-178.41900000000001,
                   CRITERE='RELATIF',
                   PRECISION=3.0000000000000001E-3,),
                _F(NUME_ORDRE=3,
                   REFERENCE='ANALYTIQUE',
                   RESULTAT=DEP,
                   NOM_CHAM='DEPL',
                   NOEUD='A',
                   NOM_CMP='DZ',
                   VALE_CALC=-8.5001450323E-17,
                   VALE_REFE=0.0,
                   TOLE_MACHINE=1.E-10,
                   CRITERE='ABSOLU',
                   PRECISION=1.E-10,),
                _F(NUME_ORDRE=3,
                   REFERENCE='ANALYTIQUE',
                   RESULTAT=DEP,
                   NOM_CHAM='DEPL',
                   NOEUD='B',
                   NOM_CMP='DZ',
                   VALE_CALC= 1.0408340856E-16,
                   VALE_REFE=0.0,
                   TOLE_MACHINE=1.E-10,
                   CRITERE='ABSOLU',
                   PRECISION=1.E-10,),
                _F(NUME_ORDRE=3,
                   REFERENCE='ANALYTIQUE',
                   RESULTAT=DEP,
                   NOM_CHAM='DEPL',
                   NOEUD='C',
                   NOM_CMP='DZ',
                   VALE_CALC=-1.2663481375E-16,
                   VALE_REFE=0.0,
                   TOLE_MACHINE=1.E-10,
                   CRITERE='ABSOLU',
                   PRECISION=1.E-10,),
                _F(NUME_ORDRE=3,
                   REFERENCE='ANALYTIQUE',
                   RESULTAT=DEP,
                   NOM_CHAM='DEPL',
                   NOEUD='D',
                   NOM_CMP='DZ',
                   VALE_CALC=-102.015034015,
                   VALE_REFE=-101.81999999999999,
                   CRITERE='RELATIF',
                   PRECISION=3.0000000000000001E-3,),
                _F(NUME_ORDRE=3,
                   REFERENCE='ANALYTIQUE',
                   RESULTAT=DEP,
                   NOM_CHAM='DEPL',
                   NOEUD='E',
                   NOM_CMP='DZ',
                   VALE_CALC=-102.014468370,
                   VALE_REFE=-101.81999999999999,
                   CRITERE='RELATIF',
                   PRECISION=3.0000000000000001E-3,),
                _F(NUME_ORDRE=3,
                   REFERENCE='ANALYTIQUE',
                   RESULTAT=DEP,
                   NOM_CHAM='DEPL',
                   NOEUD='F',
                   NOM_CMP='DZ',
                   VALE_CALC=-84.317787324,
                   VALE_REFE=-84.197999999999993,
                   CRITERE='RELATIF',
                   PRECISION=3.0000000000000001E-3,),
                ),
          )

#--------------------------------------------------------------------

DEP=CALC_CHAMP(reuse=DEP,RESULTAT=DEP,NUME_ORDRE=1,CONTRAINTE=('EFGE_ELNO'))

#--------------------------------------------------------------------

RELEVE_1=POST_RELEVE_T(ACTION=_F(INTITULE='EFGE_R',
                                 NOEUD=('O','A','B','C','D','E','F',),
                                 RESULTAT=DEP,
                                 NOM_CHAM='EFGE_ELNO',
                                 NUME_ORDRE=1,
                                 NOM_CMP=('MXX','MYY',),
                                 OPERATION='EXTRACTION',),);

TEST_TABLE(REFERENCE='ANALYTIQUE',
           PRECISION=5.0000000000000001E-3,
           VALE_CALC=-0.080983876,
           VALE_REFE=-0.081250000000000003,
           NOM_PARA='MXX',
           TABLE=RELEVE_1,
           FILTRE=_F(NOM_PARA='NOEUD',
                     VALE_K='O',),
           )

TEST_TABLE(REFERENCE='ANALYTIQUE',
           PRECISION=5.0000000000000001E-3,
           VALE_CALC=-0.080984569,
           VALE_REFE=-0.081250000000000003,
           NOM_PARA='MYY',
           TABLE=RELEVE_1,
           FILTRE=_F(NOM_PARA='NOEUD',
                     VALE_K='O',),
           )

TEST_TABLE(REFERENCE='ANALYTIQUE',
           PRECISION=0.02,
           VALE_CALC=0.127299775,
           VALE_REFE=0.125,
           NOM_PARA='MXX',
           TABLE=RELEVE_1,
           FILTRE=_F(NOM_PARA='NOEUD',
                     VALE_K='A',),
           )

TEST_TABLE(REFERENCE='ANALYTIQUE',
           PRECISION=0.11,
           VALE_CALC=0.041365997,
           VALE_REFE=0.037499999999999999,
           NOM_PARA='MYY',
           TABLE=RELEVE_1,
           FILTRE=_F(NOM_PARA='NOEUD',
                     VALE_K='A',),
           )

TEST_TABLE(REFERENCE='ANALYTIQUE',
           PRECISION=0.02,
           VALE_CALC=0.082615334,
           VALE_REFE=0.081250000000000003,
           NOM_PARA='MXX',
           TABLE=RELEVE_1,
           FILTRE=_F(NOM_PARA='NOEUD',
                     VALE_K='B',),
           )

TEST_TABLE(REFERENCE='ANALYTIQUE',
           PRECISION=0.02,
           VALE_CALC=0.082621094,
           VALE_REFE=0.081250000000000003,
           NOM_PARA='MYY',
           TABLE=RELEVE_1,
           FILTRE=_F(NOM_PARA='NOEUD',
                     VALE_K='B',),
           )

TEST_TABLE(REFERENCE='ANALYTIQUE',
           PRECISION=0.10000000000000001,
           VALE_CALC=0.041138689,
           VALE_REFE=0.037499999999999999,
           NOM_PARA='MXX',
           TABLE=RELEVE_1,
           FILTRE=_F(NOM_PARA='NOEUD',
                     VALE_K='C',),
           )

TEST_TABLE(REFERENCE='ANALYTIQUE',
           PRECISION=0.02,
           VALE_CALC=0.127270634,
           VALE_REFE=0.125,
           NOM_PARA='MYY',
           TABLE=RELEVE_1,
           FILTRE=_F(NOM_PARA='NOEUD',
                     VALE_K='C',),
           )

TEST_TABLE(REFERENCE='ANALYTIQUE',
           PRECISION=0.025000000000000001,
           VALE_CALC=-0.030297869,
           VALE_REFE=-0.029690000000000001,
           NOM_PARA='MXX',
           TABLE=RELEVE_1,
           FILTRE=_F(NOM_PARA='NOEUD',
                     VALE_K='D',),
           )

TEST_TABLE(REFERENCE='ANALYTIQUE',
           PRECISION=0.014999999999999999,
           VALE_CALC=-0.052171675,
           VALE_REFE=-0.051560000000000002,
           NOM_PARA='MYY',
           TABLE=RELEVE_1,
           FILTRE=_F(NOM_PARA='NOEUD',
                     VALE_K='D',),
           )

TEST_TABLE(REFERENCE='ANALYTIQUE',
           PRECISION=0.014999999999999999,
           VALE_CALC=-0.052171204,
           VALE_REFE=-0.051560000000000002,
           NOM_PARA='MXX',
           TABLE=RELEVE_1,
           FILTRE=_F(NOM_PARA='NOEUD',
                     VALE_K='E',),
           )

TEST_TABLE(REFERENCE='ANALYTIQUE',
           PRECISION=0.025000000000000001,
           VALE_CALC=-0.030296351,
           VALE_REFE=-0.029690000000000001,
           NOM_PARA='MYY',
           TABLE=RELEVE_1,
           FILTRE=_F(NOM_PARA='NOEUD',
                     VALE_K='E',),
           )

TEST_TABLE(REFERENCE='ANALYTIQUE',
           PRECISION=0.17999999999999999,
           VALE_CALC=-0.034488771,
           VALE_REFE=-0.029250000000000002,
           NOM_PARA='MXX',
           TABLE=RELEVE_1,
           FILTRE=_F(NOM_PARA='NOEUD',
                     VALE_K='F',),
           )

TEST_TABLE(REFERENCE='ANALYTIQUE',
           PRECISION=0.17999999999999999,
           VALE_CALC=-0.034438040,
           VALE_REFE=-0.029250000000000002,
           NOM_PARA='MYY',
           TABLE=RELEVE_1,
           FILTRE=_F(NOM_PARA='NOEUD',
                     VALE_K='F',),
           )

#--------------------------------------------------------------------

FIN();
#
