# MODIF  DATE 30/08/2011   AUTEUR PELLET J.PELLET 
# TITRE  PLAQUE CARREE TOURNEE EN APPUI SIMPLE SOUS PRESSION SINUSOIDALE
# ssls118g.para = tps_job 60 mem_job 300Mo ncpus 1 liste_test R
#            CONFIGURATION MANAGEMENT OF EDF VERSION
# ======================================================================
# COPYRIGHT (C) 1991 - 2011  EDF R&D                  WWW.CODE-ASTER.ORG
# THIS PROGRAM IS FREE SOFTWARE; YOU CAN REDISTRIBUTE IT AND/OR MODIFY
# IT UNDER THE TERMS OF THE GNU GENERAL PUBLIC LICENSE AS PUBLISHED BY
# THE FREE SOFTWARE FOUNDATION; EITHER VERSION 2 OF THE LICENSE, OR
# (AT YOUR OPTION) ANY LATER VERSION.
#
# THIS PROGRAM IS DISTRIBUTED IN THE HOPE THAT IT WILL BE USEFUL, BUT
# WITHOUT ANY WARRANTY; WITHOUT EVEN THE IMPLIED WARRANTY OF
# MERCHANTABILITY OR FITNESS FOR A PARTICULAR PURPOSE. SEE THE GNU
# GENERAL PUBLIC LICENSE FOR MORE DETAILS.
#
# YOU SHOULD HAVE RECEIVED A COPY OF THE GNU GENERAL PUBLIC LICENSE
# ALONG WITH THIS PROGRAM; IF NOT, WRITE TO EDF R&D CODE_ASTER,
#    1 AVENUE DU GENERAL DE GAULLE, 92141 CLAMART CEDEX, FRANCE.
# ======================================================================
#---------------------------------------------------------------------
#         - MODELISATION AVEC DES ELEMENTS 'DST'(TRI3)
#---------------------------------------------------------------------

DEBUT(CODE=_F(NOM='SSLS118G', NIV_PUB_WEB='INTERNET'), DEBUG=_F(SDVERI='OUI'))

PRE_GIBI();

MA=LIRE_MAILLAGE(VERI_MAIL=_F(VERIF='OUI',),);

MA=DEFI_GROUP(reuse =MA,
              MAILLAGE=MA,
              CREA_GROUP_MA=_F(NOM='TOUT',
                               TOUT='OUI',),
              CREA_GROUP_NO=(_F(GROUP_MA='AB',),
                             _F(GROUP_MA='BC',),
                             _F(GROUP_MA='CD',),
                             _F(GROUP_MA='DA',),),);

MO=AFFE_MODELE(MAILLAGE=MA,
               AFFE=_F(TOUT='OUI',
                       PHENOMENE='MECANIQUE',
                       MODELISATION='DST',),);

MA=MODI_MAILLAGE(reuse =MA,
                 MAILLAGE=MA,
                 ORIE_NORM_COQUE=_F(GROUP_MA='MAIL1',
                                    VECT_NORM=(0.0,0.0,1.0,),
                                    GROUP_NO='O',),
                 INFO=2,);

CAR_ELE=AFFE_CARA_ELEM(MODELE=MO,
                       COQUE=_F(GROUP_MA='TOUT', EPAIS=0.1, ANGL_REP=(20.0,-30.0,),),);

MAT=DEFI_MATERIAU(ELAS=_F(E=25.0,
                          NU=0.25,),);

CHAM_MAT=AFFE_MATERIAU(MAILLAGE=MA,
                       AFFE=_F(TOUT='OUI',
                               MATER=MAT,),);
PO = 1.0;


P = FORMULE(NOM_PARA=('X','Y','Z'),VALE='''
                    PO*sin(pi*(cos(3*pi/18.)*cos(pi/9.)*X+sin(pi/9.)*cos(3*pi/18.)*Y-
sin(3*pi/18.)*Z))*sin(pi*( -sin(pi/9.)*X + cos(pi/9.)*Y))''');

CHA=AFFE_CHAR_MECA(MODELE=MO,
                   LIAISON_OBLIQUE=(_F(GROUP_NO='O',
                                       ANGL_NAUT=(20.0,30.0,0.0,),
                                       DX=0.0,),
                                    _F(GROUP_NO='O',
                                       ANGL_NAUT=(20.0,30.0,0.0,),
                                       DY=0.0,),
                                    _F(GROUP_NO='O',
                                       ANGL_NAUT=(20.0,30.0,0.0,),
                                       DRZ=0.0,),
                                    _F(GROUP_NO='O',
                                       ANGL_NAUT=(20.0,30.0,0.0,),
                                       DRX=0.0,),
                                    _F(GROUP_NO='O',
                                       ANGL_NAUT=(20.0,30.0,0.0,),
                                       DRY=0.0,),
                                    _F(GROUP_NO='AB',
                                       ANGL_NAUT=(20.0,30.0,0.0,),
                                       DZ=0.0,),
                                    _F(GROUP_NO='AB',
                                       ANGL_NAUT=(20.0,30.0,0.0,),
                                       DX=0.0,),
                                    _F(GROUP_NO='AB',
                                       ANGL_NAUT=(20.0,30.0,0.0,),
                                       DRY=0.0,),
                                    _F(GROUP_NO='BC',
                                       ANGL_NAUT=(20.0,30.0,0.0,),
                                       DZ=0.0,),
                                    _F(GROUP_NO='BC',
                                       ANGL_NAUT=(20.0,30.0,0.0,),
                                       DY=0.0,),
                                    _F(GROUP_NO='BC',
                                       ANGL_NAUT=(20.0,30.0,0.0,),
                                       DRX=0.0,),
                                    _F(GROUP_NO='CD',
                                       ANGL_NAUT=(20.0,30.0,0.0,),
                                       DZ=0.0,),
                                    _F(GROUP_NO='CD',
                                       ANGL_NAUT=(20.0,30.0,0.0,),
                                       DX=0.0,),
                                    _F(GROUP_NO='CD',
                                       ANGL_NAUT=(20.0,30.0,0.0,),
                                       DRY=0.0,),
                                    _F(GROUP_NO='DA',
                                       ANGL_NAUT=(20.0,30.0,0.0,),
                                       DRX=0.0,),
                                    _F(GROUP_NO='DA',
                                       ANGL_NAUT=(20.0,30.0,0.0,),
                                       DZ=0.0,),
                                    _F(GROUP_NO='DA',
                                       ANGL_NAUT=(20.0,30.0,0.0,),
                                       DY=0.0,),),
                   FORCE_ARETE=(_F(GROUP_MA='AB',
                                   MY=0.0,),
                                _F(GROUP_MA='CD',
                                   MY=0.0,),
                                _F(GROUP_MA='BC',
                                   MX=0.0,),
                                _F(GROUP_MA='DA',
                                   MX=0.0,),),);

CHA_P=AFFE_CHAR_MECA_F(MODELE=MO,
                       FORCE_COQUE=_F(TOUT='OUI',
                                      PRES=P,),);

RESU=MECA_STATIQUE(MODELE=MO,
                   CHAM_MATER=CHAM_MAT,
                   CARA_ELEM=CAR_ELE,
                   EXCIT=(_F(CHARGE=CHA,),
                          _F(CHARGE=CHA_P,),),);

SIG_C1_S=CALC_ELEM(RESULTAT=RESU,
                   OPTION='SIGM_ELNO',
                   REPE_COQUE =_F( NUME_COUCHE=1, NIVE_COUCHE='SUP', ),);

SIG_C1_M=CALC_ELEM(RESULTAT=RESU,
                   OPTION='SIGM_ELNO',
                   REPE_COQUE =_F( NUME_COUCHE=1, NIVE_COUCHE='MOY', ),);

SIG_C1_I=CALC_ELEM(RESULTAT=RESU,
                   OPTION='SIGM_ELNO',
                   REPE_COQUE =_F( NUME_COUCHE=1, NIVE_COUCHE='INF', ),);

EFF=CALC_ELEM(RESULTAT=RESU,
              OPTION='EFGE_ELNO',
              REPE_COQUE =_F( PLAN='MOY', ),);

TEST_RESU(RESU=(_F(RESULTAT=RESU,
                   NUME_ORDRE=1,
                   NOM_CHAM='DEPL',
                   NOM_CMP='DZ',
                   GROUP_NO='O',
                   VALE=-1.0002,
                   PRECISION=0.06,
                   REFERENCE='ANALYTIQUE',),
                _F(RESULTAT=SIG_C1_I,
                   NUME_ORDRE=1,
                   NOM_CHAM='SIGM_ELNO',
                   NOM_CMP='SIXX',
                   MAILLE='M134',
                   GROUP_NO='O',
                   VALE=18.99,
                   PRECISION=0.02,
                   REFERENCE='ANALYTIQUE',),
                _F(RESULTAT=SIG_C1_I,
                   NUME_ORDRE=1,
                   NOM_CHAM='SIGM_ELNO',
                   NOM_CMP='SIYY',
                   MAILLE='M134',
                   GROUP_NO='O',
                   VALE=18.99,
                   PRECISION=0.02,
                   REFERENCE='ANALYTIQUE',),
                _F(RESULTAT=SIG_C1_I,
                   NUME_ORDRE=1,
                   NOM_CHAM='SIGM_ELNO',
                   NOM_CMP='SIXY',
                   MAILLE='M134',
                   GROUP_NO='O',
                   VALE=0.0,
                   CRITERE='ABSOLU',
                   PRECISION=0.01,
                   REFERENCE='ANALYTIQUE',),
                _F(RESULTAT=SIG_C1_I,
                   NUME_ORDRE=1,
                   NOM_CHAM='SIGM_ELNO',
                   NOM_CMP='SIXZ',
                   MAILLE='M134',
                   GROUP_NO='O',
                   VALE=0.0,
                   CRITERE='ABSOLU',
                   PRECISION=0.01,
                   REFERENCE='ANALYTIQUE',),
                _F(RESULTAT=SIG_C1_I,
                   NUME_ORDRE=1,
                   NOM_CHAM='SIGM_ELNO',
                   NOM_CMP='SIYZ',
                   MAILLE='M134',
                   GROUP_NO='O',
                   VALE=0.0,
                   CRITERE='ABSOLU',
                   PRECISION=0.01,
                   REFERENCE='ANALYTIQUE',),
                _F(RESULTAT=SIG_C1_M,
                   NUME_ORDRE=1,
                   NOM_CHAM='SIGM_ELNO',
                   NOM_CMP='SIXX',
                   MAILLE='M134',
                   GROUP_NO='O',
                   VALE=0.0,
                   CRITERE='ABSOLU',
                   PRECISION=0.01,
                   REFERENCE='ANALYTIQUE',),
                _F(RESULTAT=SIG_C1_M,
                   NUME_ORDRE=1,
                   NOM_CHAM='SIGM_ELNO',
                   NOM_CMP='SIYY',
                   MAILLE='M134',
                   GROUP_NO='O',
                   VALE=0.0,
                   CRITERE='ABSOLU',
                   PRECISION=0.01,
                   REFERENCE='ANALYTIQUE',),
                _F(RESULTAT=SIG_C1_M,
                   NUME_ORDRE=1,
                   NOM_CHAM='SIGM_ELNO',
                   NOM_CMP='SIXY',
                   MAILLE='M134',
                   GROUP_NO='O',
                   VALE=0.0,
                   CRITERE='ABSOLU',
                   PRECISION=0.01,
                   REFERENCE='ANALYTIQUE',),
                _F(RESULTAT=SIG_C1_M,
                   NUME_ORDRE=1,
                   NOM_CHAM='SIGM_ELNO',
                   NOM_CMP='SIXZ',
                   MAILLE='M134',
                   GROUP_NO='O',
                   VALE=0.0,
                   CRITERE='ABSOLU',
                   PRECISION=0.3,
                   REFERENCE='ANALYTIQUE',),
                _F(RESULTAT=SIG_C1_M,
                   NUME_ORDRE=1,
                   NOM_CHAM='SIGM_ELNO',
                   NOM_CMP='SIYZ',
                   MAILLE='M134',
                   GROUP_NO='O',
                   VALE=0.0,
                   CRITERE='ABSOLU',
                   PRECISION=0.4,
                   REFERENCE='ANALYTIQUE',),
                _F(RESULTAT=SIG_C1_S,
                   NUME_ORDRE=1,
                   NOM_CHAM='SIGM_ELNO',
                   NOM_CMP='SIXX',
                   MAILLE='M134',
                   GROUP_NO='O',
                   VALE=-18.99,
                   PRECISION=0.02,
                   REFERENCE='ANALYTIQUE',),
                _F(RESULTAT=SIG_C1_S,
                   NUME_ORDRE=1,
                   NOM_CHAM='SIGM_ELNO',
                   NOM_CMP='SIYY',
                   MAILLE='M134',
                   GROUP_NO='O',
                   VALE=-18.99,
                   PRECISION=0.02,
                   REFERENCE='ANALYTIQUE',),
                _F(RESULTAT=SIG_C1_S,
                   NUME_ORDRE=1,
                   NOM_CHAM='SIGM_ELNO',
                   NOM_CMP='SIXY',
                   MAILLE='M134',
                   GROUP_NO='O',
                   VALE=0.0,
                   CRITERE='ABSOLU',
                   PRECISION=0.01,
                   REFERENCE='ANALYTIQUE',),
                _F(RESULTAT=SIG_C1_S,
                   NUME_ORDRE=1,
                   NOM_CHAM='SIGM_ELNO',
                   NOM_CMP='SIXZ',
                   MAILLE='M134',
                   GROUP_NO='O',
                   VALE=0.0,
                   CRITERE='ABSOLU',
                   PRECISION=0.01,
                   REFERENCE='ANALYTIQUE',),
                _F(RESULTAT=SIG_C1_S,
                   NUME_ORDRE=1,
                   NOM_CHAM='SIGM_ELNO',
                   NOM_CMP='SIYZ',
                   MAILLE='M134',
                   GROUP_NO='O',
                   VALE=0.0,
                   CRITERE='ABSOLU',
                   PRECISION=0.8,
                   REFERENCE='ANALYTIQUE',),
                _F(RESULTAT=SIG_C1_I,
                   NUME_ORDRE=1,
                   NOM_CHAM='SIGM_ELNO',
                   NOM_CMP='SIXX',
                   MAILLE='M122',
                   GROUP_NO='B1',
                   VALE=0.0,
                   CRITERE='ABSOLU',
                   PRECISION=0.8,
                   REFERENCE='ANALYTIQUE',),
                _F(RESULTAT=SIG_C1_I,
                   NUME_ORDRE=1,
                   NOM_CHAM='SIGM_ELNO',
                   NOM_CMP='SIYY',
                   MAILLE='M122',
                   GROUP_NO='B1',
                   VALE=0.0,
                   CRITERE='ABSOLU',
                   PRECISION=0.8,
                   REFERENCE='ANALYTIQUE',),
                _F(RESULTAT=SIG_C1_I,
                   NUME_ORDRE=1,
                   NOM_CHAM='SIGM_ELNO',
                   NOM_CMP='SIXY',
                   MAILLE='M122',
                   GROUP_NO='B1',
                   VALE=0.0,
                   CRITERE='ABSOLU',
                   PRECISION=0.8,
                   REFERENCE='ANALYTIQUE',),
                _F(RESULTAT=SIG_C1_I,
                   NUME_ORDRE=1,
                   NOM_CHAM='SIGM_ELNO',
                   NOM_CMP='SIXZ',
                   MAILLE='M122',
                   GROUP_NO='B1',
                   VALE=0.0,
                   CRITERE='ABSOLU',
                   PRECISION=0.01,
                   REFERENCE='ANALYTIQUE',),
                _F(RESULTAT=SIG_C1_I,
                   NUME_ORDRE=1,
                   NOM_CHAM='SIGM_ELNO',
                   NOM_CMP='SIYZ',
                   MAILLE='M122',
                   GROUP_NO='B1',
                   VALE=0.0,
                   CRITERE='ABSOLU',
                   PRECISION=0.01,
                   REFERENCE='ANALYTIQUE',),
                _F(RESULTAT=SIG_C1_M,
                   NUME_ORDRE=1,
                   NOM_CHAM='SIGM_ELNO',
                   NOM_CMP='SIXX',
                   MAILLE='M122',
                   GROUP_NO='B1',
                   VALE=0.0,
                   CRITERE='ABSOLU',
                   PRECISION=0.01,
                   REFERENCE='ANALYTIQUE',),
                _F(RESULTAT=SIG_C1_M,
                   NUME_ORDRE=1,
                   NOM_CHAM='SIGM_ELNO',
                   NOM_CMP='SIYY',
                   MAILLE='M122',
                   GROUP_NO='B1',
                   VALE=0.0,
                   CRITERE='ABSOLU',
                   PRECISION=0.01,
                   REFERENCE='ANALYTIQUE',),
                _F(RESULTAT=SIG_C1_M,
                   NUME_ORDRE=1,
                   NOM_CHAM='SIGM_ELNO',
                   NOM_CMP='SIXY',
                   MAILLE='M122',
                   GROUP_NO='B1',
                   VALE=0.0,
                   CRITERE='ABSOLU',
                   PRECISION=0.01,
                   REFERENCE='ANALYTIQUE',),
                _F(RESULTAT=SIG_C1_M,
                   NUME_ORDRE=1,
                   NOM_CHAM='SIGM_ELNO',
                   NOM_CMP='SIXZ',
                   MAILLE='M122',
                   GROUP_NO='B1',
                   VALE=0.0,
                   CRITERE='ABSOLU',
                   PRECISION=0.1,
                   REFERENCE='ANALYTIQUE',),
                _F(RESULTAT=SIG_C1_M,
                   NUME_ORDRE=1,
                   NOM_CHAM='SIGM_ELNO',
                   NOM_CMP='SIYZ',
                   MAILLE='M122',
                   GROUP_NO='B1',
                   VALE=-2.39732,
                   PRECISION=0.03,
                   REFERENCE='ANALYTIQUE',),
                _F(RESULTAT=SIG_C1_S,
                   NUME_ORDRE=1,
                   NOM_CHAM='SIGM_ELNO',
                   NOM_CMP='SIXX',
                   MAILLE='M122',
                   GROUP_NO='B1',
                   VALE=0.0,
                   CRITERE='ABSOLU',
                   PRECISION=0.8,
                   REFERENCE='ANALYTIQUE',),
                _F(RESULTAT=SIG_C1_S,
                   NUME_ORDRE=1,
                   NOM_CHAM='SIGM_ELNO',
                   NOM_CMP='SIYY',
                   MAILLE='M122',
                   GROUP_NO='B1',
                   VALE=0.0,
                   CRITERE='ABSOLU',
                   PRECISION=0.8,
                   REFERENCE='ANALYTIQUE',),
                _F(RESULTAT=SIG_C1_S,
                   NUME_ORDRE=1,
                   NOM_CHAM='SIGM_ELNO',
                   NOM_CMP='SIXY',
                   MAILLE='M122',
                   GROUP_NO='B1',
                   VALE=0.0,
                   CRITERE='ABSOLU',
                   PRECISION=0.8,
                   REFERENCE='ANALYTIQUE',),
                _F(RESULTAT=SIG_C1_S,
                   NUME_ORDRE=1,
                   NOM_CHAM='SIGM_ELNO',
                   NOM_CMP='SIXZ',
                   MAILLE='M122',
                   GROUP_NO='B1',
                   VALE=0.0,
                   CRITERE='ABSOLU',
                   PRECISION=0.01,
                   REFERENCE='ANALYTIQUE',),
                _F(RESULTAT=SIG_C1_S,
                   NUME_ORDRE=1,
                   NOM_CHAM='SIGM_ELNO',
                   NOM_CMP='SIYZ',
                   MAILLE='M122',
                   GROUP_NO='B1',
                   VALE=0.0,
                   CRITERE='ABSOLU',
                   PRECISION=0.01,
                   REFERENCE='ANALYTIQUE',),
                _F(RESULTAT=EFF,
                   NUME_ORDRE=1,
                   NOM_CHAM='EFGE_ELNO',
                   NOM_CMP='NXX',
                   MAILLE='M134',
                   GROUP_NO='O',
                   VALE=0.0,
                   CRITERE='ABSOLU',
                   PRECISION=0.01,
                   REFERENCE='ANALYTIQUE',),
                _F(RESULTAT=EFF,
                   NUME_ORDRE=1,
                   NOM_CHAM='EFGE_ELNO',
                   NOM_CMP='NYY',
                   MAILLE='M134',
                   GROUP_NO='O',
                   VALE=0.0,
                   CRITERE='ABSOLU',
                   PRECISION=0.01,
                   REFERENCE='ANALYTIQUE',),
                _F(RESULTAT=EFF,
                   NUME_ORDRE=1,
                   NOM_CHAM='EFGE_ELNO',
                   NOM_CMP='NXY',
                   MAILLE='M134',
                   GROUP_NO='O',
                   VALE=0.0,
                   CRITERE='ABSOLU',
                   PRECISION=0.01,
                   REFERENCE='ANALYTIQUE',),
                _F(RESULTAT=EFF,
                   NUME_ORDRE=1,
                   NOM_CHAM='EFGE_ELNO',
                   NOM_CMP='MXX',
                   MAILLE='M134',
                   GROUP_NO='O',
                   VALE=-0.0316628,
                   PRECISION=0.02,
                   REFERENCE='ANALYTIQUE',),
                _F(RESULTAT=EFF,
                   NUME_ORDRE=1,
                   NOM_CHAM='EFGE_ELNO',
                   NOM_CMP='MYY',
                   MAILLE='M134',
                   GROUP_NO='O',
                   VALE=-0.0316628,
                   PRECISION=0.02,
                   REFERENCE='ANALYTIQUE',),
                _F(RESULTAT=EFF,
                   NUME_ORDRE=1,
                   NOM_CHAM='EFGE_ELNO',
                   NOM_CMP='MXY',
                   MAILLE='M134',
                   GROUP_NO='O',
                   VALE=0.0,
                   CRITERE='ABSOLU',
                   PRECISION=0.01,
                   REFERENCE='ANALYTIQUE',),
                _F(RESULTAT=EFF,
                   NUME_ORDRE=1,
                   NOM_CHAM='EFGE_ELNO',
                   NOM_CMP='QX',
                   MAILLE='M134',
                   GROUP_NO='O',
                   VALE=0.0,
                   CRITERE='ABSOLU',
                   PRECISION=0.02,
                   REFERENCE='ANALYTIQUE',),
                _F(RESULTAT=EFF,
                   NUME_ORDRE=1,
                   NOM_CHAM='EFGE_ELNO',
                   NOM_CMP='QY',
                   MAILLE='M134',
                   GROUP_NO='O',
                   VALE=0.0,
                   CRITERE='ABSOLU',
                   PRECISION=0.03,
                   REFERENCE='ANALYTIQUE',),
                _F(RESULTAT=EFF,
                   NUME_ORDRE=1,
                   NOM_CHAM='EFGE_ELNO',
                   NOM_CMP='QX',
                   MAILLE='M158',
                   GROUP_NO='O',
                   VALE=0.0,
                   CRITERE='ABSOLU',
                   PRECISION=0.03,
                   REFERENCE='ANALYTIQUE',),
                _F(RESULTAT=EFF,
                   NUME_ORDRE=1,
                   NOM_CHAM='EFGE_ELNO',
                   NOM_CMP='QY',
                   MAILLE='M158',
                   GROUP_NO='O',
                   VALE=0.0,
                   CRITERE='ABSOLU',
                   PRECISION=0.02,
                   REFERENCE='ANALYTIQUE',),
                _F(RESULTAT=EFF,
                   NUME_ORDRE=1,
                   NOM_CHAM='EFGE_ELNO',
                   NOM_CMP='QX',
                   MAILLE='M132',
                   GROUP_NO='O',
                   VALE=0.0,
                   CRITERE='ABSOLU',
                   PRECISION=0.02,
                   REFERENCE='ANALYTIQUE',),
                _F(RESULTAT=EFF,
                   NUME_ORDRE=1,
                   NOM_CHAM='EFGE_ELNO',
                   NOM_CMP='QY',
                   MAILLE='M132',
                   GROUP_NO='O',
                   VALE=0.0,
                   CRITERE='ABSOLU',
                   PRECISION=0.03,
                   REFERENCE='ANALYTIQUE',),
                _F(RESULTAT=EFF,
                   NUME_ORDRE=1,
                   NOM_CHAM='EFGE_ELNO',
                   NOM_CMP='QX',
                   MAILLE='M156',
                   GROUP_NO='O',
                   VALE=0.0,
                   CRITERE='ABSOLU',
                   PRECISION=0.03,
                   REFERENCE='ANALYTIQUE',),
                _F(RESULTAT=EFF,
                   NUME_ORDRE=1,
                   NOM_CHAM='EFGE_ELNO',
                   NOM_CMP='QY',
                   MAILLE='M156',
                   GROUP_NO='O',
                   VALE=0.0,
                   CRITERE='ABSOLU',
                   PRECISION=0.02,
                   REFERENCE='ANALYTIQUE',),
                _F(RESULTAT=EFF,
                   NUME_ORDRE=1,
                   NOM_CHAM='EFGE_ELNO',
                   NOM_CMP='NXX',
                   MAILLE='M288',
                   GROUP_NO='C',
                   VALE=0.0,
                   CRITERE='ABSOLU',
                   PRECISION=0.01,
                   REFERENCE='ANALYTIQUE',),
                _F(RESULTAT=EFF,
                   NUME_ORDRE=1,
                   NOM_CHAM='EFGE_ELNO',
                   NOM_CMP='NYY',
                   MAILLE='M288',
                   GROUP_NO='C',
                   VALE=0.0,
                   CRITERE='ABSOLU',
                   PRECISION=0.01,
                   REFERENCE='ANALYTIQUE',),
                _F(RESULTAT=EFF,
                   NUME_ORDRE=1,
                   NOM_CHAM='EFGE_ELNO',
                   NOM_CMP='NXY',
                   MAILLE='M288',
                   GROUP_NO='C',
                   VALE=0.0,
                   CRITERE='ABSOLU',
                   PRECISION=0.01,
                   REFERENCE='ANALYTIQUE',),
                _F(RESULTAT=EFF,
                   NUME_ORDRE=1,
                   NOM_CHAM='EFGE_ELNO',
                   NOM_CMP='MXX',
                   MAILLE='M288',
                   GROUP_NO='C',
                   VALE=0.0,
                   CRITERE='ABSOLU',
                   PRECISION=0.01,
                   REFERENCE='ANALYTIQUE',),
                _F(RESULTAT=EFF,
                   NUME_ORDRE=1,
                   NOM_CHAM='EFGE_ELNO',
                   NOM_CMP='MYY',
                   MAILLE='M288',
                   GROUP_NO='C',
                   VALE=0.0,
                   CRITERE='ABSOLU',
                   PRECISION=0.01,
                   REFERENCE='ANALYTIQUE',),
                _F(RESULTAT=EFF,
                   NUME_ORDRE=1,
                   NOM_CHAM='EFGE_ELNO',
                   NOM_CMP='MXY',
                   MAILLE='M288',
                   GROUP_NO='C',
                   VALE=0.0189978,
                   PRECISION=0.035,
                   REFERENCE='ANALYTIQUE',),
                _F(RESULTAT=EFF,
                   NUME_ORDRE=1,
                   NOM_CHAM='EFGE_ELNO',
                   NOM_CMP='QX',
                   MAILLE='M288',
                   GROUP_NO='C',
                   VALE=0.0,
                   CRITERE='ABSOLU',
                   PRECISION=0.01,
                   REFERENCE='ANALYTIQUE',),
                _F(RESULTAT=EFF,
                   NUME_ORDRE=1,
                   NOM_CHAM='EFGE_ELNO',
                   NOM_CMP='QY',
                   MAILLE='M288',
                   GROUP_NO='C',
                   VALE=0.0,
                   CRITERE='ABSOLU',
                   PRECISION=0.01,
                   REFERENCE='ANALYTIQUE',),
                _F(RESULTAT=EFF,
                   NUME_ORDRE=1,
                   NOM_CHAM='EFGE_ELNO',
                   NOM_CMP='NXX',
                   MAILLE='M23',
                   GROUP_NO='D',
                   VALE=0.0,
                   CRITERE='ABSOLU',
                   PRECISION=0.01,
                   REFERENCE='ANALYTIQUE',),
                _F(RESULTAT=EFF,
                   NUME_ORDRE=1,
                   NOM_CHAM='EFGE_ELNO',
                   NOM_CMP='NYY',
                   MAILLE='M23',
                   GROUP_NO='D',
                   VALE=0.0,
                   CRITERE='ABSOLU',
                   PRECISION=0.01,
                   REFERENCE='ANALYTIQUE',),
                _F(RESULTAT=EFF,
                   NUME_ORDRE=1,
                   NOM_CHAM='EFGE_ELNO',
                   NOM_CMP='NXY',
                   MAILLE='M23',
                   GROUP_NO='D',
                   VALE=0.0,
                   CRITERE='ABSOLU',
                   PRECISION=0.01,
                   REFERENCE='ANALYTIQUE',),
                _F(RESULTAT=EFF,
                   NUME_ORDRE=1,
                   NOM_CHAM='EFGE_ELNO',
                   NOM_CMP='MXX',
                   MAILLE='M23',
                   GROUP_NO='D',
                   VALE=0.0,
                   CRITERE='ABSOLU',
                   PRECISION=0.01,
                   REFERENCE='ANALYTIQUE',),
                _F(RESULTAT=EFF,
                   NUME_ORDRE=1,
                   NOM_CHAM='EFGE_ELNO',
                   NOM_CMP='MYY',
                   MAILLE='M23',
                   GROUP_NO='D',
                   VALE=0.0,
                   CRITERE='ABSOLU',
                   PRECISION=0.01,
                   REFERENCE='ANALYTIQUE',),
                _F(RESULTAT=EFF,
                   NUME_ORDRE=1,
                   NOM_CHAM='EFGE_ELNO',
                   NOM_CMP='MXY',
                   MAILLE='M23',
                   GROUP_NO='D',
                   VALE=-0.0189978,
                   PRECISION=0.03,
                   REFERENCE='ANALYTIQUE',),
                _F(RESULTAT=EFF,
                   NUME_ORDRE=1,
                   NOM_CHAM='EFGE_ELNO',
                   NOM_CMP='QX',
                   MAILLE='M23',
                   GROUP_NO='D',
                   VALE=0.0,
                   CRITERE='ABSOLU',
                   PRECISION=0.04,
                   REFERENCE='ANALYTIQUE',),
                _F(RESULTAT=EFF,
                   NUME_ORDRE=1,
                   NOM_CHAM='EFGE_ELNO',
                   NOM_CMP='QY',
                   MAILLE='M23',
                   GROUP_NO='D',
                   VALE=0.0,
                   CRITERE='ABSOLU',
                   PRECISION=0.01,
                   REFERENCE='ANALYTIQUE',),
                _F(RESULTAT=EFF,
                   NUME_ORDRE=1,
                   NOM_CHAM='EFGE_ELNO',
                   NOM_CMP='NXX',
                   MAILLE='M14',
                   GROUP_NO='D1',
                   VALE=0.0,
                   CRITERE='ABSOLU',
                   PRECISION=0.01,
                   REFERENCE='ANALYTIQUE',),
                _F(RESULTAT=EFF,
                   NUME_ORDRE=1,
                   NOM_CHAM='EFGE_ELNO',
                   NOM_CMP='NYY',
                   MAILLE='M14',
                   GROUP_NO='D1',
                   VALE=0.0,
                   CRITERE='ABSOLU',
                   PRECISION=0.01,
                   REFERENCE='ANALYTIQUE',),
                _F(RESULTAT=EFF,
                   NUME_ORDRE=1,
                   NOM_CHAM='EFGE_ELNO',
                   NOM_CMP='NXY',
                   MAILLE='M14',
                   GROUP_NO='D1',
                   VALE=0.0,
                   CRITERE='ABSOLU',
                   PRECISION=0.01,
                   REFERENCE='ANALYTIQUE',),
                _F(RESULTAT=EFF,
                   NUME_ORDRE=1,
                   NOM_CHAM='EFGE_ELNO',
                   NOM_CMP='MXX',
                   MAILLE='M14',
                   GROUP_NO='D1',
                   VALE=0.0,
                   CRITERE='ABSOLU',
                   PRECISION=0.01,
                   REFERENCE='ANALYTIQUE',),
                _F(RESULTAT=EFF,
                   NUME_ORDRE=1,
                   NOM_CHAM='EFGE_ELNO',
                   NOM_CMP='MYY',
                   MAILLE='M14',
                   GROUP_NO='D1',
                   VALE=0.0,
                   CRITERE='ABSOLU',
                   PRECISION=0.01,
                   REFERENCE='ANALYTIQUE',),
                _F(RESULTAT=EFF,
                   NUME_ORDRE=1,
                   NOM_CHAM='EFGE_ELNO',
                   NOM_CMP='MXY',
                   MAILLE='M14',
                   GROUP_NO='D1',
                   VALE=0.0,
                   CRITERE='ABSOLU',
                   PRECISION=0.01,
                   REFERENCE='ANALYTIQUE',),
                _F(RESULTAT=EFF,
                   NUME_ORDRE=1,
                   NOM_CHAM='EFGE_ELNO',
                   NOM_CMP='QX',
                   MAILLE='M14',
                   GROUP_NO='D1',
                   VALE=-0.159155,
                   PRECISION=0.21,
                   REFERENCE='ANALYTIQUE',),
                _F(RESULTAT=EFF,
                   NUME_ORDRE=1,
                   NOM_CHAM='EFGE_ELNO',
                   NOM_CMP='QY',
                   MAILLE='M14',
                   GROUP_NO='D1',
                   VALE=0.0,
                   CRITERE='ABSOLU',
                   PRECISION=0.01,
                   REFERENCE='ANALYTIQUE',),
                _F(RESULTAT=EFF,
                   NUME_ORDRE=1,
                   NOM_CHAM='EFGE_ELNO',
                   NOM_CMP='QX',
                   MAILLE='M11',
                   GROUP_NO='D1',
                   VALE=-0.159155,
                   PRECISION=0.21,
                   REFERENCE='ANALYTIQUE',),
                _F(RESULTAT=EFF,
                   NUME_ORDRE=1,
                   NOM_CHAM='EFGE_ELNO',
                   NOM_CMP='QY',
                   MAILLE='M11',
                   GROUP_NO='D1',
                   VALE=0.0,
                   CRITERE='ABSOLU',
                   PRECISION=0.01,
                   REFERENCE='ANALYTIQUE',),
                _F(RESULTAT=EFF,
                   NUME_ORDRE=1,
                   NOM_CHAM='EFGE_ELNO',
                   NOM_CMP='NXX',
                   MAILLE='M1',
                   GROUP_NO='A',
                   VALE=0.0,
                   CRITERE='ABSOLU',
                   PRECISION=0.01,
                   REFERENCE='ANALYTIQUE',),
                _F(RESULTAT=EFF,
                   NUME_ORDRE=1,
                   NOM_CHAM='EFGE_ELNO',
                   NOM_CMP='NYY',
                   MAILLE='M1',
                   GROUP_NO='A',
                   VALE=0.0,
                   CRITERE='ABSOLU',
                   PRECISION=0.01,
                   REFERENCE='ANALYTIQUE',),
                _F(RESULTAT=EFF,
                   NUME_ORDRE=1,
                   NOM_CHAM='EFGE_ELNO',
                   NOM_CMP='NXY',
                   MAILLE='M1',
                   GROUP_NO='A',
                   VALE=0.0,
                   CRITERE='ABSOLU',
                   PRECISION=0.01,
                   REFERENCE='ANALYTIQUE',),
                _F(RESULTAT=EFF,
                   NUME_ORDRE=1,
                   NOM_CHAM='EFGE_ELNO',
                   NOM_CMP='MXX',
                   MAILLE='M1',
                   GROUP_NO='A',
                   VALE=0.0,
                   CRITERE='ABSOLU',
                   PRECISION=0.01,
                   REFERENCE='ANALYTIQUE',),
                _F(RESULTAT=EFF,
                   NUME_ORDRE=1,
                   NOM_CHAM='EFGE_ELNO',
                   NOM_CMP='MYY',
                   MAILLE='M1',
                   GROUP_NO='A',
                   VALE=0.0,
                   CRITERE='ABSOLU',
                   PRECISION=0.01,
                   REFERENCE='ANALYTIQUE',),
                _F(RESULTAT=EFF,
                   NUME_ORDRE=1,
                   NOM_CHAM='EFGE_ELNO',
                   NOM_CMP='MXY',
                   MAILLE='M1',
                   GROUP_NO='A',
                   VALE=0.0189978,
                   PRECISION=0.03,
                   REFERENCE='ANALYTIQUE',),
                _F(RESULTAT=EFF,
                   NUME_ORDRE=1,
                   NOM_CHAM='EFGE_ELNO',
                   NOM_CMP='QY',
                   MAILLE='M1',
                   GROUP_NO='A',
                   VALE=0.0,
                   CRITERE='ABSOLU',
                   PRECISION=0.01,
                   REFERENCE='ANALYTIQUE',),
                _F(RESULTAT=EFF,
                   NUME_ORDRE=1,
                   NOM_CHAM='EFGE_ELNO',
                   NOM_CMP='QX',
                   MAILLE='M1',
                   GROUP_NO='A',
                   VALE=0.0,
                   CRITERE='ABSOLU',
                   PRECISION=0.04,
                   REFERENCE='ANALYTIQUE',),
                _F(RESULTAT=EFF,
                   NUME_ORDRE=1,
                   NOM_CHAM='EFGE_ELNO',
                   NOM_CMP='NXX',
                   MAILLE='M266',
                   GROUP_NO='B',
                   VALE=0.0,
                   CRITERE='ABSOLU',
                   PRECISION=0.01,
                   REFERENCE='ANALYTIQUE',),
                _F(RESULTAT=EFF,
                   NUME_ORDRE=1,
                   NOM_CHAM='EFGE_ELNO',
                   NOM_CMP='NYY',
                   MAILLE='M266',
                   GROUP_NO='B',
                   VALE=0.0,
                   CRITERE='ABSOLU',
                   PRECISION=0.01,
                   REFERENCE='ANALYTIQUE',),
                _F(RESULTAT=EFF,
                   NUME_ORDRE=1,
                   NOM_CHAM='EFGE_ELNO',
                   NOM_CMP='NXY',
                   MAILLE='M266',
                   GROUP_NO='B',
                   VALE=0.0,
                   CRITERE='ABSOLU',
                   PRECISION=0.01,
                   REFERENCE='ANALYTIQUE',),
                _F(RESULTAT=EFF,
                   NUME_ORDRE=1,
                   NOM_CHAM='EFGE_ELNO',
                   NOM_CMP='MXX',
                   MAILLE='M266',
                   GROUP_NO='B',
                   VALE=0.0,
                   CRITERE='ABSOLU',
                   PRECISION=0.01,
                   REFERENCE='ANALYTIQUE',),
                _F(RESULTAT=EFF,
                   NUME_ORDRE=1,
                   NOM_CHAM='EFGE_ELNO',
                   NOM_CMP='MYY',
                   MAILLE='M266',
                   GROUP_NO='B',
                   VALE=0.0,
                   CRITERE='ABSOLU',
                   PRECISION=0.01,
                   REFERENCE='ANALYTIQUE',),
                _F(RESULTAT=EFF,
                   NUME_ORDRE=1,
                   NOM_CHAM='EFGE_ELNO',
                   NOM_CMP='MXY',
                   MAILLE='M266',
                   GROUP_NO='B',
                   VALE=-0.0189978,
                   PRECISION=0.035,
                   REFERENCE='ANALYTIQUE',),
                _F(RESULTAT=EFF,
                   NUME_ORDRE=1,
                   NOM_CHAM='EFGE_ELNO',
                   NOM_CMP='QY',
                   MAILLE='M266',
                   GROUP_NO='B',
                   VALE=0.0,
                   CRITERE='ABSOLU',
                   PRECISION=0.01,
                   REFERENCE='ANALYTIQUE',),
                _F(RESULTAT=EFF,
                   NUME_ORDRE=1,
                   NOM_CHAM='EFGE_ELNO',
                   NOM_CMP='QX',
                   MAILLE='M266',
                   GROUP_NO='B',
                   VALE=0.0,
                   CRITERE='ABSOLU',
                   PRECISION=0.01,
                   REFERENCE='ANALYTIQUE',),
                _F(RESULTAT=EFF,
                   NUME_ORDRE=1,
                   NOM_CHAM='EFGE_ELNO',
                   NOM_CMP='NXX',
                   MAILLE='M122',
                   GROUP_NO='B1',
                   VALE=0.0,
                   CRITERE='ABSOLU',
                   PRECISION=0.01,
                   REFERENCE='ANALYTIQUE',),
                _F(RESULTAT=EFF,
                   NUME_ORDRE=1,
                   NOM_CHAM='EFGE_ELNO',
                   NOM_CMP='NYY',
                   MAILLE='M122',
                   GROUP_NO='B1',
                   VALE=0.0,
                   CRITERE='ABSOLU',
                   PRECISION=0.01,
                   REFERENCE='ANALYTIQUE',),
                _F(RESULTAT=EFF,
                   NUME_ORDRE=1,
                   NOM_CHAM='EFGE_ELNO',
                   NOM_CMP='NXY',
                   MAILLE='M122',
                   GROUP_NO='B1',
                   VALE=0.0,
                   CRITERE='ABSOLU',
                   PRECISION=0.01,
                   REFERENCE='ANALYTIQUE',),
                _F(RESULTAT=EFF,
                   NUME_ORDRE=1,
                   NOM_CHAM='EFGE_ELNO',
                   NOM_CMP='MXX',
                   MAILLE='M122',
                   GROUP_NO='B1',
                   VALE=0.0,
                   CRITERE='ABSOLU',
                   PRECISION=0.01,
                   REFERENCE='ANALYTIQUE',),
                _F(RESULTAT=EFF,
                   NUME_ORDRE=1,
                   NOM_CHAM='EFGE_ELNO',
                   NOM_CMP='MYY',
                   MAILLE='M122',
                   GROUP_NO='B1',
                   VALE=0.0,
                   CRITERE='ABSOLU',
                   PRECISION=0.01,
                   REFERENCE='ANALYTIQUE',),
                _F(RESULTAT=EFF,
                   NUME_ORDRE=1,
                   NOM_CHAM='EFGE_ELNO',
                   NOM_CMP='MXY',
                   MAILLE='M122',
                   GROUP_NO='B1',
                   VALE=0.0,
                   CRITERE='ABSOLU',
                   PRECISION=0.01,
                   REFERENCE='ANALYTIQUE',),
                _F(RESULTAT=EFF,
                   NUME_ORDRE=1,
                   NOM_CHAM='EFGE_ELNO',
                   NOM_CMP='QY',
                   MAILLE='M122',
                   GROUP_NO='B1',
                   VALE=-0.159155,
                   PRECISION=0.21,
                   REFERENCE='ANALYTIQUE',),
                _F(RESULTAT=EFF,
                   NUME_ORDRE=1,
                   NOM_CHAM='EFGE_ELNO',
                   NOM_CMP='QX',
                   MAILLE='M122',
                   GROUP_NO='B1',
                   VALE=0.0,
                   CRITERE='ABSOLU',
                   PRECISION=0.01,
                   REFERENCE='ANALYTIQUE',),
                _F(RESULTAT=EFF,
                   NUME_ORDRE=1,
                   NOM_CHAM='EFGE_ELNO',
                   NOM_CMP='NXX',
                   MAILLE='M146',
                   GROUP_NO='B1',
                   VALE=0.0,
                   CRITERE='ABSOLU',
                   PRECISION=0.01,
                   REFERENCE='ANALYTIQUE',),
                _F(RESULTAT=EFF,
                   NUME_ORDRE=1,
                   NOM_CHAM='EFGE_ELNO',
                   NOM_CMP='NYY',
                   MAILLE='M146',
                   GROUP_NO='B1',
                   VALE=0.0,
                   CRITERE='ABSOLU',
                   PRECISION=0.01,
                   REFERENCE='ANALYTIQUE',),
                _F(RESULTAT=EFF,
                   NUME_ORDRE=1,
                   NOM_CHAM='EFGE_ELNO',
                   NOM_CMP='NXY',
                   MAILLE='M146',
                   GROUP_NO='B1',
                   VALE=0.0,
                   CRITERE='ABSOLU',
                   PRECISION=0.01,
                   REFERENCE='ANALYTIQUE',),
                _F(RESULTAT=EFF,
                   NUME_ORDRE=1,
                   NOM_CHAM='EFGE_ELNO',
                   NOM_CMP='MXX',
                   MAILLE='M146',
                   GROUP_NO='B1',
                   VALE=0.0,
                   CRITERE='ABSOLU',
                   PRECISION=0.01,
                   REFERENCE='ANALYTIQUE',),
                _F(RESULTAT=EFF,
                   NUME_ORDRE=1,
                   NOM_CHAM='EFGE_ELNO',
                   NOM_CMP='MYY',
                   MAILLE='M146',
                   GROUP_NO='B1',
                   VALE=0.0,
                   CRITERE='ABSOLU',
                   PRECISION=0.01,
                   REFERENCE='ANALYTIQUE',),
                _F(RESULTAT=EFF,
                   NUME_ORDRE=1,
                   NOM_CHAM='EFGE_ELNO',
                   NOM_CMP='MXY',
                   MAILLE='M146',
                   GROUP_NO='B1',
                   VALE=0.0,
                   CRITERE='ABSOLU',
                   PRECISION=0.01,
                   REFERENCE='ANALYTIQUE',),
                _F(RESULTAT=EFF,
                   NUME_ORDRE=1,
                   NOM_CHAM='EFGE_ELNO',
                   NOM_CMP='QY',
                   MAILLE='M146',
                   GROUP_NO='B1',
                   VALE=-0.159155,
                   PRECISION=0.21,
                   REFERENCE='ANALYTIQUE',),
                _F(RESULTAT=EFF,
                   NUME_ORDRE=1,
                   NOM_CHAM='EFGE_ELNO',
                   NOM_CMP='QX',
                   MAILLE='M146',
                   GROUP_NO='B1',
                   VALE=0.0,
                   CRITERE='ABSOLU',
                   PRECISION=0.01,
                   REFERENCE='ANALYTIQUE',),),);

FIN();
