# MODIF  DATE 22/10/2007   AUTEUR PELLET J.PELLET 
# TITRE PLAQUE CONSOLE EN FLEXION QUAD4 GRILLE_EXCENTREE
#            CONFIGURATION MANAGEMENT OF EDF VERSION
# ======================================================================
# COPYRIGHT (C) 1991 - 2007  EDF R&D                  WWW.CODE-ASTER.ORG
# THIS PROGRAM IS FREE SOFTWARE; YOU CAN REDISTRIBUTE IT AND/OR MODIFY
# IT UNDER THE TERMS OF THE GNU GENERAL PUBLIC LICENSE AS PUBLISHED BY
# THE FREE SOFTWARE FOUNDATION; EITHER VERSION 2 OF THE LICENSE, OR
# (AT YOUR OPTION) ANY LATER VERSION.
#
# THIS PROGRAM IS DISTRIBUTED IN THE HOPE THAT IT WILL BE USEFUL, BUT
# WITHOUT ANY WARRANTY; WITHOUT EVEN THE IMPLIED WARRANTY OF
# MERCHANTABILITY OR FITNESS FOR A PARTICULAR PURPOSE. SEE THE GNU
# GENERAL PUBLIC LICENSE FOR MORE DETAILS.
#
# YOU SHOULD HAVE RECEIVED A COPY OF THE GNU GENERAL PUBLIC LICENSE
# ALONG WITH THIS PROGRAM; IF NOT, WRITE TO EDF R&D CODE_ASTER,
#    1 AVENUE DU GENERAL DE GAULLE, 92141 CLAMART CEDEX, FRANCE.
# ======================================================================

DEBUT(CODE=_F(NOM='SSLS132B',NIV_PUB_WEB='INTERNET'),DEBUG=_F(SDVERI='OUI'))

#-----------------------------------------------------------------------
# VALIDATION DES GRILLES EXCENTREE SUR POUTRE CONSOLE (QUADRANGLE)
#-----------------------------------------------------------------------

MAILL1=LIRE_MAILLAGE(FORMAT='MED'   )

MAILL2=CREA_MAILLAGE(
               MAILLAGE=MAILL1,
               CREA_GROUP_MA=_F(
                   NOM = 'ACPLUS',
                   GROUP_MA = 'CONSOLE',
                   PREF_MAILLE = 'B',
                              )
                           )


MAILTOT=CREA_MAILLAGE(
               MAILLAGE=MAILL2,
               CREA_GROUP_MA=_F(
                   NOM = 'ACMOINS',
                   GROUP_MA = 'CONSOLE',
                   PREF_MAILLE = 'C',
                              )
                           )
MAILTOT = DEFI_GROUP(
             reuse    = MAILTOT,
             MAILLAGE = MAILTOT,
             CREA_GROUP_NO = _F(
                   TOUT_GROUP_MA = 'OUI'))

#
# -----------------------------------------------------
# DEFINITION DES MATERIAUX
# -----------------------------------------------------
#

ACIER=DEFI_MATERIAU(
            ELAS=_F(  E = 2.E11,   NU = 0.0,),
                          )
BETON=DEFI_MATERIAU(
            ELAS=_F(  E = 3.E10,   NU = 0.0,),
                          )

#
# -------------------------------------------------
# AFFECTATION DES MATERIAUX
# -------------------------------------------------
#
MATAF=AFFE_MATERIAU(    MAILLAGE=MAILTOT,
                          AFFE=(
                          _F(  GROUP_MA = ('ACPLUS','ACMOINS'),
                                 MATER = ACIER,
                               ),
                          _F(  GROUP_MA = ('CONSOLE'),
                                 MATER = BETON,
                               )
                               )
                      )

#
# -------------------------------------------------
# AFFECTATION DES MODELES
# -------------------------------------------------
#
LEMOD=AFFE_MODELE(    MAILLAGE=MAILTOT,     VERIF='MAILLE',
                        AFFE=(
                              _F(  GROUP_MA = ('ACPLUS','ACMOINS'),
                               PHENOMENE = 'MECANIQUE',
                               MODELISATION = 'GRILLE_EXCENTRE',
                             ),
                              _F(  GROUP_MA = ('CONSOLE',),
                               PHENOMENE = 'MECANIQUE',
                               MODELISATION = 'DKT',
                             )
                          )
                      )

# -------------------------------------------------
# AFFECTATION DES CARACTERISTIQUES
# -------------------------------------------------
#
LACAR=AFFE_CARA_ELEM(    MODELE=LEMOD,
                      COQUE=(
                          _F( GROUP_MA = ('CONSOLE', 'B0X','B1X','B0Y','B1Y',),
                                EPAIS = .2,
                                ANGL_REP = (0.0, 0.0,),
                             ),
                             ),
                       GRILLE=(
                               _F( GROUP_MA = 'ACPLUS',
                                SECTION = .2,
                                EXCENTREMENT = .05,
                                ANGL_REP=(0,0),),
                               _F( GROUP_MA = 'ACMOINS',
                                SECTION = .2,
                                EXCENTREMENT = -.05,
                                ANGL_REP=(0,0),),
                              )
                        )

# ----------------------------------------------
# CHARGEMENT
# ----------------------------------------------
#
ZCHM=AFFE_CHAR_MECA(
             MODELE=LEMOD,
            DDL_IMPO=(
                   _F( GROUP_MA  = 'B0X',
                       DX = 0., DY=0., DZ = 0., DRX = 0., DRY = 0., DRZ = 0. ),
                   _F( GROUP_MA  = 'B1X',
                       DZ = 1.,  ),

                )
            )
#
# ----------------------------------------------
# CALCUL
# ----------------------------------------------
#


ZLIST=DEFI_LIST_REEL(   DEBUT=0.,
             INTERVALLE=_F( JUSQU_A = 1.0,  NOMBRE = 1, )
           )

LEDEP=STAT_NON_LINE(
                            MODELE=LEMOD,
                        CHAM_MATER=MATAF,
                         CARA_ELEM=LACAR,
                             EXCIT=_F(
                CHARGE = ZCHM,
                ),
                         COMP_INCR=_F(
                RELATION = 'ELAS',
                ALGO_1D = 'DEBORST'
                ),
                         INCREMENT=_F(
                LIST_INST = ZLIST,
                NUME_INST_FIN = 1,
                ),
              )


LEDEP=CALC_ELEM( reuse = LEDEP,
                 OPTION     = ('EPSI_ELGA_DEPL','EPSI_ELNO_DEPL','SIEF_ELNO_ELGA', 'VARI_ELNO_ELGA',),
                 RESULTAT   = LEDEP,
               )

LEDEP=CALC_NO(reuse = LEDEP,
              RESULTAT = LEDEP,
              OPTION   = ('FORC_NODA',),
              )
#
# -------------------------------------------------
# POST TRAITEMENT DES RESULTATS
# -------------------------------------------------
#

#IMPR_RESU(RESU=_F(RESULTAT=LEDEP))

TAB = POST_RELEVE_T(
        ACTION = _F(
               OPERATION = 'EXTRACTION',
               INTITULE = 'RESU',
               GROUP_NO = 'B0X',
               RESULTAT = LEDEP,
               NOM_CHAM = 'FORC_NODA',
               TOUT_ORDRE = 'OUI',
               RESULTANTE = 'DZ'))

#IMPR_TABLE(TABLE = TAB)
TEST_TABLE(
     TABLE = TAB,
     NOM_PARA = 'DZ',
     FILTRE = _F(
         NOM_PARA = 'NUME_ORDRE',
         VALE_I   = 1,
         ),
     VALE = -3.3E3,
     REFERENCE = 'ANALYTIQUE'
  )


FIN()
#
