# MODIF  DATE 28/05/2004   AUTEUR LEBOUVIE F.LEBOUVIER 
# RESPONSABLE JMBHH01 J.M.PROIX
# TITRE POUTRE VRILLEE SHB8 MAILLAGE 24 
#            CONFIGURATION MANAGEMENT OF EDF VERSION
# ======================================================================
# COPYRIGHT (C) 1991 - 2003  EDF R&D                  WWW.CODE-ASTER.ORG
# THIS PROGRAM IS FREE SOFTWARE; YOU CAN REDISTRIBUTE IT AND/OR MODIFY  
# IT UNDER THE TERMS OF THE GNU GENERAL PUBLIC LICENSE AS PUBLISHED BY  
# THE FREE SOFTWARE FOUNDATION; EITHER VERSION 2 OF THE LICENSE, OR     
# (AT YOUR OPTION) ANY LATER VERSION.                                                    
#                                                                       
# THIS PROGRAM IS DISTRIBUTED IN THE HOPE THAT IT WILL BE USEFUL, BUT   
# WITHOUT ANY WARRANTY; WITHOUT EVEN THE IMPLIED WARRANTY OF            
# MERCHANTABILITY OR FITNESS FOR A PARTICULAR PURPOSE. SEE THE GNU      
# GENERAL PUBLIC LICENSE FOR MORE DETAILS.                              
#                                                                       
# YOU SHOULD HAVE RECEIVED A COPY OF THE GNU GENERAL PUBLIC LICENSE     
# ALONG WITH THIS PROGRAM; IF NOT, WRITE TO EDF R&D CODE_ASTER,         
#    1 AVENUE DU GENERAL DE GAULLE, 92141 CLAMART CEDEX, FRANCE.        
# ======================================================================
# ELEMENT SHB8PS - A.COMBESCURE - S.BAGUET -INSA LYON 2003


DEBUT(CODE=_F(NOM='SSLS108C',NIV_PUB_WEB='INTERNET'),);

PRE_GIBI();

MAIL=LIRE_MAILLAGE();

MAIL=MODI_MAILLAGE(reuse=MAIL,MAILLAGE=MAIL,
ORIE_SHB8=_F(GROUP_MA='VOLTOT'),)
#ORIE_SHB8=_F(GROUP_MA='TOUT'),)

MAIL=DEFI_GROUP(reuse =MAIL,
                MAILLAGE=MAIL,
                CREA_GROUP_NO=(_F(GROUP_MA='ENCAS',),
                               _F(GROUP_MA='BOUT',),),);
                               
MODMECA=AFFE_MODELE(MAILLAGE=MAIL,
                    AFFE=_F(TOUT='OUI',
                            PHENOMENE='MECANIQUE',
                            MODELISATION='SHB8',),);
                            
MAT=DEFI_MATERIAU(ELAS=_F(E=29E+6,
                          NU=0.22,),);

CHM=AFFE_MATERIAU(MAILLAGE=MAIL,
                  AFFE=_F(TOUT='OUI',
                          MATER=MAT,),);


CHARGT=AFFE_CHAR_MECA(MODELE=MODMECA,
                      DDL_IMPO=(_F(GROUP_MA=('ENCAS'),
                                   DX=0.0,),
                                _F(GROUP_NO='ENCAS',
                                   DY=0.0,),
                                _F(GROUP_NO='ENCAS',
                                   DZ=0.0,),),
                      FORCE_NODALE=(_F(GROUP_NO = 'A1',
                                      FZ=0.5,),
                                    _F(GROUP_NO = 'A2',
                                      FZ=0.5,),),);

RESU1=MECA_STATIQUE(MODELE=MODMECA,
                    CHAM_MATER=CHM,
                    EXCIT=_F(CHARGE=CHARGT,),
                    );

RESU1=CALC_ELEM(reuse =RESU1,
                OPTION='SIEF_ELNO_ELGA',
                RESULTAT=RESU1,);

IMPR_RESU(MODELE=MODMECA,
          RESU=(_F(FORMAT='RESULTAT',
                   RESULTAT=RESU1,
                   NOM_CHAM=('DEPL','SIEF_ELGA_DEPL','SIEF_ELNO_ELGA',),
                   VALE_MAX='OUI',VALE_MIN='OUI',),
                   ),);





CHARGT2=AFFE_CHAR_MECA(MODELE=MODMECA,
                      DDL_IMPO=(_F(GROUP_MA=('ENCAS'),
                                   DX=0.0,),
                                _F(GROUP_NO='ENCAS',
                                   DY=0.0,),
                                _F(GROUP_NO='ENCAS',
                                   DZ=0.0,),),
                      FORCE_NODALE=(_F(GROUP_NO = 'A1',
                                      FY=0.5,),
                                    _F(GROUP_NO = 'A2',
                                      FY=0.5,),),);

RESU2=MECA_STATIQUE(MODELE=MODMECA,
                    CHAM_MATER=CHM,
                    EXCIT=_F(CHARGE=CHARGT2,),
                    );

RESU2=CALC_ELEM(reuse =RESU2,
                OPTION='SIEF_ELNO_ELGA',
                RESULTAT=RESU2,);


TEST_RESU(RESU=(
     # DEPLACEMENT FZ
       
            _F(  RESULTAT = RESU1, NOM_CHAM='DEPL', PRECISION = 1.E-2, REFERENCE='SOURCE_EXTERNE',NUME_ORDRE=1,
              GROUP_NO = 'A1',      NOM_CMP = 'DY',           VALE = -1.72E-3),

            _F(   RESULTAT = RESU1, NOM_CHAM='DEPL',  PRECISION = 1.E-2, REFERENCE='SOURCE_EXTERNE',NUME_ORDRE=1,
              GROUP_NO = 'A2',      NOM_CMP = 'DZ',           VALE = 5.42E-3),

     # DEPLACEMENT FY
       
            _F(  RESULTAT = RESU2, NOM_CHAM='DEPL', PRECISION = 2.E-2, REFERENCE='SOURCE_EXTERNE',NUME_ORDRE=1,
              GROUP_NO = 'A1',      NOM_CMP = 'DY',           VALE = 1.75E-3),

            _F(  RESULTAT = RESU2, NOM_CHAM='DEPL', PRECISION = 1.E-2, REFERENCE='SOURCE_EXTERNE',NUME_ORDRE=1,
              GROUP_NO = 'A2',      NOM_CMP = 'DZ',           VALE = -1.72E-3))
             )


IMPR_RESU(MODELE=MODMECA,
          RESU=(_F(FORMAT='RESULTAT',
                   RESULTAT=RESU2,
                   NOM_CHAM=('DEPL','SIEF_ELGA_DEPL','SIEF_ELNO_ELGA',),
                   VALE_MAX='OUI',VALE_MIN='OUI',),
                   ),);



DEFI_FICHIER(FICHIER='MSH', UNITE=37)

IMPR_RESU(MODELE=MODMECA,
          RESU=(
                 _F(FORMAT='GMSH',
                   FICHIER='MSH',
                   RESULTAT=RESU2,
                   VERSION=1.2,
                   NOM_CHAM=('DEPL'),),
                   ),)

FIN()

