 TITRE
CODE_ASTER - 11.00.27 - VERSION DE DEVELOPPEMENT          - FRONTAL1         - L
 FINSF
 %
 COOR_3D
 N1        4.00000000000000E-01  5.00000000000000E-01  2.50000000000000E-01
 N2        1.50436677993892E+00  5.00000000000000E-01  1.49825957184937E+00
 N3        2.60873355987785E+00  5.00000000000000E-01  2.74651914369874E+00
 N4        3.71310033981677E+00  5.00000000000000E-01  3.99477871554811E+00
 N5        4.81746711975569E+00  5.00000000000000E-01  5.24303828739748E+00
 N6        5.92183389969461E+00  5.00000000000000E-01  6.49129785924685E+00
 N7       -8.48259348643172E-01  5.00000000000000E-01  1.35436658246276E+00
 N8        2.56107361182022E-01  5.00000000000000E-01  2.60262615002379E+00
 N9        1.36047410391991E+00  5.00000000000000E-01  3.85088575478586E+00
 N10       2.46484084665780E+00  5.00000000000000E-01  5.09914535954792E+00
 N11       3.56920758939569E+00  5.00000000000000E-01  6.34740496430999E+00
 N12       4.67357433213358E+00  5.00000000000000E-01  7.59566456907205E+00
 N13      -2.09651892049254E+00  5.00000000000000E-01  2.45873336240168E+00
 N14      -9.92152243580043E-01  5.00000000000000E-01  3.70699289276168E+00
 N15       1.12214499157846E-01  5.00000000000000E-01  4.95525249752374E+00
 N16       1.21658124189573E+00  5.00000000000000E-01  6.20351210228581E+00
 N17       2.32094798463362E+00  5.00000000000000E-01  7.45177170704788E+00
 N18       3.42531472737151E+00  5.00000000000000E-01  8.70003131180994E+00
 N19      -3.34477849234191E+00  5.00000000000000E-01  3.56310014234061E+00
 N20      -2.24041184834211E+00  5.00000000000000E-01  4.81135963549957E+00
 N21      -1.13604510560422E+00  5.00000000000000E-01  6.05961924026163E+00
 N22      -3.16783628663313E-02  5.00000000000000E-01  7.30787884502370E+00
 N23       1.07268837987156E+00  5.00000000000000E-01  8.55613844978576E+00
 N24       2.17705512260945E+00  5.00000000000000E-01  9.80439805454783E+00
 N25      -4.59303806419128E+00  5.00000000000000E-01  4.66746692227953E+00
 N26      -3.48867145310417E+00  5.00000000000000E-01  5.91572637823746E+00
 N27      -2.38430471036628E+00  5.00000000000000E-01  7.16398598299952E+00
 N28      -1.27993796762840E+00  5.00000000000000E-01  8.41224558776159E+00
 N29      -1.75571224890508E-01  5.00000000000000E-01  9.66050519252365E+00
 N30       9.28795517847381E-01  5.00000000000000E-01  1.09087647972857E+01
 N31      -5.84129763604065E+00  5.00000000000000E-01  5.77183370221845E+00
 N32      -4.73693105786624E+00  5.00000000000000E-01  7.02009312097535E+00
 N33      -3.63256431512835E+00  5.00000000000000E-01  8.26835272573741E+00
 N34      -2.52819757239046E+00  5.00000000000000E-01  9.51661233049948E+00
 N35      -1.42383082965257E+00  5.00000000000000E-01  1.07648719352615E+01
 N36      -3.19464086914685E-01  5.00000000000000E-01  1.20131315400236E+01
 N37       7.02620048215737E+00  5.00000000000000E-01  7.73955720789002E+00
 N38       5.77794091030800E+00  5.00000000000000E-01  8.84392398782895E+00
 N39       4.52968133845863E+00  5.00000000000000E-01  9.94829076776787E+00
 N40       3.28142176660926E+00  5.00000000000000E-01  1.10526575477068E+01
 N41       2.03316219475989E+00  5.00000000000000E-01  1.21570243276457E+01
 N42       7.84902622910522E-01  5.00000000000000E-01  1.32613911075846E+01
 N43      -5.98519062542726E+00  5.00000000000000E-01  8.12445983080055E+00
 N44      -4.88082384548834E+00  5.00000000000000E-01  9.37271940264992E+00
 N45      -3.77645706554942E+00  5.00000000000000E-01  1.06209789744993E+01
 N46      -2.67209028561050E+00  5.00000000000000E-01  1.18692385463487E+01
 N47      -1.56772350567157E+00  5.00000000000000E-01  1.31174981181980E+01
 N48      -4.63356725732649E-01  5.00000000000000E-01  1.43657576900474E+01
 N49      -7.08955720789002E+00  5.00000000000000E-01  6.87620048215737E+00
 FINSF
 %
 SEG2    
 M61      N1       N2      
 M62      N2       N3      
 M63      N3       N4      
 M64      N4       N5      
 M65      N5       N6      
 M66      N6       N37     
 M67      N37      N38     
 M68      N38      N39     
 M69      N39      N40     
 M70      N40      N41     
 M71      N41      N42     
 M72      N42      N48     
 M73      N48      N47     
 M74      N47      N46     
 M75      N46      N45     
 M76      N45      N44     
 M77      N44      N43     
 M78      N43      N49     
 M79      N49      N31     
 M80      N31      N25     
 M81      N25      N19     
 M82      N19      N13     
 M83      N13      N7      
 M84      N7       N1      
 FINSF
 %
 QUAD4   
 M1       N1       N2       N8       N7      
 M2       N2       N3       N9       N8      
 M3       N3       N4       N10      N9      
 M4       N4       N5       N11      N10     
 M5       N5       N6       N12      N11     
 M6       N6       N37      N38      N12     
 M7       N7       N8       N14      N13     
 M8       N8       N9       N15      N14     
 M9       N9       N10      N16      N15     
 M10      N10      N11      N17      N16     
 M11      N11      N12      N18      N17     
 M12      N12      N38      N39      N18     
 M13      N13      N14      N20      N19     
 M14      N14      N15      N21      N20     
 M15      N15      N16      N22      N21     
 M16      N16      N17      N23      N22     
 M17      N17      N18      N24      N23     
 M18      N18      N39      N40      N24     
 M19      N19      N20      N26      N25     
 M20      N20      N21      N27      N26     
 M21      N21      N22      N28      N27     
 M22      N22      N23      N29      N28     
 M23      N23      N24      N30      N29     
 M24      N24      N40      N41      N30     
 M25      N25      N26      N32      N31     
 M26      N26      N27      N33      N32     
 M27      N27      N28      N34      N33     
 M28      N28      N29      N35      N34     
 M29      N29      N30      N36      N35     
 M30      N30      N41      N42      N36     
 M31      N31      N32      N43      N49     
 M32      N32      N33      N44      N43     
 M33      N33      N34      N45      N44     
 M34      N34      N35      N46      N45     
 M35      N35      N36      N47      N46     
 M36      N36      N42      N48      N47     
 FINSF
 %
 GROUP_MA
 COTE_AB 
 M61      M62      M63      M64      M65      M66     
 FINSF
 %
 GROUP_MA
 COTE_BC 
 M67      M68      M69      M70      M71      M72     
 FINSF
 %
 GROUP_MA
 COTE_CD 
 M73      M74      M75      M76      M77      M78     
 FINSF
 %
 GROUP_MA
 COTE_DA 
 M79      M80      M81      M82      M83      M84     
 FINSF
 %
 GROUP_MA
 TOUT_ELT
 M1       M2       M3       M4       M5       M6       M7      
 M8       M9       M10      M11      M12      M13      M14     
 M15      M16      M17      M18      M19      M20      M21     
 M22      M23      M24      M25      M26      M27      M28     
 M29      M30      M31      M32      M33      M34      M35     
 M36     
 FINSF
 %
 FIN
