# TITRE SOLLICITATION D'UNE MEMBRANE
#            CONFIGURATION MANAGEMENT OF EDF VERSION
# ======================================================================
# COPYRIGHT (C) 1991 - 2012  EDF R&D                  WWW.CODE-ASTER.ORG
# THIS PROGRAM IS FREE SOFTWARE; YOU CAN REDISTRIBUTE IT AND/OR MODIFY  
# IT UNDER THE TERMS OF THE GNU GENERAL PUBLIC LICENSE AS PUBLISHED BY  
# THE FREE SOFTWARE FOUNDATION; EITHER VERSION 2 OF THE LICENSE, OR     
# (AT YOUR OPTION) ANY LATER VERSION.                                                    
#                                                                       
# THIS PROGRAM IS DISTRIBUTED IN THE HOPE THAT IT WILL BE USEFUL, BUT   
# WITHOUT ANY WARRANTY; WITHOUT EVEN THE IMPLIED WARRANTY OF            
# MERCHANTABILITY OR FITNESS FOR A PARTICULAR PURPOSE. SEE THE GNU      
# GENERAL PUBLIC LICENSE FOR MORE DETAILS.                              
#                                                                       
# YOU SHOULD HAVE RECEIVED A COPY OF THE GNU GENERAL PUBLIC LICENSE     
# ALONG WITH THIS PROGRAM; IF NOT, WRITE TO EDF R&D CODE_ASTER,         
#    1 AVENUE DU GENERAL DE GAULLE, 92141 CLAMART CEDEX, FRANCE.        
# ======================================================================

DEBUT(CODE=_F(NOM='SSLS138A',NIV_PUB_WEB='INTERNET'),DEBUG=_F(SDVERI='OUI'),)

MAIL=LIRE_MAILLAGE(FORMAT = 'MED')

#
# -------------------------------------------------
# MISE EN DONNEES
# -------------------------------------------------
#

MEMBRANE=DEFI_MATERIAU(ELAS_MEMBRANE=_F(M_LLLL = 3.,
                                        M_LLTT = 1.,
                                        M_TTTT = 3.,
                                        M_LTLT = 2.,
                                        M_LLLT = 0.,
                                        M_TTLT = 0.),)

MATE=AFFE_MATERIAU(MAILLAGE=MAIL,
                   AFFE=(_F(GROUP_MA = ('FACE'),
                            MATER    = MEMBRANE,)))

MODE=AFFE_MODELE(MAILLAGE = MAIL,
                 VERIF    = 'MAILLE',
                 AFFE=(_F(GROUP_MA     = ('FACE'),
                          PHENOMENE    = 'MECANIQUE',
                          MODELISATION = 'MEMBRANE'),
                       _F(GROUP_MA     = ('X_POS','X_NEG','Y_POS','Y_NEG',),
                          PHENOMENE    = 'MECANIQUE',
                          MODELISATION = '3D'),))

CARA=AFFE_CARA_ELEM(MODELE = MODE,
                    MEMBRANE =(_F(GROUP_MA     = 'FACE',
                                  ANGL_REP     = (90., 0.,))))

CL_TRAC=AFFE_CHAR_MECA(MODELE   = MODE,
                       DDL_IMPO =(_F(GROUP_MA = 'FACE',
                                     DZ    = 0.,),
                                  _F(GROUP_MA = 'X_NEG',
                                     DX    = 0.,),
                                  _F(GROUP_MA = 'Y_NEG',
                                     DY    = 0.,),),
                       FORCE_ARETE =(_F(GROUP_MA = 'X_POS',
                                        FX    = 1.,),),)

CL_CISA=AFFE_CHAR_MECA(MODELE   = MODE,
                       DDL_IMPO =(_F(GROUP_MA = 'FACE',
                                     DZ    = 0.,),
                                  _F(GROUP_MA = 'X_NEG',
                                     DY    = 0.,),
                                  _F(GROUP_MA = 'Y_NEG',
                                     DX    = 0.,),),
                       FORCE_ARETE =(_F(GROUP_MA = 'X_POS',
                                        FY    = 1.,),
                                     _F(GROUP_MA = 'Y_POS',
                                        FX    = 1.,),),
                       LIAISON_DDL =_F(GROUP_NO  = ('POINT','POINT'),
                                       DDL       = ('DX','DY'),
                                       COEF_MULT = (1.,-1.),
                                       COEF_IMPO = 0.,),)

#
# ----------------------------------------------
# CALCULS
# ----------------------------------------------
#

LINST=DEFI_LIST_REEL(DEBUT = 0.,
                     INTERVALLE = (_F( JUSQU_A = 1.0,  NOMBRE = 1, ),),)

R_TRAC=STAT_NON_LINE(MODELE      = MODE,
                     CHAM_MATER  = MATE,
                     CARA_ELEM   = CARA,
                     EXCIT       =_F(CHARGE = CL_TRAC,),
                     COMP_INCR   =(_F(GROUP_MA       = ('FACE'),
                                      RELATION       = 'ELAS')),
                     INCREMENT   =_F(LIST_INST = LINST),
                     NEWTON      =_F(MATRICE   = 'TANGENTE',
                                     REAC_ITER = 1,),
                     CONVERGENCE =_F(RESI_REFE_RELA = 1.E-6,
                                     EPSI_REFE      = 1.,
                                     ITER_GLOB_MAXI = 30,),)

R_CISA=STAT_NON_LINE(MODELE      = MODE,
                     CHAM_MATER  = MATE,
                     CARA_ELEM   = CARA,
                     EXCIT       =_F(CHARGE = CL_CISA,),
                     COMP_INCR   =(_F(GROUP_MA       = ('FACE'),
                                      RELATION       = 'ELAS')),
                     INCREMENT   =_F(LIST_INST = LINST),
                     NEWTON      =_F(MATRICE   = 'TANGENTE',
                                     REAC_ITER = 1,),
                     CONVERGENCE =_F(RESI_REFE_RELA = 1.E-6,
                                     EPSI_REFE      = 1.,
                                     ITER_GLOB_MAXI = 30,),)

#
# ----------------------------------------------
# POST-TRAITEMENT
# ----------------------------------------------
#

R_TRAC = CALC_CHAMP(RESULTAT    = R_TRAC,
                    reuse       = R_TRAC,
                    DEFORMATION = 'EPSI_NOEU',
                    CONTRAINTE  = 'SIEF_NOEU')

R_CISA = CALC_CHAMP(RESULTAT    = R_CISA,
                    reuse       = R_CISA,
                    DEFORMATION = 'EPSI_NOEU',
                    CONTRAINTE  = 'SIEF_NOEU')

#
# ----------------------------------------------
# TESTS SUR LES RESULTATS
# ----------------------------------------------
#

# -----------
# DEPLACEMENT
# -----------

TEST_RESU(RESU=(_F(GROUP_NO='POINT',
                   INST=1.0,
                   REFERENCE='ANALYTIQUE',
                   RESULTAT=R_TRAC,
                   NOM_CHAM='DEPL',
                   NOM_CMP='DX',
                   VALE_CALC=0.375000000,
                   VALE_REFE=0.375,
                   PRECISION=9.9999999999999995E-07,),
                _F(GROUP_NO='POINT',
                   INST=1.0,
                   REFERENCE='ANALYTIQUE',
                   RESULTAT=R_TRAC,
                   NOM_CHAM='DEPL',
                   NOM_CMP='DY',
                   VALE_CALC=-0.125000000,
                   VALE_REFE=-0.125,
                   PRECISION=9.9999999999999995E-07,),
                ),
          )

TEST_RESU(RESU=(_F(GROUP_NO='POINT',
                   INST=1.0,
                   REFERENCE='ANALYTIQUE',
                   RESULTAT=R_CISA,
                   NOM_CHAM='DEPL',
                   NOM_CMP='DX',
                   VALE_CALC=0.500000000,
                   VALE_REFE=0.5,
                   PRECISION=9.9999999999999995E-07,),
                _F(GROUP_NO='POINT',
                   INST=1.0,
                   REFERENCE='ANALYTIQUE',
                   RESULTAT=R_CISA,
                   NOM_CHAM='DEPL',
                   NOM_CMP='DY',
                   VALE_CALC=0.500000000,
                   VALE_REFE=0.5,
                   PRECISION=9.9999999999999995E-07,),
                ),
          )

# ------------
# DEFORMATIONS
# ------------

TEST_RESU(RESU=(_F(GROUP_NO='POINT',
                   INST=1.0,
                   REFERENCE='ANALYTIQUE',
                   RESULTAT=R_TRAC,
                   NOM_CHAM='EPSI_NOEU',
                   NOM_CMP='EXX',
                   VALE_CALC=-0.125000000,
                   VALE_REFE=-0.125,
                   PRECISION=9.9999999999999995E-07,),
                _F(GROUP_NO='POINT',
                   INST=1.0,
                   REFERENCE='ANALYTIQUE',
                   RESULTAT=R_TRAC,
                   NOM_CHAM='EPSI_NOEU',
                   NOM_CMP='EYY',
                   VALE_CALC=0.375000000,
                   VALE_REFE=0.375,
                   PRECISION=9.9999999999999995E-07,),
                _F(GROUP_NO='POINT',
                   INST=1.0,
                   REFERENCE='ANALYTIQUE',
                   RESULTAT=R_TRAC,
                   NOM_CHAM='EPSI_NOEU',
                   NOM_CMP='EXY',
                   VALE_CALC= 0.00000000E+00,
                   VALE_REFE=0.0,
                   CRITERE='ABSOLU',
                   PRECISION=9.9999999999999995E-07,),
                ),
          )

TEST_RESU(RESU=(_F(GROUP_NO='POINT',
                   INST=1.0,
                   REFERENCE='ANALYTIQUE',
                   RESULTAT=R_CISA,
                   NOM_CHAM='EPSI_NOEU',
                   NOM_CMP='EXX',
                   VALE_CALC= 3.87433821E-15,
                   VALE_REFE=0.0,
                   CRITERE='ABSOLU',
                   PRECISION=9.9999999999999995E-07,),
                _F(GROUP_NO='POINT',
                   INST=1.0,
                   REFERENCE='ANALYTIQUE',
                   RESULTAT=R_CISA,
                   NOM_CHAM='EPSI_NOEU',
                   NOM_CMP='EYY',
                   VALE_CALC=-2.98615979E-15,
                   VALE_REFE=0.0,
                   CRITERE='ABSOLU',
                   PRECISION=9.9999999999999995E-07,),
                _F(GROUP_NO='POINT',
                   INST=1.0,
                   VALE_ABS='OUI',
                   REFERENCE='ANALYTIQUE',
                   RESULTAT=R_CISA,
                   NOM_CHAM='EPSI_NOEU',
                   NOM_CMP='EXY',
                   VALE_CALC=0.707106781,
                   VALE_REFE=0.70710678118654757,
                   PRECISION=9.9999999999999995E-07,),
                ),
          )

# -----------
# CONTRAINTES
# -----------

TEST_RESU(RESU=(_F(GROUP_NO='POINT',
                   INST=1.0,
                   REFERENCE='ANALYTIQUE',
                   RESULTAT=R_TRAC,
                   NOM_CHAM='SIEF_NOEU',
                   NOM_CMP='NXX',
                   VALE_CALC= 7.21644966E-16,
                   VALE_REFE=0.0,
                   CRITERE='ABSOLU',
                   PRECISION=9.9999999999999995E-07,),
                _F(GROUP_NO='POINT',
                   INST=1.0,
                   REFERENCE='ANALYTIQUE',
                   RESULTAT=R_TRAC,
                   NOM_CHAM='SIEF_NOEU',
                   NOM_CMP='NYY',
                   VALE_CALC=1.000000000,
                   VALE_REFE=1.0,
                   PRECISION=9.9999999999999995E-07,),
                _F(GROUP_NO='POINT',
                   INST=1.0,
                   REFERENCE='ANALYTIQUE',
                   RESULTAT=R_TRAC,
                   NOM_CHAM='SIEF_NOEU',
                   NOM_CMP='NXY',
                   VALE_CALC= 0.00000000E+00,
                   VALE_REFE=0.0,
                   CRITERE='ABSOLU',
                   PRECISION=9.9999999999999995E-07,),
                ),
          )

TEST_RESU(RESU=(_F(GROUP_NO='POINT',
                   INST=1.0,
                   REFERENCE='ANALYTIQUE',
                   RESULTAT=R_CISA,
                   NOM_CHAM='SIEF_NOEU',
                   NOM_CMP='NXX',
                   VALE_CALC= 8.63685484E-15,
                   VALE_REFE=0.0,
                   CRITERE='ABSOLU',
                   PRECISION=9.9999999999999995E-07,),
                _F(GROUP_NO='POINT',
                   INST=1.0,
                   REFERENCE='ANALYTIQUE',
                   RESULTAT=R_CISA,
                   NOM_CHAM='SIEF_NOEU',
                   NOM_CMP='NYY',
                   VALE_CALC=-5.08414116E-15,
                   VALE_REFE=0.0,
                   CRITERE='ABSOLU',
                   PRECISION=9.9999999999999995E-07,),
                _F(GROUP_NO='POINT',
                   INST=1.0,
                   VALE_ABS='OUI',
                   REFERENCE='ANALYTIQUE',
                   RESULTAT=R_CISA,
                   NOM_CHAM='SIEF_NOEU',
                   NOM_CMP='NXY',
                   VALE_CALC=1.414213562,
                   VALE_REFE=1.4142135623730951,
                   PRECISION=9.9999999999999995E-07,),
                ),
          )

FIN()
