# TITRE  PLAQUE CARREE EN APPUI SIMPLE SOUS PRESSION SINUSOIDALE
# ======================================================================
# COPYRIGHT (C) 1991 - 2012  EDF R&D                  WWW.CODE-ASTER.ORG
# THIS PROGRAM IS FREE SOFTWARE; YOU CAN REDISTRIBUTE IT AND/OR MODIFY
# IT UNDER THE TERMS OF THE GNU GENERAL PUBLIC LICENSE AS PUBLISHED BY
# THE FREE SOFTWARE FOUNDATION; EITHER VERSION 2 OF THE LICENSE, OR
# (AT YOUR OPTION) ANY LATER VERSION.
#
# THIS PROGRAM IS DISTRIBUTED IN THE HOPE THAT IT WILL BE USEFUL, BUT
# WITHOUT ANY WARRANTY; WITHOUT EVEN THE IMPLIED WARRANTY OF
# MERCHANTABILITY OR FITNESS FOR A PARTICULAR PURPOSE. SEE THE GNU
# GENERAL PUBLIC LICENSE FOR MORE DETAILS.
#
# YOU SHOULD HAVE RECEIVED A COPY OF THE GNU GENERAL PUBLIC LICENSE
# ALONG WITH THIS PROGRAM; IF NOT, WRITE TO EDF R&D CODE_ASTER,
#    1 AVENUE DU GENERAL DE GAULLE, 92141 CLAMART CEDEX, FRANCE.
# ======================================================================
#---------------------------------------------------------------------
#         - MODELISATION AVEC DES ELEMENTS 'Q4GG'(QUAD4)
#---------------------------------------------------------------------
#
DEBUT(CODE=_F(NIV_PUB_WEB='INTERNET'),DEBUG=_F(SDVERI='OUI'))
EP=0.1;            # Epaisseur
AX=0.;             # Taux de ferraillage
AY=0.;             # Taux de ferraillage
EZ=0.038;          # Distance grille/surface moyenne de la dalle
EZ=0.5*EP - EZ     # Enrobage
# R0=EZ/(0.5*EP)   # Distance normalisee du ferraillage par rapport
                     # au feuillet moyen
R0=0.1  # Valeur Bidon

# Caracteristiques du beton

EB=25.;    # Module d'Young
NUB=0.25;

# Caracteristiques de l'acier (armatures)

E=25.;    # Module d'Young
NU=0.25;   # Coefficient de poisson

MA=LIRE_MAILLAGE(VERI_MAIL=_F(VERIF='OUI'),FORMAT='MED');

MA=DEFI_GROUP(reuse=MA,
              CREA_GROUP_MA=_F(TOUT='OUI',
                               NOM='TOUT',),
              MAILLAGE=MA,
              CREA_GROUP_NO=(_F(GROUP_MA='AB',),
                             _F(GROUP_MA='BC',),
                             _F(GROUP_MA='CD',),
                             _F(GROUP_MA='DA',),),);

MO=AFFE_MODELE(AFFE=_F(TOUT='OUI',
                       PHENOMENE='MECANIQUE',
                       MODELISATION='Q4GG',),
               MAILLAGE=MA,);
CAR_ELE=AFFE_CARA_ELEM(MODELE=MO,
                       COQUE=_F(ANGL_REP=(0.0,0.0),
                                GROUP_MA='TOUT',
                                EPAIS=0.1,),);
CPRAG=0.
GAM=0.0

CPRG=CPRAG
MF=1.0E16
QP=0.15E0

MAT_B=DEFI_MATERIAU(ELAS=_F(E=EB,
                            NU=NUB,
                            RHO=2500.0,),
                    BETON_ECRO_LINE=_F(D_SIGM_EPSI=0.0,
                                       SYT=4.4E6,
                                       SYC=-52.5E6,),);

MAT_A=DEFI_MATERIAU(ELAS=_F(E=E,
                            NU=NU,),
                    ECRO_LINE=_F(D_SIGM_EPSI=0.0,
                                 SY=5.E8,),);

MAT=DEFI_MATERIAU(ELAS=_F(E=E,
                          NU=NU,),);

#MAT=DEFI_GLRC(RELATION='GLRC_DAMAGE',
              #BETON=_F(MATER=MAT_B,
                       #EPAIS=EP,
                       #GAMMA=GAM,
                       #QP1=QP,
                       #QP2=QP,
                       #C1N1=CPRG,C1N2=CPRG,C1N3=CPRG,
                       #C2N1=CPRG,C2N2=CPRG,C2N3=CPRG,
                       #C1M1=CPRG,C1M2=CPRG,C1M3=CPRG,
                       #C2M1=CPRG,C2M2=CPRG,C2M3=CPRG,),
              #NAPPE=(_F(MATER=MAT_A,
                        #OMX=AX,
                        #OMY=AY,
                        #RX=R0,
                        #RY=R0,),
                     #_F(MATER=MAT_A,
                        #OMX=AX,
                        #OMY=AY,
                        #RX=-R0,
                        #RY=-R0,),),
              #INFO=2,);


CHAM_MAT=AFFE_MATERIAU(AFFE=_F(MATER=MAT,
                               TOUT='OUI',),
                       MAILLAGE=MA,);
PO=1.0
P=FORMULE(NOM_PARA=('X','Y'),VALE='PO*sin(pi*X)*sin(pi*Y)''');

CHA=AFFE_CHAR_MECA(MODELE=MO,
                   DDL_IMPO=(_F(GROUP_NO='O',
                                DX=0.0,
                                DY=0.0,
                                DRX=0.0,
                                DRY=0.0,
                                DRZ=0.0,),
                             _F(GROUP_NO='AB',
                                DX=0.0,
                                DZ=0.0,
                                DRY=0.0,),
                             _F(GROUP_NO='BC',
                                DY=0.0,
                                DZ=0.0,
                                DRX=0.0,),
                             _F(GROUP_NO='CD',
                                DX=0.0,
                                DZ=0.0,
                                DRY=0.0,),
                             _F(GROUP_NO='DA',
                                DY=0.0,
                                DZ=0.0,
                                DRX=0.0,),),
                   FORCE_ARETE=(_F(MY=0.0,
                                   GROUP_MA='AB',),
                                _F(MY=0.0,
                                   GROUP_MA='CD',),
                                _F(MX=0.0,
                                   GROUP_MA='BC',),
                                _F(MX=0.0,
                                   GROUP_MA='DA',),),);

CHA_P=AFFE_CHAR_MECA_F(MODELE=MO,
                       FORCE_COQUE=_F(PRES=P,
                                      GROUP_MA='MAIL1',),);

INST=DEFI_LIST_REEL(DEBUT=0.0,
                    INTERVALLE=(_F(JUSQU_A=1.,NOMBRE=1),),);

RESU=STAT_NON_LINE(MODELE=MO,
                   CHAM_MATER=CHAM_MAT,
                   CARA_ELEM=CAR_ELE,
                   COMPORTEMENT=_F(RELATION='ELAS',),
                   CONVERGENCE=_F(ITER_GLOB_MAXI=10),
                   INCREMENT=_F(LIST_INST=INST,
                                PRECISION=1.E-1),
                   EXCIT=(_F(CHARGE=CHA,),
                          _F(CHARGE=CHA_P,),),);

EFF=CALC_CHAMP(RESULTAT=RESU,
               CONTRAINTE='EFGE_ELNO',);

TEST_RESU(RESU=(_F(NUME_ORDRE=1,
                   GROUP_NO='O',
                   RESULTAT=RESU,
                   NOM_CHAM='DEPL',
                   NOM_CMP='DZ',
                   VALE_CALC=-1.197821275,
                   VALE_REFE=-1.1549,
                   REFERENCE='NON_DEFINI',
                   PRECISION=0.044999999999999998,),
                _F(NUME_ORDRE=1,
                   GROUP_NO='O',
                   RESULTAT=EFF,
                   NOM_CHAM='EFGE_ELNO',
                   NOM_CMP='NYY',
                   VALE_CALC= 0.00000000E+00,
                   VALE_REFE=0.0,
                   REFERENCE='NON_DEFINI',
                   CRITERE='ABSOLU',
                   PRECISION=1.E-2,
                   MAILLE='M115',),
                _F(NUME_ORDRE=1,
                   GROUP_NO='O',
                   RESULTAT=EFF,
                   NOM_CHAM='EFGE_ELNO',
                   NOM_CMP='NXY',
                   VALE_CALC= 0.00000000E+00,
                   VALE_REFE=0.0,
                   REFERENCE='NON_DEFINI',
                   CRITERE='ABSOLU',
                   PRECISION=1.E-2,
                   MAILLE='M115',),
                _F(NUME_ORDRE=1,
                   GROUP_NO='O',
                   RESULTAT=EFF,
                   NOM_CHAM='EFGE_ELNO',
                   NOM_CMP='MXX',
                   VALE_CALC=-0.031003971,
                   VALE_REFE=-0.031662799999999998,
                   REFERENCE='NON_DEFINI',
                   PRECISION=0.025000000000000001,
                   MAILLE='M115',),
                _F(NUME_ORDRE=1,
                   GROUP_NO='O',
                   RESULTAT=EFF,
                   NOM_CHAM='EFGE_ELNO',
                   NOM_CMP='MYY',
                   VALE_CALC=-0.031003971,
                   VALE_REFE=-0.031662799999999998,
                   REFERENCE='NON_DEFINI',
                   PRECISION=0.025000000000000001,
                   MAILLE='M115',),
                _F(NUME_ORDRE=1,
                   GROUP_NO='O',
                   RESULTAT=EFF,
                   NOM_CHAM='EFGE_ELNO',
                   NOM_CMP='MXY',
                   VALE_CALC=-1.71931978E-12,
                   VALE_REFE=0.0,
                   REFERENCE='NON_DEFINI',
                   CRITERE='ABSOLU',
                   PRECISION=1.E-2,
                   MAILLE='M115',),
                _F(NUME_ORDRE=1,
                   GROUP_NO='O',
                   RESULTAT=EFF,
                   NOM_CHAM='EFGE_ELNO',
                   NOM_CMP='QX',
                   VALE_CALC=-0.020598069,
                   VALE_REFE=0.0,
                   REFERENCE='NON_DEFINI',
                   CRITERE='ABSOLU',
                   PRECISION=0.025000000000000001,
                   MAILLE='M115',),
                _F(NUME_ORDRE=1,
                   GROUP_NO='O',
                   RESULTAT=EFF,
                   NOM_CHAM='EFGE_ELNO',
                   NOM_CMP='QY',
                   VALE_CALC=-0.020598064,
                   VALE_REFE=0.0,
                   REFERENCE='NON_DEFINI',
                   CRITERE='ABSOLU',
                   PRECISION=0.025000000000000001,
                   MAILLE='M115',),
                _F(NUME_ORDRE=1,
                   GROUP_NO='O',
                   RESULTAT=EFF,
                   NOM_CHAM='EFGE_ELNO',
                   NOM_CMP='QX',
                   VALE_CALC=0.020598063,
                   VALE_REFE=0.0,
                   REFERENCE='NON_DEFINI',
                   CRITERE='ABSOLU',
                   PRECISION=0.025000000000000001,
                   MAILLE='M128',),
                _F(NUME_ORDRE=1,
                   GROUP_NO='O',
                   RESULTAT=EFF,
                   NOM_CHAM='EFGE_ELNO',
                   NOM_CMP='QY',
                   VALE_CALC=0.020598069,
                   VALE_REFE=0.0,
                   REFERENCE='NON_DEFINI',
                   CRITERE='ABSOLU',
                   PRECISION=0.025000000000000001,
                   MAILLE='M128',),
                _F(NUME_ORDRE=1,
                   GROUP_NO='O',
                   RESULTAT=EFF,
                   NOM_CHAM='EFGE_ELNO',
                   NOM_CMP='QX',
                   VALE_CALC=-0.020598069,
                   VALE_REFE=0.0,
                   REFERENCE='NON_DEFINI',
                   CRITERE='ABSOLU',
                   PRECISION=0.025000000000000001,
                   MAILLE='M115',),
                _F(NUME_ORDRE=1,
                   GROUP_NO='O',
                   RESULTAT=EFF,
                   NOM_CHAM='EFGE_ELNO',
                   NOM_CMP='QY',
                   VALE_CALC=-0.020598064,
                   VALE_REFE=0.0,
                   REFERENCE='NON_DEFINI',
                   CRITERE='ABSOLU',
                   PRECISION=0.025000000000000001,
                   MAILLE='M115',),
                _F(NUME_ORDRE=1,
                   GROUP_NO='O',
                   RESULTAT=EFF,
                   NOM_CHAM='EFGE_ELNO',
                   NOM_CMP='QX',
                   VALE_CALC=-0.020598066,
                   VALE_REFE=0.0,
                   REFERENCE='NON_DEFINI',
                   CRITERE='ABSOLU',
                   PRECISION=0.025000000000000001,
                   MAILLE='M127',),
                _F(NUME_ORDRE=1,
                   GROUP_NO='O',
                   RESULTAT=EFF,
                   NOM_CHAM='EFGE_ELNO',
                   NOM_CMP='QY',
                   VALE_CALC=0.020598065,
                   VALE_REFE=0.0,
                   REFERENCE='NON_DEFINI',
                   CRITERE='ABSOLU',
                   PRECISION=0.025000000000000001,
                   MAILLE='M127',),
                _F(NUME_ORDRE=1,
                   GROUP_NO='C',
                   RESULTAT=EFF,
                   NOM_CHAM='EFGE_ELNO',
                   NOM_CMP='NXX',
                   VALE_CALC= 0.00000000E+00,
                   VALE_REFE=0.0,
                   REFERENCE='NON_DEFINI',
                   CRITERE='ABSOLU',
                   PRECISION=1.E-2,
                   MAILLE='M193',),
                _F(NUME_ORDRE=1,
                   GROUP_NO='C',
                   RESULTAT=EFF,
                   NOM_CHAM='EFGE_ELNO',
                   NOM_CMP='NYY',
                   VALE_CALC= 0.00000000E+00,
                   VALE_REFE=0.0,
                   REFERENCE='NON_DEFINI',
                   CRITERE='ABSOLU',
                   PRECISION=1.E-2,
                   MAILLE='M193',),
                _F(NUME_ORDRE=1,
                   GROUP_NO='C',
                   RESULTAT=EFF,
                   NOM_CHAM='EFGE_ELNO',
                   NOM_CMP='NXY',
                   VALE_CALC= 0.00000000E+00,
                   VALE_REFE=0.0,
                   REFERENCE='NON_DEFINI',
                   CRITERE='ABSOLU',
                   PRECISION=1.E-2,
                   MAILLE='M193',),
                _F(NUME_ORDRE=1,
                   GROUP_NO='C',
                   RESULTAT=EFF,
                   NOM_CHAM='EFGE_ELNO',
                   NOM_CMP='MXX',
                   VALE_CALC= 1.04946881E-12,
                   VALE_REFE=0.0,
                   REFERENCE='NON_DEFINI',
                   CRITERE='ABSOLU',
                   PRECISION=1.E-2,
                   MAILLE='M193',),
                _F(NUME_ORDRE=1,
                   GROUP_NO='C',
                   RESULTAT=EFF,
                   NOM_CHAM='EFGE_ELNO',
                   NOM_CMP='MYY',
                   VALE_CALC=-3.67315688E-12,
                   VALE_REFE=0.0,
                   REFERENCE='NON_DEFINI',
                   CRITERE='ABSOLU',
                   PRECISION=1.E-2,
                   MAILLE='M193',),
                _F(NUME_ORDRE=1,
                   GROUP_NO='C',
                   RESULTAT=EFF,
                   NOM_CHAM='EFGE_ELNO',
                   NOM_CMP='MXY',
                   VALE_CALC=0.018602383,
                   VALE_REFE=0.018997799999999999,
                   REFERENCE='NON_DEFINI',
                   PRECISION=0.029999999999999999,
                   MAILLE='M193',),
                _F(NUME_ORDRE=1,
                   GROUP_NO='C',
                   RESULTAT=EFF,
                   NOM_CHAM='EFGE_ELNO',
                   NOM_CMP='QX',
                   VALE_CALC=-1.00568673E-10,
                   VALE_REFE=0.0,
                   REFERENCE='NON_DEFINI',
                   CRITERE='ABSOLU',
                   PRECISION=1.E-2,
                   MAILLE='M193',),
                _F(NUME_ORDRE=1,
                   GROUP_NO='C',
                   RESULTAT=EFF,
                   NOM_CHAM='EFGE_ELNO',
                   NOM_CMP='QY',
                   VALE_CALC= 2.01137267E-10,
                   VALE_REFE=0.0,
                   REFERENCE='NON_DEFINI',
                   CRITERE='ABSOLU',
                   PRECISION=1.E-2,
                   MAILLE='M193',),
                _F(NUME_ORDRE=1,
                   GROUP_NO='D',
                   RESULTAT=EFF,
                   NOM_CHAM='EFGE_ELNO',
                   NOM_CMP='NXX',
                   VALE_CALC= 0.00000000E+00,
                   VALE_REFE=0.0,
                   REFERENCE='NON_DEFINI',
                   CRITERE='ABSOLU',
                   PRECISION=1.E-2,
                   MAILLE='M182',),
                _F(NUME_ORDRE=1,
                   GROUP_NO='D',
                   RESULTAT=EFF,
                   NOM_CHAM='EFGE_ELNO',
                   NOM_CMP='NYY',
                   VALE_CALC= 0.00000000E+00,
                   VALE_REFE=0.0,
                   REFERENCE='NON_DEFINI',
                   CRITERE='ABSOLU',
                   PRECISION=1.E-2,
                   MAILLE='M182',),
                _F(NUME_ORDRE=1,
                   GROUP_NO='D',
                   RESULTAT=EFF,
                   NOM_CHAM='EFGE_ELNO',
                   NOM_CMP='NXY',
                   VALE_CALC= 0.00000000E+00,
                   VALE_REFE=0.0,
                   REFERENCE='NON_DEFINI',
                   CRITERE='ABSOLU',
                   PRECISION=1.E-2,
                   MAILLE='M182',),
                _F(NUME_ORDRE=1,
                   GROUP_NO='D',
                   RESULTAT=EFF,
                   NOM_CHAM='EFGE_ELNO',
                   NOM_CMP='MXX',
                   VALE_CALC=-3.14842244E-12,
                   VALE_REFE=0.0,
                   REFERENCE='NON_DEFINI',
                   CRITERE='ABSOLU',
                   PRECISION=1.E-2,
                   MAILLE='M182',),
                _F(NUME_ORDRE=1,
                   GROUP_NO='D',
                   RESULTAT=EFF,
                   NOM_CHAM='EFGE_ELNO',
                   NOM_CMP='MYY',
                   VALE_CALC= 3.14841913E-12,
                   VALE_REFE=0.0,
                   REFERENCE='NON_DEFINI',
                   CRITERE='ABSOLU',
                   PRECISION=1.E-2,
                   MAILLE='M182',),
                _F(NUME_ORDRE=1,
                   GROUP_NO='D',
                   RESULTAT=EFF,
                   NOM_CHAM='EFGE_ELNO',
                   NOM_CMP='MXY',
                   VALE_CALC=-0.018602383,
                   VALE_REFE=-0.018997799999999999,
                   REFERENCE='NON_DEFINI',
                   PRECISION=0.029999999999999999,
                   MAILLE='M182',),
                _F(NUME_ORDRE=1,
                   GROUP_NO='D',
                   RESULTAT=EFF,
                   NOM_CHAM='EFGE_ELNO',
                   NOM_CMP='QX',
                   VALE_CALC=-2.01137159E-10,
                   VALE_REFE=0.0,
                   REFERENCE='NON_DEFINI',
                   CRITERE='ABSOLU',
                   PRECISION=1.E-2,
                   MAILLE='M182',),
                _F(NUME_ORDRE=1,
                   GROUP_NO='D',
                   RESULTAT=EFF,
                   NOM_CHAM='EFGE_ELNO',
                   NOM_CMP='QY',
                   VALE_CALC=-2.01137069E-10,
                   VALE_REFE=0.0,
                   REFERENCE='NON_DEFINI',
                   CRITERE='ABSOLU',
                   PRECISION=1.E-2,
                   MAILLE='M182',),
                _F(NUME_ORDRE=1,
                   GROUP_NO='D1',
                   RESULTAT=EFF,
                   NOM_CHAM='EFGE_ELNO',
                   NOM_CMP='NXX',
                   VALE_CALC= 0.00000000E+00,
                   VALE_REFE=0.0,
                   REFERENCE='NON_DEFINI',
                   CRITERE='ABSOLU',
                   PRECISION=1.E-2,
                   MAILLE='M110',),
                _F(NUME_ORDRE=1,
                   GROUP_NO='D1',
                   RESULTAT=EFF,
                   NOM_CHAM='EFGE_ELNO',
                   NOM_CMP='NYY',
                   VALE_CALC= 0.00000000E+00,
                   VALE_REFE=0.0,
                   REFERENCE='NON_DEFINI',
                   CRITERE='ABSOLU',
                   PRECISION=1.E-2,
                   MAILLE='M110',),
                _F(NUME_ORDRE=1,
                   GROUP_NO='D1',
                   RESULTAT=EFF,
                   NOM_CHAM='EFGE_ELNO',
                   NOM_CMP='NXY',
                   VALE_CALC= 0.00000000E+00,
                   VALE_REFE=0.0,
                   REFERENCE='NON_DEFINI',
                   CRITERE='ABSOLU',
                   PRECISION=1.E-2,
                   MAILLE='M110',),
                _F(NUME_ORDRE=1,
                   GROUP_NO='D1',
                   RESULTAT=EFF,
                   NOM_CHAM='EFGE_ELNO',
                   NOM_CMP='MXX',
                   VALE_CALC=-3.26539973E-03,
                   VALE_REFE=0.0,
                   REFERENCE='NON_DEFINI',
                   CRITERE='ABSOLU',
                   PRECISION=1.E-2,
                   MAILLE='M110',),
                _F(NUME_ORDRE=1,
                   GROUP_NO='D1',
                   RESULTAT=EFF,
                   NOM_CHAM='EFGE_ELNO',
                   NOM_CMP='MYY',
                   VALE_CALC=-8.16349932E-04,
                   VALE_REFE=0.0,
                   REFERENCE='NON_DEFINI',
                   CRITERE='ABSOLU',
                   PRECISION=1.E-2,
                   MAILLE='M110',),
                _F(NUME_ORDRE=1,
                   GROUP_NO='D1',
                   RESULTAT=EFF,
                   NOM_CHAM='EFGE_ELNO',
                   NOM_CMP='MXY',
                   VALE_CALC= 1.22452504E-03,
                   VALE_REFE=0.0,
                   REFERENCE='NON_DEFINI',
                   CRITERE='ABSOLU',
                   PRECISION=1.E-2,
                   MAILLE='M110',),
                _F(NUME_ORDRE=1,
                   GROUP_NO='D1',
                   RESULTAT=EFF,
                   NOM_CHAM='EFGE_ELNO',
                   NOM_CMP='QX',
                   VALE_CALC=-0.156457848,
                   VALE_REFE=-0.15915499999999999,
                   REFERENCE='NON_DEFINI',
                   PRECISION=0.20999999999999999,
                   MAILLE='M110',),
                _F(NUME_ORDRE=1,
                   GROUP_NO='D1',
                   RESULTAT=EFF,
                   NOM_CHAM='EFGE_ELNO',
                   NOM_CMP='QY',
                   VALE_CALC=-1.99493200E-17,
                   VALE_REFE=0.0,
                   REFERENCE='NON_DEFINI',
                   CRITERE='ABSOLU',
                   PRECISION=1.E-2,
                   MAILLE='M110',),
                _F(NUME_ORDRE=1,
                   GROUP_NO='D1',
                   RESULTAT=EFF,
                   NOM_CHAM='EFGE_ELNO',
                   NOM_CMP='QX',
                   VALE_CALC=-0.156457848,
                   VALE_REFE=-0.15915499999999999,
                   REFERENCE='NON_DEFINI',
                   PRECISION=0.20999999999999999,
                   MAILLE='M122',),
                _F(NUME_ORDRE=1,
                   GROUP_NO='D1',
                   RESULTAT=EFF,
                   NOM_CHAM='EFGE_ELNO',
                   NOM_CMP='QY',
                   VALE_CALC= 1.32397244E-11,
                   VALE_REFE=0.0,
                   REFERENCE='NON_DEFINI',
                   CRITERE='ABSOLU',
                   PRECISION=1.E-2,
                   MAILLE='M122',),
                _F(NUME_ORDRE=1,
                   GROUP_NO='A',
                   RESULTAT=EFF,
                   NOM_CHAM='EFGE_ELNO',
                   NOM_CMP='NXX',
                   VALE_CALC= 0.00000000E+00,
                   VALE_REFE=0.0,
                   REFERENCE='NON_DEFINI',
                   CRITERE='ABSOLU',
                   PRECISION=1.E-2,
                   MAILLE='M50',),
                _F(NUME_ORDRE=1,
                   GROUP_NO='A',
                   RESULTAT=EFF,
                   NOM_CHAM='EFGE_ELNO',
                   NOM_CMP='NYY',
                   VALE_CALC= 0.00000000E+00,
                   VALE_REFE=0.0,
                   REFERENCE='NON_DEFINI',
                   CRITERE='ABSOLU',
                   PRECISION=1.E-2,
                   MAILLE='M50',),
                _F(NUME_ORDRE=1,
                   GROUP_NO='A',
                   RESULTAT=EFF,
                   NOM_CHAM='EFGE_ELNO',
                   NOM_CMP='NXY',
                   VALE_CALC= 0.00000000E+00,
                   VALE_REFE=0.0,
                   REFERENCE='NON_DEFINI',
                   CRITERE='ABSOLU',
                   PRECISION=1.E-2,
                   MAILLE='M50',),
                _F(NUME_ORDRE=1,
                   GROUP_NO='A',
                   RESULTAT=EFF,
                   NOM_CHAM='EFGE_ELNO',
                   NOM_CMP='MXX',
                   VALE_CALC= 3.67315678E-12,
                   VALE_REFE=0.0,
                   REFERENCE='NON_DEFINI',
                   CRITERE='ABSOLU',
                   PRECISION=1.E-2,
                   MAILLE='M50',),
                _F(NUME_ORDRE=1,
                   GROUP_NO='A',
                   RESULTAT=EFF,
                   NOM_CHAM='EFGE_ELNO',
                   NOM_CMP='MYY',
                   VALE_CALC=-1.04947634E-12,
                   VALE_REFE=0.0,
                   REFERENCE='NON_DEFINI',
                   CRITERE='ABSOLU',
                   PRECISION=1.E-2,
                   MAILLE='M50',),
                _F(NUME_ORDRE=1,
                   GROUP_NO='A',
                   RESULTAT=EFF,
                   NOM_CHAM='EFGE_ELNO',
                   NOM_CMP='MXY',
                   VALE_CALC=0.018602383,
                   VALE_REFE=0.018997799999999999,
                   REFERENCE='NON_DEFINI',
                   PRECISION=0.029999999999999999,
                   MAILLE='M50',),
                _F(NUME_ORDRE=1,
                   GROUP_NO='A',
                   RESULTAT=EFF,
                   NOM_CHAM='EFGE_ELNO',
                   NOM_CMP='QY',
                   VALE_CALC=-1.00568516E-10,
                   VALE_REFE=0.0,
                   REFERENCE='NON_DEFINI',
                   CRITERE='ABSOLU',
                   PRECISION=1.E-2,
                   MAILLE='M50',),
                _F(NUME_ORDRE=1,
                   GROUP_NO='A',
                   RESULTAT=EFF,
                   NOM_CHAM='EFGE_ELNO',
                   NOM_CMP='QX',
                   VALE_CALC= 2.01137152E-10,
                   VALE_REFE=0.0,
                   REFERENCE='NON_DEFINI',
                   CRITERE='ABSOLU',
                   PRECISION=1.E-2,
                   MAILLE='M50',),
                _F(NUME_ORDRE=1,
                   GROUP_NO='B',
                   RESULTAT=EFF,
                   NOM_CHAM='EFGE_ELNO',
                   NOM_CMP='NXX',
                   VALE_CALC= 0.00000000E+00,
                   VALE_REFE=0.0,
                   REFERENCE='NON_DEFINI',
                   CRITERE='ABSOLU',
                   PRECISION=1.E-2,
                   MAILLE='M61',),
                _F(NUME_ORDRE=1,
                   GROUP_NO='B',
                   RESULTAT=EFF,
                   NOM_CHAM='EFGE_ELNO',
                   NOM_CMP='NYY',
                   VALE_CALC= 0.00000000E+00,
                   VALE_REFE=0.0,
                   REFERENCE='NON_DEFINI',
                   CRITERE='ABSOLU',
                   PRECISION=1.E-2,
                   MAILLE='M61',),
                _F(NUME_ORDRE=1,
                   GROUP_NO='B',
                   RESULTAT=EFF,
                   NOM_CHAM='EFGE_ELNO',
                   NOM_CMP='NXY',
                   VALE_CALC= 0.00000000E+00,
                   VALE_REFE=0.0,
                   REFERENCE='NON_DEFINI',
                   CRITERE='ABSOLU',
                   PRECISION=1.E-2,
                   MAILLE='M61',),
                _F(NUME_ORDRE=1,
                   GROUP_NO='B',
                   RESULTAT=EFF,
                   NOM_CHAM='EFGE_ELNO',
                   NOM_CMP='MXX',
                   VALE_CALC=-1.57420481E-12,
                   VALE_REFE=0.0,
                   REFERENCE='NON_DEFINI',
                   CRITERE='ABSOLU',
                   PRECISION=1.E-2,
                   MAILLE='M61',),
                _F(NUME_ORDRE=1,
                   GROUP_NO='B',
                   RESULTAT=EFF,
                   NOM_CHAM='EFGE_ELNO',
                   NOM_CMP='MYY',
                   VALE_CALC= 1.57423159E-12,
                   VALE_REFE=0.0,
                   REFERENCE='NON_DEFINI',
                   CRITERE='ABSOLU',
                   PRECISION=1.E-2,
                   MAILLE='M61',),
                _F(NUME_ORDRE=1,
                   GROUP_NO='B',
                   RESULTAT=EFF,
                   NOM_CHAM='EFGE_ELNO',
                   NOM_CMP='MXY',
                   VALE_CALC=-0.018602383,
                   VALE_REFE=-0.018997799999999999,
                   REFERENCE='NON_DEFINI',
                   PRECISION=0.029999999999999999,
                   MAILLE='M61',),
                _F(NUME_ORDRE=1,
                   GROUP_NO='B',
                   RESULTAT=EFF,
                   NOM_CHAM='EFGE_ELNO',
                   NOM_CMP='QY',
                   VALE_CALC= 1.00568266E-10,
                   VALE_REFE=0.0,
                   REFERENCE='NON_DEFINI',
                   CRITERE='ABSOLU',
                   PRECISION=1.E-2,
                   MAILLE='M61',),
                _F(NUME_ORDRE=1,
                   GROUP_NO='B',
                   RESULTAT=EFF,
                   NOM_CHAM='EFGE_ELNO',
                   NOM_CMP='QX',
                   VALE_CALC= 1.00568551E-10,
                   VALE_REFE=0.0,
                   REFERENCE='NON_DEFINI',
                   CRITERE='ABSOLU',
                   PRECISION=1.E-2,
                   MAILLE='M61',),
                _F(NUME_ORDRE=1,
                   GROUP_NO='B1',
                   RESULTAT=EFF,
                   NOM_CHAM='EFGE_ELNO',
                   NOM_CMP='NXX',
                   VALE_CALC= 0.00000000E+00,
                   VALE_REFE=0.0,
                   REFERENCE='NON_DEFINI',
                   CRITERE='ABSOLU',
                   PRECISION=1.E-2,
                   MAILLE='M55',),
                _F(NUME_ORDRE=1,
                   GROUP_NO='B1',
                   RESULTAT=EFF,
                   NOM_CHAM='EFGE_ELNO',
                   NOM_CMP='NYY',
                   VALE_CALC= 0.00000000E+00,
                   VALE_REFE=0.0,
                   REFERENCE='NON_DEFINI',
                   CRITERE='ABSOLU',
                   PRECISION=1.E-2,
                   MAILLE='M55',),
                _F(NUME_ORDRE=1,
                   GROUP_NO='B1',
                   RESULTAT=EFF,
                   NOM_CHAM='EFGE_ELNO',
                   NOM_CMP='NXY',
                   VALE_CALC= 0.00000000E+00,
                   VALE_REFE=0.0,
                   REFERENCE='NON_DEFINI',
                   CRITERE='ABSOLU',
                   PRECISION=1.E-2,
                   MAILLE='M55',),
                _F(NUME_ORDRE=1,
                   GROUP_NO='B1',
                   RESULTAT=EFF,
                   NOM_CHAM='EFGE_ELNO',
                   NOM_CMP='MXX',
                   VALE_CALC=-8.16349995E-04,
                   VALE_REFE=0.0,
                   REFERENCE='NON_DEFINI',
                   CRITERE='ABSOLU',
                   PRECISION=1.E-2,
                   MAILLE='M55',),
                _F(NUME_ORDRE=1,
                   GROUP_NO='B1',
                   RESULTAT=EFF,
                   NOM_CHAM='EFGE_ELNO',
                   NOM_CMP='MYY',
                   VALE_CALC=-3.26539992E-03,
                   VALE_REFE=0.0,
                   REFERENCE='NON_DEFINI',
                   CRITERE='ABSOLU',
                   PRECISION=1.E-2,
                   MAILLE='M55',),
                _F(NUME_ORDRE=1,
                   GROUP_NO='B1',
                   RESULTAT=EFF,
                   NOM_CHAM='EFGE_ELNO',
                   NOM_CMP='MXY',
                   VALE_CALC= 1.22452493E-03,
                   VALE_REFE=0.0,
                   REFERENCE='NON_DEFINI',
                   CRITERE='ABSOLU',
                   PRECISION=1.E-2,
                   MAILLE='M55',),
                _F(NUME_ORDRE=1,
                   GROUP_NO='B1',
                   RESULTAT=EFF,
                   NOM_CHAM='EFGE_ELNO',
                   NOM_CMP='QY',
                   VALE_CALC=-0.156457847,
                   VALE_REFE=-0.15915499999999999,
                   REFERENCE='NON_DEFINI',
                   PRECISION=0.20999999999999999,
                   MAILLE='M55',),
                _F(NUME_ORDRE=1,
                   GROUP_NO='B1',
                   RESULTAT=EFF,
                   NOM_CHAM='EFGE_ELNO',
                   NOM_CMP='QX',
                   VALE_CALC=-1.32399002E-11,
                   VALE_REFE=0.0,
                   REFERENCE='NON_DEFINI',
                   CRITERE='ABSOLU',
                   PRECISION=1.E-2,
                   MAILLE='M55',),
                _F(NUME_ORDRE=1,
                   GROUP_NO='B1',
                   RESULTAT=EFF,
                   NOM_CHAM='EFGE_ELNO',
                   NOM_CMP='NXX',
                   VALE_CALC= 0.00000000E+00,
                   VALE_REFE=0.0,
                   REFERENCE='NON_DEFINI',
                   CRITERE='ABSOLU',
                   PRECISION=1.E-2,
                   MAILLE='M56',),
                _F(NUME_ORDRE=1,
                   GROUP_NO='B1',
                   RESULTAT=EFF,
                   NOM_CHAM='EFGE_ELNO',
                   NOM_CMP='NYY',
                   VALE_CALC= 0.00000000E+00,
                   VALE_REFE=0.0,
                   REFERENCE='NON_DEFINI',
                   CRITERE='ABSOLU',
                   PRECISION=1.E-2,
                   MAILLE='M56',),
                _F(NUME_ORDRE=1,
                   GROUP_NO='B1',
                   RESULTAT=EFF,
                   NOM_CHAM='EFGE_ELNO',
                   NOM_CMP='NXY',
                   VALE_CALC= 0.00000000E+00,
                   VALE_REFE=0.0,
                   REFERENCE='NON_DEFINI',
                   CRITERE='ABSOLU',
                   PRECISION=1.E-2,
                   MAILLE='M56',),
                _F(NUME_ORDRE=1,
                   GROUP_NO='B1',
                   RESULTAT=EFF,
                   NOM_CHAM='EFGE_ELNO',
                   NOM_CMP='MXX',
                   VALE_CALC=-8.16350004E-04,
                   VALE_REFE=0.0,
                   REFERENCE='NON_DEFINI',
                   CRITERE='ABSOLU',
                   PRECISION=1.E-2,
                   MAILLE='M56',),
                _F(NUME_ORDRE=1,
                   GROUP_NO='B1',
                   RESULTAT=EFF,
                   NOM_CHAM='EFGE_ELNO',
                   NOM_CMP='MYY',
                   VALE_CALC=-3.26540001E-03,
                   VALE_REFE=0.0,
                   REFERENCE='NON_DEFINI',
                   CRITERE='ABSOLU',
                   PRECISION=1.E-2,
                   MAILLE='M56',),
                _F(NUME_ORDRE=1,
                   GROUP_NO='B1',
                   RESULTAT=EFF,
                   NOM_CHAM='EFGE_ELNO',
                   NOM_CMP='MXY',
                   VALE_CALC=-1.22452505E-03,
                   VALE_REFE=0.0,
                   REFERENCE='NON_DEFINI',
                   CRITERE='ABSOLU',
                   PRECISION=1.E-2,
                   MAILLE='M56',),
                _F(NUME_ORDRE=1,
                   GROUP_NO='B1',
                   RESULTAT=EFF,
                   NOM_CHAM='EFGE_ELNO',
                   NOM_CMP='QY',
                   VALE_CALC=-0.156457847,
                   VALE_REFE=-0.15915499999999999,
                   REFERENCE='NON_DEFINI',
                   PRECISION=0.20999999999999999,
                   MAILLE='M56',),
                _F(NUME_ORDRE=1,
                   GROUP_NO='B1',
                   RESULTAT=EFF,
                   NOM_CHAM='EFGE_ELNO',
                   NOM_CMP='QX',
                   VALE_CALC= 1.70002901E-16,
                   VALE_REFE=0.0,
                   REFERENCE='NON_DEFINI',
                   CRITERE='ABSOLU',
                   PRECISION=1.E-2,
                   MAILLE='M56',),
                ),
          )

FIN();
