# MODIF  DATE 10/10/2012   AUTEUR COURTOIS M.COURTOIS 
# RESPONSABLE DESROCHE X.DESROCHES
# TITRE  : PLAQUE STRATIFIEE EN FLEXION EMPILEMENT ANTISYMETRIQUE
# ssls503b.para = tps_job 60 mem_job 256Mo ncpus 1 liste_test V
#            CONFIGURATION MANAGEMENT OF EDF VERSION
# ======================================================================
# COPYRIGHT (C) 1991 - 2012  EDF R&D                  WWW.CODE-ASTER.ORG
# THIS PROGRAM IS FREE SOFTWARE; YOU CAN REDISTRIBUTE IT AND/OR MODIFY
# IT UNDER THE TERMS OF THE GNU GENERAL PUBLIC LICENSE AS PUBLISHED BY
# THE FREE SOFTWARE FOUNDATION; EITHER VERSION 2 OF THE LICENSE, OR
# (AT YOUR OPTION) ANY LATER VERSION.
#
# THIS PROGRAM IS DISTRIBUTED IN THE HOPE THAT IT WILL BE USEFUL, BUT
# WITHOUT ANY WARRANTY; WITHOUT EVEN THE IMPLIED WARRANTY OF
# MERCHANTABILITY OR FITNESS FOR A PARTICULAR PURPOSE. SEE THE GNU
# GENERAL PUBLIC LICENSE FOR MORE DETAILS.
#
# YOU SHOULD HAVE RECEIVED A COPY OF THE GNU GENERAL PUBLIC LICENSE
# ALONG WITH THIS PROGRAM; IF NOT, WRITE TO EDF R&D CODE_ASTER,
#    1 AVENUE DU GENERAL DE GAULLE, 92141 CLAMART CEDEX, FRANCE.
# ======================================================================
#          SIMPLEMENT APPUYEE
#---------------------------------------------------------------------
#  - CALCUL QUASI-STATIQUE D'UNE PLAQUE SOUMISE A UNE PRESSION
#    UNIFORMEMENT REPARTIE
#  - MODELISATION AVEC DES ELEMENTS 'DKT'(QUAD4)
#---------------------------------------------------------------------
#
DEBUT( CODE=_F( NOM = 'SSLS503B',NIV_PUB_WEB='INTERNET'))

#
#PRE_IDEAS ();
#
MA=LIRE_MAILLAGE(FORMAT='MED', )

#
MO=AFFE_MODELE(   MAILLAGE=MA,
                        AFFE=_F( TOUT = 'OUI',
                              PHENOMENE = 'MECANIQUE',
                              MODELISATION = 'DKT')
                  )

#
#---------------------------------------------------------------------
#                         CARACTERISTIQUES ELEMENTAIRES
#---------------------------------------------------------------------
#
CAR_ELE=AFFE_CARA_ELEM(   MODELE=MO,
                             COQUE=_F( GROUP_MA = 'TOUT_ELT',
                                    EPAIS = 0.012,
                                    COQUE_NCOU=3,
                                    ANGL_REP = (0.,-48.5,))
                          )

#
#---------------------------------------------------------------------
#                         CARACTERISTIQUES MATERIAUX
#---------------------------------------------------------------------
#
MAT=DEFI_MATERIAU(   ELAS_ORTH=_F( E_L = 4.E+10,
                                  E_T = 0.16E+10,
                                  G_LT = 8.E+08,
                                  G_TN = 3.2E+08,
                                  NU_LT = 0.25)
                     )

#
MULTI=DEFI_COMPOSITE( COUCHE=(  _F( EPAIS = 0.004,
                                  MATER = MAT,
                                  ORIENTATION = 0.),
                          _F( EPAIS = 0.004,
                                  MATER = MAT,
                                  ORIENTATION = 90.),
                          _F( EPAIS = 0.004,
                                  MATER = MAT,
                                  ORIENTATION = 0.))
                        )

#
CHAM_MAT=AFFE_MATERIAU(   MAILLAGE=MA,
                                AFFE=_F( TOUT = 'OUI',
                                      MATER = MULTI)
                          )

#
#---------------------------------------------------------------------
#                         CHARGEMENTS
#---------------------------------------------------------------------
#
CHA=AFFE_CHAR_MECA(        MODELE=MO,DDL_IMPO=(
                           _F( GROUP_NO = 'COTEBC',
                                          DY = 0.),
                           _F( GROUP_NO = 'COTECD',
                                          DY = 0.)),LIAISON_OBLIQUE=(
                    _F( GROUP_NO = 'COTEAD',
                                          DY = 0.,
                                    ANGL_NAUT = (0., -48.5, 90.,)),
                    _F( GROUP_NO = 'COTEAD',
                                          DRX = 0.,
                                    ANGL_NAUT = (0., -48.5, 90.,)),
                    _F( GROUP_NO = 'COTEAB',
                                          DX = 0.,
                                    ANGL_NAUT = (0., -48.5, 90.,)),
                    _F( GROUP_NO = 'COTEAB',
                                          DRY = 0.,
                                    ANGL_NAUT = (0., -48.5, 90.,))),
                        FORCE_COQUE=_F( TOUT = 'OUI',
                                     PRES = -3000.)
                      )

#
#---------------------------------------------------------------------
#                         RESOLUTION
#---------------------------------------------------------------------
#
RESU=MECA_STATIQUE(MODELE=MO,
                   CHAM_MATER=CHAM_MAT,
                   CARA_ELEM=CAR_ELE,
                   EXCIT=_F( CHARGE = CHA));

RESU=CALC_CHAMP(reuse =RESU,
               RESULTAT=RESU,
               NUME_ORDRE=1,
               CONTRAINTE=('SIGM_ELNO',),
               DEFORMATION=('EPSI_ELNO',),);

#
#COUCHE 2 : CALCUL DES CONTRAINTES
##################################
SIG_C2_S=POST_CHAMP(RESULTAT=RESU,
                    EXTR_COQUE=_F(NOM_CHAM=('SIGM_ELNO','EPSI_ELNO'),
                                  NUME_COUCHE=2,
                                  NIVE_COUCHE='SUP',),);
#
SIG_C2_M=POST_CHAMP(RESULTAT=RESU,
                    EXTR_COQUE=_F(NOM_CHAM='SIGM_ELNO',
                                  NUME_COUCHE=2,
                                  NIVE_COUCHE='MOY',),);
#
#COUCHE 3 : CALCUL DES CONTRAINTES
##################################
SIG_C3_S=POST_CHAMP(RESULTAT=RESU,
                    EXTR_COQUE=_F(NOM_CHAM=('SIGM_ELNO','EPSI_ELNO',),
                                  NUME_COUCHE=3,
                                  NIVE_COUCHE='SUP',),);
#
#
#---------------------------------------------------------------------
#                         VERIFICATION DES RESULTATS
#---------------------------------------------------------------------
#
TEST_RESU(RESU=_F(NUME_ORDRE=1,
                  GROUP_NO='A',
                  REFERENCE='ANALYTIQUE',
                  RESULTAT=RESU,
                  NOM_CHAM='DEPL',
                  NOM_CMP='DY',
                  VALE_CALC=0.015004998,
                  VALE_REFE=0.01507,
                  PRECISION=1.E-2,),
          )

TEST_RESU(RESU=(_F(NUME_ORDRE=1,
                   GROUP_NO='A',
                   REFERENCE='SOURCE_EXTERNE',
                   RESULTAT=SIG_C3_S,
                   NOM_CHAM='SIGM_ELNO',
                   NOM_CMP='SIXX',
                   VALE_CALC= 2.43965302E+07,
                   VALE_REFE=2.4216000E7,
                   PRECISION=1.E-2,
                   MAILLE='MA6',),
                _F(NUME_ORDRE=1,
                   GROUP_NO='A',
                   REFERENCE='SOURCE_EXTERNE',
                   RESULTAT=SIG_C2_S,
                   NOM_CHAM='SIGM_ELNO',
                   NOM_CMP='SIYY',
                   VALE_CALC= 5.73213969E+06,
                   VALE_REFE=5.781000E6,
                   PRECISION=1.E-2,
                   MAILLE='MA6',),
                _F(NUME_ORDRE=1,
                   GROUP_NO='C',
                   REFERENCE='SOURCE_EXTERNE',
                   RESULTAT=SIG_C3_S,
                   NOM_CHAM='SIGM_ELNO',
                   NOM_CMP='SIXY',
                   VALE_CALC= 1.23356761E+06,
                   VALE_REFE=1.282500E6,
                   PRECISION=0.050000000000000003,
                   MAILLE='MA31',),
                _F(NUME_ORDRE=1,
                   GROUP_NO='D',
                   REFERENCE='SOURCE_EXTERNE',
                   RESULTAT=SIG_C2_M,
                   NOM_CHAM='SIGM_ELNO',
                   NOM_CMP='SIXZ',
                   VALE_CALC=-2.01128585E+05,
                   VALE_REFE=-2.35250E5,
                   PRECISION=0.14999999999999999,
                   MAILLE='MA36',),
                _F(NUME_ORDRE=1,
                   GROUP_NO='B',
                   REFERENCE='SOURCE_EXTERNE',
                   RESULTAT=SIG_C2_M,
                   NOM_CHAM='SIGM_ELNO',
                   NOM_CMP='SIYZ',
                   VALE_CALC= 8.60603313E+04,
                   VALE_REFE=8.8950E4,
                   PRECISION=0.040000000000000001,
                   MAILLE='MA1',),
                _F(NUME_ORDRE=1,
                   GROUP_NO='B',
                   REFERENCE='NON_DEFINI',
                   RESULTAT=SIG_C2_S,
                   NOM_CHAM='EPSI_ELNO',
                   NOM_CMP='EPXX',
                   VALE_CALC= 1.56930640E-08,
                   VALE_REFE=1.5718400000000001E-08,
                   PRECISION=1.E-2,
                   MAILLE='MA1',),
                _F(NUME_ORDRE=1,
                   GROUP_NO='B',
                   REFERENCE='NON_DEFINI',
                   RESULTAT=SIG_C2_S,
                   NOM_CHAM='EPSI_ELNO',
                   NOM_CMP='EPYY',
                   VALE_CALC=-1.05857673E-07,
                   VALE_REFE=-1.0586999999999999E-07,
                   PRECISION=1.E-2,
                   MAILLE='MA1',),
                _F(NUME_ORDRE=1,
                   GROUP_NO='B',
                   REFERENCE='NON_DEFINI',
                   RESULTAT=SIG_C3_S,
                   NOM_CHAM='EPSI_ELNO',
                   NOM_CMP='EPXX',
                   VALE_CALC= 4.70791920E-08,
                   VALE_REFE=4.71551E-08,
                   PRECISION=1.E-2,
                   MAILLE='MA1',),
                _F(NUME_ORDRE=1,
                   GROUP_NO='B',
                   REFERENCE='NON_DEFINI',
                   RESULTAT=SIG_C3_S,
                   NOM_CHAM='EPSI_ELNO',
                   NOM_CMP='EPYY',
                   VALE_CALC=-3.17573018E-07,
                   VALE_REFE=-3.1761100000000002E-07,
                   PRECISION=1.E-2,
                   MAILLE='MA1',),
                ),
          )

FIN()
#
