# TITRE  PLAQUE CARREE EN APPUI SIMPLE SOUS PRESSION SINUSOIDALE
# ======================================================================
# COPYRIGHT (C) 1991 - 2012  EDF R&D                  WWW.CODE-ASTER.ORG
# THIS PROGRAM IS FREE SOFTWARE; YOU CAN REDISTRIBUTE IT AND/OR MODIFY
# IT UNDER THE TERMS OF THE GNU GENERAL PUBLIC LICENSE AS PUBLISHED BY
# THE FREE SOFTWARE FOUNDATION; EITHER VERSION 2 OF THE LICENSE, OR
# (AT YOUR OPTION) ANY LATER VERSION.
#
# THIS PROGRAM IS DISTRIBUTED IN THE HOPE THAT IT WILL BE USEFUL, BUT
# WITHOUT ANY WARRANTY; WITHOUT EVEN THE IMPLIED WARRANTY OF
# MERCHANTABILITY OR FITNESS FOR A PARTICULAR PURPOSE. SEE THE GNU
# GENERAL PUBLIC LICENSE FOR MORE DETAILS.
#
# YOU SHOULD HAVE RECEIVED A COPY OF THE GNU GENERAL PUBLIC LICENSE
# ALONG WITH THIS PROGRAM; IF NOT, WRITE TO EDF R&D CODE_ASTER,
#    1 AVENUE DU GENERAL DE GAULLE, 92141 CLAMART CEDEX, FRANCE.
# ======================================================================
#---------------------------------------------------------------------
#         - MODELISATION AVEC DES ELEMENTS 'DKT'(TRI3)
#---------------------------------------------------------------------
#
DEBUT(CODE=_F(NOM='SSLS118C',NIV_PUB_WEB='INTERNET'),DEBUG=_F(SDVERI='OUI'))
MA=LIRE_MAILLAGE(VERI_MAIL=_F(VERIF='OUI'),FORMAT='MED',);
MA=DEFI_GROUP(reuse =MA,
              CREA_GROUP_MA=_F(TOUT='OUI',
                               NOM='TOUT',),
              MAILLAGE=MA,
              CREA_GROUP_NO=(_F(GROUP_MA='AB',),
                             _F(GROUP_MA='BC',),
                             _F(GROUP_MA='CD',),
                             _F(GROUP_MA='DA',),),);
MO=AFFE_MODELE(AFFE=_F(TOUT='OUI',
                       PHENOMENE='MECANIQUE',
                       MODELISATION='DKT',),
               MAILLAGE=MA,);

MA=MODI_MAILLAGE( reuse=MA,
                  MAILLAGE=MA,
                  ORIE_NORM_COQUE=_F(  VECT_NORM = (0., 0., 1.,),
                                       GROUP_NO = 'O',
                                       GROUP_MA = 'MAIL1'),
                                       INFO=2
                                       )
CAR_ELE=AFFE_CARA_ELEM(MODELE=MO,
                       COQUE=_F(ANGL_REP=(0.0,0.0),
                                GROUP_MA='TOUT',
                                EPAIS=0.1,),);
MAT=DEFI_MATERIAU(ELAS=_F(NU=0.25,
                          E=25.0,),);
CHAM_MAT=AFFE_MATERIAU(AFFE=_F(MATER=MAT,
                               TOUT='OUI',),
                       MAILLAGE=MA,);
PO=1.0
P = FORMULE(NOM_PARA=('X','Y'),VALE='PO*sin(pi*X)*sin(pi*Y)''');

CHA=AFFE_CHAR_MECA(DDL_IMPO=(_F(
                                DX=0.0,
                                DY=0.0,
                                GROUP_NO='O',
                                DRZ=0.0,
                                DRX=0.0,
                                DRY=0.0,),
                             _F(DZ=0.0,
                                DX=0.0,
                                GROUP_NO='AB',
                                DRY=0.0,),
                             _F(DZ=0.0,
                                DY=0.0,
                                GROUP_NO='BC',
                                DRX=0.0,),
                             _F(DZ=0.0,
                                DX=0.0,
                                GROUP_NO='CD',
                                DRY=0.0,),
                             _F(DZ=0.0,
                                DY=0.0,
                                GROUP_NO='DA',
                                DRX=0.0,),),
                   MODELE=MO,
                   FORCE_ARETE=(_F(MY=0.0,
                                   GROUP_MA='AB',),
                                _F(MY=0.0,
                                   GROUP_MA='CD',),
                                _F(MX=0.0,
                                   GROUP_MA='BC',),
                                _F(MX=0.0,
                                   GROUP_MA='DA',),),);
CHA_P=AFFE_CHAR_MECA_F(MODELE=MO,
                       FORCE_COQUE=_F(PRES=P,
                                      GROUP_MA='MAIL1',),);
RESU=MECA_STATIQUE(CHAM_MATER=CHAM_MAT,
                   MODELE=MO,
                   CARA_ELEM=CAR_ELE,
                   EXCIT=(_F(CHARGE=CHA,),
                          _F(CHARGE=CHA_P,),),);

RESU=CALC_CHAMP(reuse=RESU,RESULTAT=RESU,CONTRAINTE=('SIGM_ELNO'))


SIG_C1_S=POST_CHAMP(RESULTAT=RESU,
                     EXTR_COQUE=_F(NOM_CHAM='SIGM_ELNO',
                                   NUME_COUCHE=1,
                                   NIVE_COUCHE='SUP',),);
SIG_C1_M=POST_CHAMP(RESULTAT=RESU,
                     EXTR_COQUE=_F(NOM_CHAM='SIGM_ELNO',
                                   NUME_COUCHE=1,
                                   NIVE_COUCHE='MOY',),);
SIG_C1_I=POST_CHAMP(RESULTAT=RESU,
                     EXTR_COQUE=_F(NOM_CHAM='SIGM_ELNO',
                                   NUME_COUCHE=1,
                                   NIVE_COUCHE='INF',),);
EFF=CALC_CHAMP(RESULTAT=RESU,CONTRAINTE=('EFGE_ELNO'))


TEST_RESU(RESU=(_F(NUME_ORDRE=1,
                   GROUP_NO='O',
                   REFERENCE='ANALYTIQUE',
                   RESULTAT=RESU,
                   NOM_CHAM='DEPL',
                   NOM_CMP='DZ',
                   VALE_CALC=-1.160767664,
                   VALE_REFE=-1.1549229999999999,
                   PRECISION=0.02,),
                _F(NUME_ORDRE=1,
                   GROUP_NO='O',
                   REFERENCE='ANALYTIQUE',
                   RESULTAT=SIG_C1_I,
                   NOM_CHAM='SIGM_ELNO',
                   NOM_CMP='SIXX',
                   VALE_CALC=19.414928565,
                   VALE_REFE=18.997199999999999,
                   PRECISION=0.025000000000000001,
                   MAILLE='M134',),
                _F(NUME_ORDRE=1,
                   GROUP_NO='O',
                   REFERENCE='ANALYTIQUE',
                   RESULTAT=SIG_C1_I,
                   NOM_CHAM='SIGM_ELNO',
                   NOM_CMP='SIYY',
                   VALE_CALC=19.308230117,
                   VALE_REFE=18.997199999999999,
                   PRECISION=0.025000000000000001,
                   MAILLE='M134',),
                _F(NUME_ORDRE=1,
                   GROUP_NO='O',
                   REFERENCE='ANALYTIQUE',
                   RESULTAT=SIG_C1_I,
                   NOM_CHAM='SIGM_ELNO',
                   NOM_CMP='SIXY',
                   VALE_CALC=-0.045023734,
                   VALE_REFE=0.0,
                   CRITERE='ABSOLU',
                   PRECISION=0.050000000000000003,
                   MAILLE='M134',),
                _F(NUME_ORDRE=1,
                   GROUP_NO='O',
                   REFERENCE='ANALYTIQUE',
                   RESULTAT=SIG_C1_I,
                   NOM_CHAM='SIGM_ELNO',
                   NOM_CMP='SIXZ',
                   VALE_CALC= 0.00000000E+00,
                   VALE_REFE=0.0,
                   CRITERE='ABSOLU',
                   PRECISION=1.E-2,
                   MAILLE='M134',),
                _F(NUME_ORDRE=1,
                   GROUP_NO='O',
                   REFERENCE='ANALYTIQUE',
                   RESULTAT=SIG_C1_I,
                   NOM_CHAM='SIGM_ELNO',
                   NOM_CMP='SIYZ',
                   VALE_CALC= 0.00000000E+00,
                   VALE_REFE=0.0,
                   CRITERE='ABSOLU',
                   PRECISION=1.E-2,
                   MAILLE='M134',),
                _F(NUME_ORDRE=1,
                   GROUP_NO='O',
                   REFERENCE='ANALYTIQUE',
                   RESULTAT=SIG_C1_M,
                   NOM_CHAM='SIGM_ELNO',
                   NOM_CMP='SIXX',
                   VALE_CALC= 0.00000000E+00,
                   VALE_REFE=0.0,
                   CRITERE='ABSOLU',
                   PRECISION=1.E-2,
                   MAILLE='M134',),
                _F(NUME_ORDRE=1,
                   GROUP_NO='O',
                   REFERENCE='ANALYTIQUE',
                   RESULTAT=SIG_C1_M,
                   NOM_CHAM='SIGM_ELNO',
                   NOM_CMP='SIYY',
                   VALE_CALC= 0.00000000E+00,
                   VALE_REFE=0.0,
                   CRITERE='ABSOLU',
                   PRECISION=1.E-2,
                   MAILLE='M134',),
                _F(NUME_ORDRE=1,
                   GROUP_NO='O',
                   REFERENCE='ANALYTIQUE',
                   RESULTAT=SIG_C1_M,
                   NOM_CHAM='SIGM_ELNO',
                   NOM_CMP='SIXY',
                   VALE_CALC= 0.00000000E+00,
                   VALE_REFE=0.0,
                   CRITERE='ABSOLU',
                   PRECISION=1.E-2,
                   MAILLE='M134',),
                _F(NUME_ORDRE=1,
                   GROUP_NO='O',
                   REFERENCE='ANALYTIQUE',
                   RESULTAT=SIG_C1_M,
                   NOM_CHAM='SIGM_ELNO',
                   NOM_CMP='SIXZ',
                   VALE_CALC=-0.393662895,
                   VALE_REFE=0.0,
                   CRITERE='ABSOLU',
                   PRECISION=0.40000000000000002,
                   MAILLE='M134',),
                _F(NUME_ORDRE=1,
                   GROUP_NO='O',
                   REFERENCE='ANALYTIQUE',
                   RESULTAT=SIG_C1_M,
                   NOM_CHAM='SIGM_ELNO',
                   NOM_CMP='SIYZ',
                   VALE_CALC=0.328056707,
                   VALE_REFE=0.0,
                   CRITERE='ABSOLU',
                   PRECISION=0.40000000000000002,
                   MAILLE='M134',),
                _F(NUME_ORDRE=1,
                   GROUP_NO='O',
                   REFERENCE='ANALYTIQUE',
                   RESULTAT=SIG_C1_S,
                   NOM_CHAM='SIGM_ELNO',
                   NOM_CMP='SIXX',
                   VALE_CALC=-19.414928565,
                   VALE_REFE=-18.997199999999999,
                   PRECISION=0.025000000000000001,
                   MAILLE='M134',),
                _F(NUME_ORDRE=1,
                   GROUP_NO='O',
                   REFERENCE='ANALYTIQUE',
                   RESULTAT=SIG_C1_S,
                   NOM_CHAM='SIGM_ELNO',
                   NOM_CMP='SIYY',
                   VALE_CALC=-19.308230117,
                   VALE_REFE=-18.997199999999999,
                   PRECISION=0.025000000000000001,
                   MAILLE='M134',),
                _F(NUME_ORDRE=1,
                   GROUP_NO='O',
                   REFERENCE='ANALYTIQUE',
                   RESULTAT=SIG_C1_S,
                   NOM_CHAM='SIGM_ELNO',
                   NOM_CMP='SIXY',
                   VALE_CALC=0.045023734,
                   VALE_REFE=0.0,
                   CRITERE='ABSOLU',
                   PRECISION=0.050000000000000003,
                   MAILLE='M134',),
                _F(NUME_ORDRE=1,
                   GROUP_NO='O',
                   REFERENCE='ANALYTIQUE',
                   RESULTAT=SIG_C1_S,
                   NOM_CHAM='SIGM_ELNO',
                   NOM_CMP='SIXZ',
                   VALE_CALC= 0.00000000E+00,
                   VALE_REFE=0.0,
                   CRITERE='ABSOLU',
                   PRECISION=1.E-2,
                   MAILLE='M134',),
                _F(NUME_ORDRE=1,
                   GROUP_NO='O',
                   REFERENCE='ANALYTIQUE',
                   RESULTAT=SIG_C1_S,
                   NOM_CHAM='SIGM_ELNO',
                   NOM_CMP='SIYZ',
                   VALE_CALC= 0.00000000E+00,
                   VALE_REFE=0.0,
                   CRITERE='ABSOLU',
                   PRECISION=1.E-2,
                   MAILLE='M134',),
                _F(NUME_ORDRE=1,
                   GROUP_NO='B1',
                   REFERENCE='ANALYTIQUE',
                   RESULTAT=SIG_C1_I,
                   NOM_CHAM='SIGM_ELNO',
                   NOM_CMP='SIXX',
                   VALE_CALC=-0.179489160,
                   VALE_REFE=0.0,
                   CRITERE='ABSOLU',
                   PRECISION=0.20000000000000001,
                   MAILLE='M122',),
                _F(NUME_ORDRE=1,
                   GROUP_NO='B1',
                   REFERENCE='ANALYTIQUE',
                   RESULTAT=SIG_C1_I,
                   NOM_CHAM='SIGM_ELNO',
                   NOM_CMP='SIYY',
                   VALE_CALC=-0.717956640,
                   VALE_REFE=0.0,
                   CRITERE='ABSOLU',
                   PRECISION=0.80000000000000004,
                   MAILLE='M122',),
                _F(NUME_ORDRE=1,
                   GROUP_NO='B1',
                   REFERENCE='ANALYTIQUE',
                   RESULTAT=SIG_C1_I,
                   NOM_CHAM='SIGM_ELNO',
                   NOM_CMP='SIXY',
                   VALE_CALC=-0.758315250,
                   VALE_REFE=0.0,
                   CRITERE='ABSOLU',
                   PRECISION=0.80000000000000004,
                   MAILLE='M122',),
                _F(NUME_ORDRE=1,
                   GROUP_NO='B1',
                   REFERENCE='ANALYTIQUE',
                   RESULTAT=SIG_C1_I,
                   NOM_CHAM='SIGM_ELNO',
                   NOM_CMP='SIXZ',
                   VALE_CALC= 0.00000000E+00,
                   VALE_REFE=0.0,
                   CRITERE='ABSOLU',
                   PRECISION=1.E-2,
                   MAILLE='M122',),
                _F(NUME_ORDRE=1,
                   GROUP_NO='B1',
                   REFERENCE='ANALYTIQUE',
                   RESULTAT=SIG_C1_I,
                   NOM_CHAM='SIGM_ELNO',
                   NOM_CMP='SIYZ',
                   VALE_CALC= 0.00000000E+00,
                   VALE_REFE=0.0,
                   CRITERE='ABSOLU',
                   PRECISION=1.E-2,
                   MAILLE='M122',),
                _F(NUME_ORDRE=1,
                   GROUP_NO='B1',
                   REFERENCE='ANALYTIQUE',
                   RESULTAT=SIG_C1_M,
                   NOM_CHAM='SIGM_ELNO',
                   NOM_CMP='SIXX',
                   VALE_CALC= 0.00000000E+00,
                   VALE_REFE=0.0,
                   CRITERE='ABSOLU',
                   PRECISION=1.E-2,
                   MAILLE='M122',),
                _F(NUME_ORDRE=1,
                   GROUP_NO='B1',
                   REFERENCE='ANALYTIQUE',
                   RESULTAT=SIG_C1_M,
                   NOM_CHAM='SIGM_ELNO',
                   NOM_CMP='SIYY',
                   VALE_CALC= 0.00000000E+00,
                   VALE_REFE=0.0,
                   CRITERE='ABSOLU',
                   PRECISION=1.E-2,
                   MAILLE='M122',),
                _F(NUME_ORDRE=1,
                   GROUP_NO='B1',
                   REFERENCE='ANALYTIQUE',
                   RESULTAT=SIG_C1_M,
                   NOM_CHAM='SIGM_ELNO',
                   NOM_CMP='SIXY',
                   VALE_CALC= 0.00000000E+00,
                   VALE_REFE=0.0,
                   CRITERE='ABSOLU',
                   PRECISION=1.E-2,
                   MAILLE='M122',),
                _F(NUME_ORDRE=1,
                   GROUP_NO='B1',
                   REFERENCE='ANALYTIQUE',
                   RESULTAT=SIG_C1_M,
                   NOM_CHAM='SIGM_ELNO',
                   NOM_CMP='SIXZ',
                   VALE_CALC=-0.300178911,
                   VALE_REFE=0.0,
                   CRITERE='ABSOLU',
                   PRECISION=0.40000000000000002,
                   MAILLE='M122',),
                _F(NUME_ORDRE=1,
                   GROUP_NO='B1',
                   REFERENCE='ANALYTIQUE',
                   RESULTAT=SIG_C1_M,
                   NOM_CHAM='SIGM_ELNO',
                   NOM_CMP='SIYZ',
                   VALE_CALC=-2.427768932,
                   VALE_REFE=-2.3873000000000002,
                   PRECISION=0.02,
                   MAILLE='M122',),
                _F(NUME_ORDRE=1,
                   GROUP_NO='B1',
                   REFERENCE='ANALYTIQUE',
                   RESULTAT=SIG_C1_S,
                   NOM_CHAM='SIGM_ELNO',
                   NOM_CMP='SIXX',
                   VALE_CALC=0.179489160,
                   VALE_REFE=0.0,
                   CRITERE='ABSOLU',
                   PRECISION=0.26000000000000001,
                   MAILLE='M122',),
                _F(NUME_ORDRE=1,
                   GROUP_NO='B1',
                   REFERENCE='ANALYTIQUE',
                   RESULTAT=SIG_C1_S,
                   NOM_CHAM='SIGM_ELNO',
                   NOM_CMP='SIYY',
                   VALE_CALC=0.717956640,
                   VALE_REFE=0.0,
                   CRITERE='ABSOLU',
                   PRECISION=0.80000000000000004,
                   MAILLE='M122',),
                _F(NUME_ORDRE=1,
                   GROUP_NO='B1',
                   REFERENCE='ANALYTIQUE',
                   RESULTAT=SIG_C1_S,
                   NOM_CHAM='SIGM_ELNO',
                   NOM_CMP='SIXY',
                   VALE_CALC=0.758315250,
                   VALE_REFE=0.0,
                   CRITERE='ABSOLU',
                   PRECISION=0.80000000000000004,
                   MAILLE='M122',),
                _F(NUME_ORDRE=1,
                   GROUP_NO='B1',
                   REFERENCE='ANALYTIQUE',
                   RESULTAT=SIG_C1_S,
                   NOM_CHAM='SIGM_ELNO',
                   NOM_CMP='SIXZ',
                   VALE_CALC= 0.00000000E+00,
                   VALE_REFE=0.0,
                   CRITERE='ABSOLU',
                   PRECISION=1.E-2,
                   MAILLE='M122',),
                _F(NUME_ORDRE=1,
                   GROUP_NO='B1',
                   REFERENCE='ANALYTIQUE',
                   RESULTAT=SIG_C1_S,
                   NOM_CHAM='SIGM_ELNO',
                   NOM_CMP='SIYZ',
                   VALE_CALC= 0.00000000E+00,
                   VALE_REFE=0.0,
                   CRITERE='ABSOLU',
                   PRECISION=1.E-2,
                   MAILLE='M122',),
                _F(NUME_ORDRE=1,
                   GROUP_NO='O',
                   REFERENCE='ANALYTIQUE',
                   RESULTAT=EFF,
                   NOM_CHAM='EFGE_ELNO',
                   NOM_CMP='NXX',
                   VALE_CALC= 0.00000000E+00,
                   VALE_REFE=0.0,
                   CRITERE='ABSOLU',
                   PRECISION=1.E-2,
                   MAILLE='M134',),
                _F(NUME_ORDRE=1,
                   GROUP_NO='O',
                   REFERENCE='ANALYTIQUE',
                   RESULTAT=EFF,
                   NOM_CHAM='EFGE_ELNO',
                   NOM_CMP='NYY',
                   VALE_CALC= 0.00000000E+00,
                   VALE_REFE=0.0,
                   CRITERE='ABSOLU',
                   PRECISION=1.E-2,
                   MAILLE='M134',),
                _F(NUME_ORDRE=1,
                   GROUP_NO='O',
                   REFERENCE='ANALYTIQUE',
                   RESULTAT=EFF,
                   NOM_CHAM='EFGE_ELNO',
                   NOM_CMP='NXY',
                   VALE_CALC= 0.00000000E+00,
                   VALE_REFE=0.0,
                   CRITERE='ABSOLU',
                   PRECISION=1.E-2,
                   MAILLE='M134',),
                _F(NUME_ORDRE=1,
                   GROUP_NO='O',
                   REFERENCE='ANALYTIQUE',
                   RESULTAT=EFF,
                   NOM_CHAM='EFGE_ELNO',
                   NOM_CMP='MXX',
                   VALE_CALC=-0.032358214,
                   VALE_REFE=-0.031662900000000001,
                   PRECISION=0.025000000000000001,
                   MAILLE='M134',),
                _F(NUME_ORDRE=1,
                   GROUP_NO='O',
                   REFERENCE='ANALYTIQUE',
                   RESULTAT=EFF,
                   NOM_CHAM='EFGE_ELNO',
                   NOM_CMP='MYY',
                   VALE_CALC=-0.032180384,
                   VALE_REFE=-0.031662900000000001,
                   PRECISION=0.025000000000000001,
                   MAILLE='M134',),
                _F(NUME_ORDRE=1,
                   GROUP_NO='O',
                   REFERENCE='ANALYTIQUE',
                   RESULTAT=EFF,
                   NOM_CHAM='EFGE_ELNO',
                   NOM_CMP='MXY',
                   VALE_CALC= 7.50395574E-05,
                   VALE_REFE=0.0,
                   CRITERE='ABSOLU',
                   PRECISION=1.E-2,
                   MAILLE='M134',),
                _F(NUME_ORDRE=1,
                   GROUP_NO='O',
                   REFERENCE='ANALYTIQUE',
                   RESULTAT=EFF,
                   NOM_CHAM='EFGE_ELNO',
                   NOM_CMP='QX',
                   VALE_CALC=-0.026244193,
                   VALE_REFE=0.0,
                   CRITERE='ABSOLU',
                   PRECISION=0.029999999999999999,
                   MAILLE='M134',),
                _F(NUME_ORDRE=1,
                   GROUP_NO='O',
                   REFERENCE='ANALYTIQUE',
                   RESULTAT=EFF,
                   NOM_CHAM='EFGE_ELNO',
                   NOM_CMP='QY',
                   VALE_CALC=0.021870447,
                   VALE_REFE=0.0,
                   CRITERE='ABSOLU',
                   PRECISION=0.029999999999999999,
                   MAILLE='M134',),
                _F(NUME_ORDRE=1,
                   GROUP_NO='O',
                   REFERENCE='ANALYTIQUE',
                   RESULTAT=EFF,
                   NOM_CHAM='EFGE_ELNO',
                   NOM_CMP='QX',
                   VALE_CALC=0.020652700,
                   VALE_REFE=0.0,
                   CRITERE='ABSOLU',
                   PRECISION=0.029999999999999999,
                   MAILLE='M158',),
                _F(NUME_ORDRE=1,
                   GROUP_NO='O',
                   REFERENCE='ANALYTIQUE',
                   RESULTAT=EFF,
                   NOM_CHAM='EFGE_ELNO',
                   NOM_CMP='QY',
                   VALE_CALC= 7.42844842E-03,
                   VALE_REFE=0.0,
                   CRITERE='ABSOLU',
                   PRECISION=0.02,
                   MAILLE='M158',),
                _F(NUME_ORDRE=1,
                   GROUP_NO='O',
                   REFERENCE='ANALYTIQUE',
                   RESULTAT=EFF,
                   NOM_CHAM='EFGE_ELNO',
                   NOM_CMP='QX',
                   VALE_CALC=-0.026244193,
                   VALE_REFE=0.0,
                   CRITERE='ABSOLU',
                   PRECISION=0.029999999999999999,
                   MAILLE='M132',),
                _F(NUME_ORDRE=1,
                   GROUP_NO='O',
                   REFERENCE='ANALYTIQUE',
                   RESULTAT=EFF,
                   NOM_CHAM='EFGE_ELNO',
                   NOM_CMP='QY',
                   VALE_CALC=-0.021870447,
                   VALE_REFE=0.0,
                   CRITERE='ABSOLU',
                   PRECISION=0.029999999999999999,
                   MAILLE='M132',),
                _F(NUME_ORDRE=1,
                   GROUP_NO='O',
                   REFERENCE='ANALYTIQUE',
                   RESULTAT=EFF,
                   NOM_CHAM='EFGE_ELNO',
                   NOM_CMP='QX',
                   VALE_CALC=0.020652700,
                   VALE_REFE=0.0,
                   CRITERE='ABSOLU',
                   PRECISION=0.029999999999999999,
                   MAILLE='M156',),
                _F(NUME_ORDRE=1,
                   GROUP_NO='O',
                   REFERENCE='ANALYTIQUE',
                   RESULTAT=EFF,
                   NOM_CHAM='EFGE_ELNO',
                   NOM_CMP='QY',
                   VALE_CALC=-7.42844842E-03,
                   VALE_REFE=0.0,
                   CRITERE='ABSOLU',
                   PRECISION=0.02,
                   MAILLE='M156',),
                _F(NUME_ORDRE=1,
                   GROUP_NO='C',
                   REFERENCE='ANALYTIQUE',
                   RESULTAT=EFF,
                   NOM_CHAM='EFGE_ELNO',
                   NOM_CMP='NXX',
                   VALE_CALC= 0.00000000E+00,
                   VALE_REFE=0.0,
                   CRITERE='ABSOLU',
                   PRECISION=1.E-2,
                   MAILLE='M288',),
                _F(NUME_ORDRE=1,
                   GROUP_NO='C',
                   REFERENCE='ANALYTIQUE',
                   RESULTAT=EFF,
                   NOM_CHAM='EFGE_ELNO',
                   NOM_CMP='NYY',
                   VALE_CALC= 0.00000000E+00,
                   VALE_REFE=0.0,
                   CRITERE='ABSOLU',
                   PRECISION=1.E-2,
                   MAILLE='M288',),
                _F(NUME_ORDRE=1,
                   GROUP_NO='C',
                   REFERENCE='ANALYTIQUE',
                   RESULTAT=EFF,
                   NOM_CHAM='EFGE_ELNO',
                   NOM_CMP='NXY',
                   VALE_CALC= 0.00000000E+00,
                   VALE_REFE=0.0,
                   CRITERE='ABSOLU',
                   PRECISION=1.E-2,
                   MAILLE='M288',),
                _F(NUME_ORDRE=1,
                   GROUP_NO='C',
                   REFERENCE='ANALYTIQUE',
                   RESULTAT=EFF,
                   NOM_CHAM='EFGE_ELNO',
                   NOM_CMP='MXX',
                   VALE_CALC=-1.05818132E-16,
                   VALE_REFE=0.0,
                   CRITERE='ABSOLU',
                   PRECISION=1.E-2,
                   MAILLE='M288',),
                _F(NUME_ORDRE=1,
                   GROUP_NO='C',
                   REFERENCE='ANALYTIQUE',
                   RESULTAT=EFF,
                   NOM_CHAM='EFGE_ELNO',
                   NOM_CMP='MYY',
                   VALE_CALC=-1.16226473E-16,
                   VALE_REFE=0.0,
                   CRITERE='ABSOLU',
                   PRECISION=1.E-2,
                   MAILLE='M288',),
                _F(NUME_ORDRE=1,
                   GROUP_NO='C',
                   REFERENCE='ANALYTIQUE',
                   RESULTAT=EFF,
                   NOM_CHAM='EFGE_ELNO',
                   NOM_CMP='MXY',
                   VALE_CALC=0.018828783,
                   VALE_REFE=0.018997199999999999,
                   PRECISION=0.029999999999999999,
                   MAILLE='M288',),
                _F(NUME_ORDRE=1,
                   GROUP_NO='C',
                   REFERENCE='ANALYTIQUE',
                   RESULTAT=EFF,
                   NOM_CHAM='EFGE_ELNO',
                   NOM_CMP='QX',
                   VALE_CALC= 1.13339429E-04,
                   VALE_REFE=0.0,
                   CRITERE='ABSOLU',
                   PRECISION=1.E-2,
                   MAILLE='M288',),
                _F(NUME_ORDRE=1,
                   GROUP_NO='C',
                   REFERENCE='ANALYTIQUE',
                   RESULTAT=EFF,
                   NOM_CHAM='EFGE_ELNO',
                   NOM_CMP='QY',
                   VALE_CALC=-1.13339429E-04,
                   VALE_REFE=0.0,
                   CRITERE='ABSOLU',
                   PRECISION=1.E-2,
                   MAILLE='M288',),
                _F(NUME_ORDRE=1,
                   GROUP_NO='D',
                   REFERENCE='ANALYTIQUE',
                   RESULTAT=EFF,
                   NOM_CHAM='EFGE_ELNO',
                   NOM_CMP='NXX',
                   VALE_CALC= 0.00000000E+00,
                   VALE_REFE=0.0,
                   CRITERE='ABSOLU',
                   PRECISION=1.E-2,
                   MAILLE='M23',),
                _F(NUME_ORDRE=1,
                   GROUP_NO='D',
                   REFERENCE='ANALYTIQUE',
                   RESULTAT=EFF,
                   NOM_CHAM='EFGE_ELNO',
                   NOM_CMP='NYY',
                   VALE_CALC= 0.00000000E+00,
                   VALE_REFE=0.0,
                   CRITERE='ABSOLU',
                   PRECISION=1.E-2,
                   MAILLE='M23',),
                _F(NUME_ORDRE=1,
                   GROUP_NO='D',
                   REFERENCE='ANALYTIQUE',
                   RESULTAT=EFF,
                   NOM_CHAM='EFGE_ELNO',
                   NOM_CMP='NXY',
                   VALE_CALC= 0.00000000E+00,
                   VALE_REFE=0.0,
                   CRITERE='ABSOLU',
                   PRECISION=1.E-2,
                   MAILLE='M23',),
                _F(NUME_ORDRE=1,
                   GROUP_NO='D',
                   REFERENCE='ANALYTIQUE',
                   RESULTAT=EFF,
                   NOM_CHAM='EFGE_ELNO',
                   NOM_CMP='MXX',
                   VALE_CALC= 8.52952757E-04,
                   VALE_REFE=0.0,
                   CRITERE='ABSOLU',
                   PRECISION=1.E-2,
                   MAILLE='M23',),
                _F(NUME_ORDRE=1,
                   GROUP_NO='D',
                   REFERENCE='ANALYTIQUE',
                   RESULTAT=EFF,
                   NOM_CHAM='EFGE_ELNO',
                   NOM_CMP='MYY',
                   VALE_CALC= 2.13238189E-04,
                   VALE_REFE=0.0,
                   CRITERE='ABSOLU',
                   PRECISION=1.E-2,
                   MAILLE='M23',),
                _F(NUME_ORDRE=1,
                   GROUP_NO='D',
                   REFERENCE='ANALYTIQUE',
                   RESULTAT=EFF,
                   NOM_CHAM='EFGE_ELNO',
                   NOM_CMP='MXY',
                   VALE_CALC=-0.019164588,
                   VALE_REFE=-0.018997199999999999,
                   PRECISION=0.029999999999999999,
                   MAILLE='M23',),
                _F(NUME_ORDRE=1,
                   GROUP_NO='D',
                   REFERENCE='ANALYTIQUE',
                   RESULTAT=EFF,
                   NOM_CHAM='EFGE_ELNO',
                   NOM_CMP='QX',
                   VALE_CALC=-0.034997726,
                   VALE_REFE=0.0,
                   CRITERE='ABSOLU',
                   PRECISION=0.040000000000000001,
                   MAILLE='M23',),
                _F(NUME_ORDRE=1,
                   GROUP_NO='D',
                   REFERENCE='ANALYTIQUE',
                   RESULTAT=EFF,
                   NOM_CHAM='EFGE_ELNO',
                   NOM_CMP='QY',
                   VALE_CALC= 6.30749546E-03,
                   VALE_REFE=0.0,
                   CRITERE='ABSOLU',
                   PRECISION=1.E-2,
                   MAILLE='M23',),
                _F(NUME_ORDRE=1,
                   GROUP_NO='D1',
                   REFERENCE='ANALYTIQUE',
                   RESULTAT=EFF,
                   NOM_CHAM='EFGE_ELNO',
                   NOM_CMP='NXX',
                   VALE_CALC= 0.00000000E+00,
                   VALE_REFE=0.0,
                   CRITERE='ABSOLU',
                   PRECISION=1.E-2,
                   MAILLE='M14',),
                _F(NUME_ORDRE=1,
                   GROUP_NO='D1',
                   REFERENCE='ANALYTIQUE',
                   RESULTAT=EFF,
                   NOM_CHAM='EFGE_ELNO',
                   NOM_CMP='NYY',
                   VALE_CALC= 0.00000000E+00,
                   VALE_REFE=0.0,
                   CRITERE='ABSOLU',
                   PRECISION=1.E-2,
                   MAILLE='M14',),
                _F(NUME_ORDRE=1,
                   GROUP_NO='D1',
                   REFERENCE='ANALYTIQUE',
                   RESULTAT=EFF,
                   NOM_CHAM='EFGE_ELNO',
                   NOM_CMP='NXY',
                   VALE_CALC= 0.00000000E+00,
                   VALE_REFE=0.0,
                   CRITERE='ABSOLU',
                   PRECISION=1.E-2,
                   MAILLE='M14',),
                _F(NUME_ORDRE=1,
                   GROUP_NO='D1',
                   REFERENCE='ANALYTIQUE',
                   RESULTAT=EFF,
                   NOM_CHAM='EFGE_ELNO',
                   NOM_CMP='MXX',
                   VALE_CALC= 2.33843900E-03,
                   VALE_REFE=0.0,
                   CRITERE='ABSOLU',
                   PRECISION=1.E-2,
                   MAILLE='M14',),
                _F(NUME_ORDRE=1,
                   GROUP_NO='D1',
                   REFERENCE='ANALYTIQUE',
                   RESULTAT=EFF,
                   NOM_CHAM='EFGE_ELNO',
                   NOM_CMP='MYY',
                   VALE_CALC= 6.79190625E-04,
                   VALE_REFE=0.0,
                   CRITERE='ABSOLU',
                   PRECISION=1.E-2,
                   MAILLE='M14',),
                _F(NUME_ORDRE=1,
                   GROUP_NO='D1',
                   REFERENCE='ANALYTIQUE',
                   RESULTAT=EFF,
                   NOM_CHAM='EFGE_ELNO',
                   NOM_CMP='MXY',
                   VALE_CALC=-8.63738370E-04,
                   VALE_REFE=0.0,
                   CRITERE='ABSOLU',
                   PRECISION=1.E-2,
                   MAILLE='M14',),
                _F(NUME_ORDRE=1,
                   GROUP_NO='D1',
                   REFERENCE='ANALYTIQUE',
                   RESULTAT=EFF,
                   NOM_CHAM='EFGE_ELNO',
                   NOM_CMP='QX',
                   VALE_CALC=-0.199851256,
                   VALE_REFE=-0.15915499999999999,
                   PRECISION=0.29999999999999999,
                   MAILLE='M14',),
                _F(NUME_ORDRE=1,
                   GROUP_NO='D1',
                   REFERENCE='ANALYTIQUE',
                   RESULTAT=EFF,
                   NOM_CHAM='EFGE_ELNO',
                   NOM_CMP='QY',
                   VALE_CALC=0.053780056,
                   VALE_REFE=0.0,
                   CRITERE='ABSOLU',
                   PRECISION=0.059999999999999998,
                   MAILLE='M14',),
                _F(NUME_ORDRE=1,
                   GROUP_NO='D1',
                   REFERENCE='ANALYTIQUE',
                   RESULTAT=EFF,
                   NOM_CHAM='EFGE_ELNO',
                   NOM_CMP='QX',
                   VALE_CALC=-0.131081230,
                   VALE_REFE=-0.15915499999999999,
                   PRECISION=0.20999999999999999,
                   MAILLE='M11',),
                _F(NUME_ORDRE=1,
                   GROUP_NO='D1',
                   REFERENCE='ANALYTIQUE',
                   RESULTAT=EFF,
                   NOM_CHAM='EFGE_ELNO',
                   NOM_CMP='QY',
                   VALE_CALC=0.023966442,
                   VALE_REFE=0.0,
                   CRITERE='ABSOLU',
                   PRECISION=0.029999999999999999,
                   MAILLE='M11',),
                _F(NUME_ORDRE=1,
                   GROUP_NO='A',
                   REFERENCE='ANALYTIQUE',
                   RESULTAT=EFF,
                   NOM_CHAM='EFGE_ELNO',
                   NOM_CMP='NXX',
                   VALE_CALC= 0.00000000E+00,
                   VALE_REFE=0.0,
                   CRITERE='ABSOLU',
                   PRECISION=1.E-2,
                   MAILLE='M1',),
                _F(NUME_ORDRE=1,
                   GROUP_NO='A',
                   REFERENCE='ANALYTIQUE',
                   RESULTAT=EFF,
                   NOM_CHAM='EFGE_ELNO',
                   NOM_CMP='NYY',
                   VALE_CALC= 0.00000000E+00,
                   VALE_REFE=0.0,
                   CRITERE='ABSOLU',
                   PRECISION=1.E-2,
                   MAILLE='M1',),
                _F(NUME_ORDRE=1,
                   GROUP_NO='A',
                   REFERENCE='ANALYTIQUE',
                   RESULTAT=EFF,
                   NOM_CHAM='EFGE_ELNO',
                   NOM_CMP='NXY',
                   VALE_CALC= 0.00000000E+00,
                   VALE_REFE=0.0,
                   CRITERE='ABSOLU',
                   PRECISION=1.E-2,
                   MAILLE='M1',),
                _F(NUME_ORDRE=1,
                   GROUP_NO='A',
                   REFERENCE='ANALYTIQUE',
                   RESULTAT=EFF,
                   NOM_CHAM='EFGE_ELNO',
                   NOM_CMP='MXX',
                   VALE_CALC= 8.52952757E-04,
                   VALE_REFE=0.0,
                   CRITERE='ABSOLU',
                   PRECISION=1.E-2,
                   MAILLE='M1',),
                _F(NUME_ORDRE=1,
                   GROUP_NO='A',
                   REFERENCE='ANALYTIQUE',
                   RESULTAT=EFF,
                   NOM_CHAM='EFGE_ELNO',
                   NOM_CMP='MYY',
                   VALE_CALC= 2.13238189E-04,
                   VALE_REFE=0.0,
                   CRITERE='ABSOLU',
                   PRECISION=1.E-2,
                   MAILLE='M1',),
                _F(NUME_ORDRE=1,
                   GROUP_NO='A',
                   REFERENCE='ANALYTIQUE',
                   RESULTAT=EFF,
                   NOM_CHAM='EFGE_ELNO',
                   NOM_CMP='MXY',
                   VALE_CALC=0.019164588,
                   VALE_REFE=0.018997199999999999,
                   PRECISION=0.029999999999999999,
                   MAILLE='M1',),
                _F(NUME_ORDRE=1,
                   GROUP_NO='A',
                   REFERENCE='ANALYTIQUE',
                   RESULTAT=EFF,
                   NOM_CHAM='EFGE_ELNO',
                   NOM_CMP='QY',
                   VALE_CALC=-6.30749546E-03,
                   VALE_REFE=0.0,
                   CRITERE='ABSOLU',
                   PRECISION=1.E-2,
                   MAILLE='M1',),
                _F(NUME_ORDRE=1,
                   GROUP_NO='A',
                   REFERENCE='ANALYTIQUE',
                   RESULTAT=EFF,
                   NOM_CHAM='EFGE_ELNO',
                   NOM_CMP='QX',
                   VALE_CALC=-0.034997726,
                   VALE_REFE=0.0,
                   CRITERE='ABSOLU',
                   PRECISION=0.040000000000000001,
                   MAILLE='M1',),
                _F(NUME_ORDRE=1,
                   GROUP_NO='B',
                   REFERENCE='ANALYTIQUE',
                   RESULTAT=EFF,
                   NOM_CHAM='EFGE_ELNO',
                   NOM_CMP='NXX',
                   VALE_CALC= 0.00000000E+00,
                   VALE_REFE=0.0,
                   CRITERE='ABSOLU',
                   PRECISION=1.E-2,
                   MAILLE='M266',),
                _F(NUME_ORDRE=1,
                   GROUP_NO='B',
                   REFERENCE='ANALYTIQUE',
                   RESULTAT=EFF,
                   NOM_CHAM='EFGE_ELNO',
                   NOM_CMP='NYY',
                   VALE_CALC= 0.00000000E+00,
                   VALE_REFE=0.0,
                   CRITERE='ABSOLU',
                   PRECISION=1.E-2,
                   MAILLE='M266',),
                _F(NUME_ORDRE=1,
                   GROUP_NO='B',
                   REFERENCE='ANALYTIQUE',
                   RESULTAT=EFF,
                   NOM_CHAM='EFGE_ELNO',
                   NOM_CMP='NXY',
                   VALE_CALC= 0.00000000E+00,
                   VALE_REFE=0.0,
                   CRITERE='ABSOLU',
                   PRECISION=1.E-2,
                   MAILLE='M266',),
                _F(NUME_ORDRE=1,
                   GROUP_NO='B',
                   REFERENCE='ANALYTIQUE',
                   RESULTAT=EFF,
                   NOM_CHAM='EFGE_ELNO',
                   NOM_CMP='MXX',
                   VALE_CALC= 1.87796625E-18,
                   VALE_REFE=0.0,
                   CRITERE='ABSOLU',
                   PRECISION=1.E-2,
                   MAILLE='M266',),
                _F(NUME_ORDRE=1,
                   GROUP_NO='B',
                   REFERENCE='ANALYTIQUE',
                   RESULTAT=EFF,
                   NOM_CHAM='EFGE_ELNO',
                   NOM_CMP='MYY',
                   VALE_CALC= 4.38923568E-18,
                   VALE_REFE=0.0,
                   CRITERE='ABSOLU',
                   PRECISION=1.E-2,
                   MAILLE='M266',),
                _F(NUME_ORDRE=1,
                   GROUP_NO='B',
                   REFERENCE='ANALYTIQUE',
                   RESULTAT=EFF,
                   NOM_CHAM='EFGE_ELNO',
                   NOM_CMP='MXY',
                   VALE_CALC=-0.018828783,
                   VALE_REFE=-0.018997199999999999,
                   PRECISION=0.029999999999999999,
                   MAILLE='M266',),
                _F(NUME_ORDRE=1,
                   GROUP_NO='B',
                   REFERENCE='ANALYTIQUE',
                   RESULTAT=EFF,
                   NOM_CHAM='EFGE_ELNO',
                   NOM_CMP='QY',
                   VALE_CALC= 1.13339429E-04,
                   VALE_REFE=0.0,
                   CRITERE='ABSOLU',
                   PRECISION=1.E-2,
                   MAILLE='M266',),
                _F(NUME_ORDRE=1,
                   GROUP_NO='B',
                   REFERENCE='ANALYTIQUE',
                   RESULTAT=EFF,
                   NOM_CHAM='EFGE_ELNO',
                   NOM_CMP='QX',
                   VALE_CALC= 1.13339429E-04,
                   VALE_REFE=0.0,
                   CRITERE='ABSOLU',
                   PRECISION=1.E-2,
                   MAILLE='M266',),
                _F(NUME_ORDRE=1,
                   GROUP_NO='B1',
                   REFERENCE='ANALYTIQUE',
                   RESULTAT=EFF,
                   NOM_CHAM='EFGE_ELNO',
                   NOM_CMP='NXX',
                   VALE_CALC= 0.00000000E+00,
                   VALE_REFE=0.0,
                   CRITERE='ABSOLU',
                   PRECISION=1.E-2,
                   MAILLE='M122',),
                _F(NUME_ORDRE=1,
                   GROUP_NO='B1',
                   REFERENCE='ANALYTIQUE',
                   RESULTAT=EFF,
                   NOM_CHAM='EFGE_ELNO',
                   NOM_CMP='NYY',
                   VALE_CALC= 0.00000000E+00,
                   VALE_REFE=0.0,
                   CRITERE='ABSOLU',
                   PRECISION=1.E-2,
                   MAILLE='M122',),
                _F(NUME_ORDRE=1,
                   GROUP_NO='B1',
                   REFERENCE='ANALYTIQUE',
                   RESULTAT=EFF,
                   NOM_CHAM='EFGE_ELNO',
                   NOM_CMP='NXY',
                   VALE_CALC= 0.00000000E+00,
                   VALE_REFE=0.0,
                   CRITERE='ABSOLU',
                   PRECISION=1.E-2,
                   MAILLE='M122',),
                _F(NUME_ORDRE=1,
                   GROUP_NO='B1',
                   REFERENCE='ANALYTIQUE',
                   RESULTAT=EFF,
                   NOM_CHAM='EFGE_ELNO',
                   NOM_CMP='MXX',
                   VALE_CALC= 2.99148600E-04,
                   VALE_REFE=0.0,
                   CRITERE='ABSOLU',
                   PRECISION=1.E-2,
                   MAILLE='M122',),
                _F(NUME_ORDRE=1,
                   GROUP_NO='B1',
                   REFERENCE='ANALYTIQUE',
                   RESULTAT=EFF,
                   NOM_CHAM='EFGE_ELNO',
                   NOM_CMP='MYY',
                   VALE_CALC= 1.19659440E-03,
                   VALE_REFE=0.0,
                   CRITERE='ABSOLU',
                   PRECISION=1.E-2,
                   MAILLE='M122',),
                _F(NUME_ORDRE=1,
                   GROUP_NO='B1',
                   REFERENCE='ANALYTIQUE',
                   RESULTAT=EFF,
                   NOM_CHAM='EFGE_ELNO',
                   NOM_CMP='MXY',
                   VALE_CALC= 1.26385875E-03,
                   VALE_REFE=0.0,
                   CRITERE='ABSOLU',
                   PRECISION=1.E-2,
                   MAILLE='M122',),
                _F(NUME_ORDRE=1,
                   GROUP_NO='B1',
                   REFERENCE='ANALYTIQUE',
                   RESULTAT=EFF,
                   NOM_CHAM='EFGE_ELNO',
                   NOM_CMP='QY',
                   VALE_CALC=-0.161851262,
                   VALE_REFE=-0.15915499999999999,
                   PRECISION=0.20999999999999999,
                   MAILLE='M122',),
                _F(NUME_ORDRE=1,
                   GROUP_NO='B1',
                   REFERENCE='ANALYTIQUE',
                   RESULTAT=EFF,
                   NOM_CHAM='EFGE_ELNO',
                   NOM_CMP='QX',
                   VALE_CALC=-0.020011927,
                   VALE_REFE=0.0,
                   CRITERE='ABSOLU',
                   PRECISION=0.029999999999999999,
                   MAILLE='M122',),
                _F(NUME_ORDRE=1,
                   GROUP_NO='B1',
                   REFERENCE='ANALYTIQUE',
                   RESULTAT=EFF,
                   NOM_CHAM='EFGE_ELNO',
                   NOM_CMP='NXX',
                   VALE_CALC= 0.00000000E+00,
                   VALE_REFE=0.0,
                   CRITERE='ABSOLU',
                   PRECISION=1.E-2,
                   MAILLE='M146',),
                _F(NUME_ORDRE=1,
                   GROUP_NO='B1',
                   REFERENCE='ANALYTIQUE',
                   RESULTAT=EFF,
                   NOM_CHAM='EFGE_ELNO',
                   NOM_CMP='NYY',
                   VALE_CALC= 0.00000000E+00,
                   VALE_REFE=0.0,
                   CRITERE='ABSOLU',
                   PRECISION=1.E-2,
                   MAILLE='M146',),
                _F(NUME_ORDRE=1,
                   GROUP_NO='B1',
                   REFERENCE='ANALYTIQUE',
                   RESULTAT=EFF,
                   NOM_CHAM='EFGE_ELNO',
                   NOM_CMP='NXY',
                   VALE_CALC= 0.00000000E+00,
                   VALE_REFE=0.0,
                   CRITERE='ABSOLU',
                   PRECISION=1.E-2,
                   MAILLE='M146',),
                _F(NUME_ORDRE=1,
                   GROUP_NO='B1',
                   REFERENCE='ANALYTIQUE',
                   RESULTAT=EFF,
                   NOM_CHAM='EFGE_ELNO',
                   NOM_CMP='MXX',
                   VALE_CALC= 9.39364132E-04,
                   VALE_REFE=0.0,
                   CRITERE='ABSOLU',
                   PRECISION=1.E-2,
                   MAILLE='M146',),
                _F(NUME_ORDRE=1,
                   GROUP_NO='B1',
                   REFERENCE='ANALYTIQUE',
                   RESULTAT=EFF,
                   NOM_CHAM='EFGE_ELNO',
                   NOM_CMP='MYY',
                   VALE_CALC= 3.75745653E-03,
                   VALE_REFE=0.0,
                   CRITERE='ABSOLU',
                   PRECISION=1.E-2,
                   MAILLE='M146',),
                _F(NUME_ORDRE=1,
                   GROUP_NO='B1',
                   REFERENCE='ANALYTIQUE',
                   RESULTAT=EFF,
                   NOM_CHAM='EFGE_ELNO',
                   NOM_CMP='MXY',
                   VALE_CALC=-1.03843454E-03,
                   VALE_REFE=0.0,
                   CRITERE='ABSOLU',
                   PRECISION=1.E-2,
                   MAILLE='M146',),
                _F(NUME_ORDRE=1,
                   GROUP_NO='B1',
                   REFERENCE='ANALYTIQUE',
                   RESULTAT=EFF,
                   NOM_CHAM='EFGE_ELNO',
                   NOM_CMP='QY',
                   VALE_CALC=-0.159159543,
                   VALE_REFE=-0.15915499999999999,
                   PRECISION=0.029999999999999999,
                   MAILLE='M146',),
                _F(NUME_ORDRE=1,
                   GROUP_NO='B1',
                   REFERENCE='ANALYTIQUE',
                   RESULTAT=EFF,
                   NOM_CHAM='EFGE_ELNO',
                   NOM_CMP='QX',
                   VALE_CALC=-0.018923896,
                   VALE_REFE=0.0,
                   CRITERE='ABSOLU',
                   PRECISION=0.02,
                   MAILLE='M146',),
                ),
          )

FIN();
