# TITRE CYLINDRE MINCE SOUS CHARGE AXIALE UNIFORME (AXIS) -ancien SSLP07c
# ======================================================================
# COPYRIGHT (C) 1991 - 2012  EDF R&D                  WWW.CODE-ASTER.ORG
# THIS PROGRAM IS FREE SOFTWARE; YOU CAN REDISTRIBUTE IT AND/OR MODIFY  
# IT UNDER THE TERMS OF THE GNU GENERAL PUBLIC LICENSE AS PUBLISHED BY  
# THE FREE SOFTWARE FOUNDATION; EITHER VERSION 2 OF THE LICENSE, OR     
# (AT YOUR OPTION) ANY LATER VERSION.                                                    
#                                                                       
# THIS PROGRAM IS DISTRIBUTED IN THE HOPE THAT IT WILL BE USEFUL, BUT   
# WITHOUT ANY WARRANTY; WITHOUT EVEN THE IMPLIED WARRANTY OF            
# MERCHANTABILITY OR FITNESS FOR A PARTICULAR PURPOSE. SEE THE GNU      
# GENERAL PUBLIC LICENSE FOR MORE DETAILS.                              
#                                                                       
# YOU SHOULD HAVE RECEIVED A COPY OF THE GNU GENERAL PUBLIC LICENSE     
# ALONG WITH THIS PROGRAM; IF NOT, WRITE TO EDF R&D CODE_ASTER,         
#    1 AVENUE DU GENERAL DE GAULLE, 92141 CLAMART CEDEX, FRANCE.        
# ======================================================================
#
# person_in_charge: xavier.desroches at edf.fr

DEBUT( CODE=_F(NIV_PUB_WEB='INTERNET') )

MAIL=LIRE_MAILLAGE(FORMAT='MED',)

#
# DEFINITION DES GROUPES DE NOEUDS
MAIL=DEFI_GROUP( reuse=MAIL,   MAILLAGE=MAIL,CREA_GROUP_NO=(
                       _F(  GROUP_MA = 'APPUI'),
                       _F(  GROUP_MA = 'BORD_CH'),
                       _F(  GROUP_MA = 'LEF'))
                   )

#
# DEFINITION DU MODELE
MODELE=AFFE_MODELE(    MAILLAGE=MAIL,
                         AFFE=_F(  TOUT = 'OUI',
                       PHENOMENE = 'MECANIQUE',
                       MODELISATION = 'AXIS')  )

#
# DEFINITION DU MATERIAU
ACIER=DEFI_MATERIAU(    ELAS=_F(  E = 2.1E11,  NU = 0.3,
                                 ALPHA = 1.E-5,  RHO = 7800.)
                      )

#
# ATTRIBUTION DU MATERIAU
CHMAT=AFFE_MATERIAU(    MAILLAGE=MAIL,
                          AFFE=_F(  TOUT = 'OUI',
                                 MATER = ACIER)  )

#
# DEFINITION DES CONDITIONS AUX LIMITES ET CHARGEMENTS
CLIM=AFFE_CHAR_MECA(     MODELE=MODELE,
                           DDL_IMPO=_F(  GROUP_NO = 'APPUI',  DY = 0.)
                        )

#
F_X1=DEFI_FONCTION(    NOM_PARA='X',
                         VALE=( 0.99,  0.,    1.01,  500000., )
                     )

F_X2=DEFI_FONCTION(    NOM_PARA='X',
                         VALE=( 0.99,  500000.,    1.01,  0., )
                     )

CHARGT1=AFFE_CHAR_MECA_F(    MODELE=MODELE,
                             FORCE_CONTOUR=_F(  GROUP_MA = 'BORD_CH',
                                             FY = F_X1)
                          )

CHARGT2=AFFE_CHAR_MECA_F(    MODELE=MODELE,
                             FORCE_CONTOUR=_F(  GROUP_MA = 'BORD_CH',
                                             FY = F_X2)
                          )

#
# RESOLUTION
DEF1=MECA_STATIQUE(    MODELE=MODELE,
                        CHAM_MATER=CHMAT,EXCIT=(
                        _F(  CHARGE = CLIM),
                              _F(  CHARGE = CHARGT1))
                    )

DEF2=MECA_STATIQUE(    MODELE=MODELE,
                        CHAM_MATER=CHMAT,EXCIT=(
                        _F(  CHARGE = CLIM),
                              _F(  CHARGE = CHARGT2))
                    )

#
# RECUPERATION DU CHAMP DE DEPLACEMENTS
U1=CREA_CHAMP(  OPERATION='EXTR', TYPE_CHAM='NOEU_DEPL_R',
NOM_CHAM='DEPL', RESULTAT=DEF1,
                 NUME_ORDRE=1
                  )

#
U2=CREA_CHAMP(  OPERATION='EXTR', TYPE_CHAM='NOEU_DEPL_R',
NOM_CHAM='DEPL', RESULTAT=DEF2,
                 NUME_ORDRE=1
                  )

#
# TEST_RESU DEPLACEMENTS
#
TEST_RESU(CHAM_NO=(_F(NOEUD='N51',
                      REFERENCE='ANALYTIQUE',
                      NOM_CMP='DX',
                      PRECISION=1.E-3,
                      CHAM_GD=U1,
                      VALE_CALC=-3.58333333E-07,
                      VALE_REFE=-3.5830000000000003E-07,),
                   _F(NOEUD='N202',
                      REFERENCE='ANALYTIQUE',
                      NOM_CMP='DX',
                      PRECISION=1.E-3,
                      CHAM_GD=U1,
                      VALE_CALC=-3.58333345E-07,
                      VALE_REFE=-3.5830000000000003E-07,),
                   _F(NOEUD='N503',
                      REFERENCE='ANALYTIQUE',
                      NOM_CMP='DX',
                      PRECISION=1.E-3,
                      CHAM_GD=U1,
                      VALE_CALC=-1.01163719E-06,
                      VALE_REFE=-1.012E-06,),
                   _F(NOEUD='N51',
                      REFERENCE='ANALYTIQUE',
                      NOM_CMP='DX',
                      PRECISION=1.E-3,
                      CHAM_GD=U2,
                      VALE_CALC=-3.55952381E-07,
                      VALE_REFE=-3.559E-07,),
                   _F(NOEUD='N202',
                      REFERENCE='ANALYTIQUE',
                      NOM_CMP='DX',
                      PRECISION=1.E-3,
                      CHAM_GD=U2,
                      VALE_CALC=-3.55952369E-07,
                      VALE_REFE=-3.559E-07,),
                   _F(NOEUD='N503',
                      REFERENCE='ANALYTIQUE',
                      NOM_CMP='DX',
                      PRECISION=1.E-3,
                      CHAM_GD=U2,
                      VALE_CALC= 2.97351477E-07,
                      VALE_REFE=2.973E-07,),
                   ),
          )

#
TEST_RESU(CHAM_NO=(_F(NOEUD='N452',
                      REFERENCE='ANALYTIQUE',
                      NOM_CMP='DY',
                      PRECISION=1.E-3,
                      CHAM_GD=U1,
                      VALE_CALC= 4.89634783E-06,
                      VALE_REFE=4.8960000000000002E-06,),
                   _F(NOEUD='N504',
                      REFERENCE='ANALYTIQUE',
                      NOM_CMP='DY',
                      PRECISION=1.E-3,
                      CHAM_GD=U1,
                      VALE_CALC= 4.65827518E-06,
                      VALE_REFE=4.6580000000000001E-06,),
                   _F(NOEUD='N503',
                      REFERENCE='ANALYTIQUE',
                      NOM_CMP='DY',
                      PRECISION=1.E-3,
                      CHAM_GD=U1,
                      VALE_CALC= 4.77741573E-06,
                      VALE_REFE=4.7770000000000002E-06,),
                   _F(NOEUD='N452',
                      REFERENCE='ANALYTIQUE',
                      NOM_CMP='DY',
                      PRECISION=1.E-3,
                      CHAM_GD=U2,
                      VALE_CALC= 4.62746170E-06,
                      VALE_REFE=4.6269999999999999E-06,),
                   _F(NOEUD='N504',
                      REFERENCE='ANALYTIQUE',
                      NOM_CMP='DY',
                      PRECISION=1.E-3,
                      CHAM_GD=U2,
                      VALE_CALC= 4.86553434E-06,
                      VALE_REFE=4.865E-06,),
                   _F(NOEUD='N503',
                      REFERENCE='ANALYTIQUE',
                      NOM_CMP='DY',
                      PRECISION=1.E-3,
                      CHAM_GD=U2,
                      VALE_CALC= 4.74639379E-06,
                      VALE_REFE=4.746E-06,),
                   ),
          )

#
FIN( )
#
#
