# TITRE PLAQUE CIRCULAIRE ENCASTREE SOUS PRESSION DKT  170 N - 296 TRIA3
# ======================================================================
# COPYRIGHT (C) 1991 - 2012  EDF R&D                  WWW.CODE-ASTER.ORG
# THIS PROGRAM IS FREE SOFTWARE; YOU CAN REDISTRIBUTE IT AND/OR MODIFY
# IT UNDER THE TERMS OF THE GNU GENERAL PUBLIC LICENSE AS PUBLISHED BY
# THE FREE SOFTWARE FOUNDATION; EITHER VERSION 2 OF THE LICENSE, OR
# (AT YOUR OPTION) ANY LATER VERSION.
#
# THIS PROGRAM IS DISTRIBUTED IN THE HOPE THAT IT WILL BE USEFUL, BUT
# WITHOUT ANY WARRANTY; WITHOUT EVEN THE IMPLIED WARRANTY OF
# MERCHANTABILITY OR FITNESS FOR A PARTICULAR PURPOSE. SEE THE GNU
# GENERAL PUBLIC LICENSE FOR MORE DETAILS.
#
# YOU SHOULD HAVE RECEIVED A COPY OF THE GNU GENERAL PUBLIC LICENSE
# ALONG WITH THIS PROGRAM; IF NOT, WRITE TO EDF R&D CODE_ASTER,
#    1 AVENUE DU GENERAL DE GAULLE, 92141 CLAMART CEDEX, FRANCE.
# ======================================================================

DEBUT(CODE=_F(NOM='SSLS100B', NIV_PUB_WEB='INTERNET'), DEBUG=_F(SDVERI='OUI'))

#-----------------------------------------------------------------------
# POINTS:   O    MAILLES  M1    M2
#           A             M248  M255
#           B             M292  M293   M296
#           C             M74   M75
#           D             M76   M108   M109
#           E             M34   M40    M41
#           F             M122  M123   M124   M148   M152   M153
#-----------------------------------------------------------------------


MATER=DEFI_MATERIAU( ELAS=_F(  E = 1., NU = 0.3,  RHO = 1.) )

MAILL=LIRE_MAILLAGE(FORMAT='MED',   )

MAILL=DEFI_GROUP( reuse=MAILL,   MAILLAGE=MAILL,
  CREA_GROUP_MA=_F(  NOM = 'TOUT', TOUT = 'OUI'))

CHMAT=AFFE_MATERIAU(  MAILLAGE=MAILL,
                          AFFE=_F(  TOUT = 'OUI',   MATER = MATER) )

MODEL=AFFE_MODELE(  MAILLAGE=MAILL,    VERIF='MAILLE',
                        AFFE=_F( TOUT = 'OUI',   MODELISATION = 'DKT',
                              PHENOMENE = 'MECANIQUE') )

CINE=AFFE_CHAR_MECA(   MODELE=MODEL,DDL_IMPO=(
              _F( GROUP_NO = 'GRNO_ABC', DX = 0.,  DY = 0.,  DZ = 0.,
                                          DRX = 0.,  DRY = 0.,  DRZ = 0.),
                       _F( GROUP_NO = 'GRNO_OA',  DY = 0.,  DRX = 0.,  DRZ = 0.),
                       _F( GROUP_NO = 'GRNO_OC',  DX = 0.,  DRY = 0.,  DRZ = 0.),
                       _F( NOEUD = 'O',        DX = 0.,  DY = 0.,
                                          DRX = 0.,  DRY = 0.,  DRZ = 0.))
                           )

ZERO=DEFI_CONSTANTE(    VALE=0.0 )

VAL_PRES=DEFI_CONSTANTE(     VALE=1. )

VAL_CHF3=DEFI_CONSTANTE(    VALE=-1. )

PRES=AFFE_CHAR_MECA_F(   MODELE=MODEL,
                    FORCE_COQUE=_F(  TOUT = 'OUI',   PRES = VAL_PRES)   )

CHF3=AFFE_CHAR_MECA_F(   MODELE=MODEL,
                    FORCE_COQUE=_F(  TOUT = 'OUI',   F3 = VAL_CHF3)   )

CHPE=AFFE_CHAR_MECA(   MODELE=MODEL,
                      PESANTEUR=_F(GRAVITE= 10.,
                                   DIRECTION=( 0., 0., -1.,), ),)

CARELEM=AFFE_CARA_ELEM(   MODELE=MODEL,
                               COQUE=_F(
       GROUP_MA = 'TOUT',
  EPAIS = 0.1) )

DEP=MACRO_ELAS_MULT(MODELE=MODEL,
                    CHAM_MATER=CHMAT,
                    CARA_ELEM=CARELEM,
                    CHAR_MECA_GLOBAL=CINE,
                    CAS_CHARGE=(_F(NOM_CAS='CHARGE1',
                                   CHAR_MECA=PRES,),
                                _F(NOM_CAS='CHARGE2',
                                   CHAR_MECA=CHF3,),
                                _F(NOM_CAS='CHARGE3',
                                   CHAR_MECA=CHPE,),),);

#--------------------------------------------------------------------

TEST_RESU(RESU=(_F(NUME_ORDRE=1,
                   REFERENCE='ANALYTIQUE',
                   RESULTAT=DEP,
                   NOM_CHAM='DEPL',
                   NOEUD='O',
                   NOM_CMP='DZ',
                   VALE_CALC=-170.824190538,
                   VALE_REFE=-170.6251,
                   CRITERE='RELATIF',
                   PRECISION=5.0000000000000001E-3,),
                _F(NUME_ORDRE=1,
                   REFERENCE='ANALYTIQUE',
                   RESULTAT=DEP,
                   NOM_CHAM='DEPL',
                   NOEUD='A',
                   NOM_CMP='DZ',
                   VALE_CALC= 5.4210108624E-17,
                   VALE_REFE=0.0,
                   TOLE_MACHINE=1.E-10,
                   CRITERE='ABSOLU',
                   PRECISION=1.E-10,),
                _F(NUME_ORDRE=1,
                   REFERENCE='ANALYTIQUE',
                   RESULTAT=DEP,
                   NOM_CHAM='DEPL',
                   NOEUD='B',
                   NOM_CMP='DZ',
                   VALE_CALC= 2.5153490402E-17,
                   VALE_REFE=0.0,
                   TOLE_MACHINE=1.E-10,
                   CRITERE='ABSOLU',
                   PRECISION=1.E-10,),
                _F(NUME_ORDRE=1,
                   REFERENCE='ANALYTIQUE',
                   RESULTAT=DEP,
                   NOM_CHAM='DEPL',
                   NOEUD='C',
                   NOM_CMP='DZ',
                   VALE_CALC= 4.9873299934E-17,
                   VALE_REFE=0.0,
                   TOLE_MACHINE=1.E-10,
                   CRITERE='ABSOLU',
                   PRECISION=1.E-10,),
                _F(NUME_ORDRE=1,
                   REFERENCE='ANALYTIQUE',
                   RESULTAT=DEP,
                   NOM_CHAM='DEPL',
                   NOEUD='D',
                   NOM_CMP='DZ',
                   VALE_CALC=-96.169161896,
                   VALE_REFE=-95.976600000000005,
                   CRITERE='RELATIF',
                   PRECISION=5.0000000000000001E-3,),
                _F(NUME_ORDRE=1,
                   REFERENCE='ANALYTIQUE',
                   RESULTAT=DEP,
                   NOM_CHAM='DEPL',
                   NOEUD='E',
                   NOM_CMP='DZ',
                   VALE_CALC=-96.180189370,
                   VALE_REFE=-95.976600000000005,
                   CRITERE='RELATIF',
                   PRECISION=5.0000000000000001E-3,),
                _F(NUME_ORDRE=1,
                   REFERENCE='ANALYTIQUE',
                   RESULTAT=DEP,
                   NOM_CHAM='DEPL',
                   NOEUD='F',
                   NOM_CMP='DZ',
                   VALE_CALC=-79.081121833,
                   VALE_REFE=-78.897000000000006,
                   CRITERE='RELATIF',
                   PRECISION=5.0000000000000001E-3,),
                _F(NUME_ORDRE=2,
                   REFERENCE='ANALYTIQUE',
                   RESULTAT=DEP,
                   NOM_CHAM='DEPL',
                   NOEUD='O',
                   NOM_CMP='DZ',
                   VALE_CALC=-170.824190538,
                   VALE_REFE=-170.6251,
                   CRITERE='RELATIF',
                   PRECISION=5.0000000000000001E-3,),
                _F(NUME_ORDRE=2,
                   REFERENCE='ANALYTIQUE',
                   RESULTAT=DEP,
                   NOM_CHAM='DEPL',
                   NOEUD='A',
                   NOM_CMP='DZ',
                   VALE_CALC= 5.4210108624E-17,
                   VALE_REFE=0.0,
                   TOLE_MACHINE=1.E-10,
                   CRITERE='ABSOLU',
                   PRECISION=1.E-10,),
                _F(NUME_ORDRE=2,
                   REFERENCE='ANALYTIQUE',
                   RESULTAT=DEP,
                   NOM_CHAM='DEPL',
                   NOEUD='B',
                   NOM_CMP='DZ',
                   VALE_CALC= 2.5153490402E-17,
                   VALE_REFE=0.0,
                   TOLE_MACHINE=1.E-10,
                   CRITERE='ABSOLU',
                   PRECISION=1.E-10,),
                _F(NUME_ORDRE=2,
                   REFERENCE='ANALYTIQUE',
                   RESULTAT=DEP,
                   NOM_CHAM='DEPL',
                   NOEUD='C',
                   NOM_CMP='DZ',
                   VALE_CALC= 4.9873299934E-17,
                   VALE_REFE=0.0,
                   TOLE_MACHINE=1.E-10,
                   CRITERE='ABSOLU',
                   PRECISION=1.E-10,),
                _F(NUME_ORDRE=2,
                   REFERENCE='ANALYTIQUE',
                   RESULTAT=DEP,
                   NOM_CHAM='DEPL',
                   NOEUD='D',
                   NOM_CMP='DZ',
                   VALE_CALC=-96.169161896,
                   VALE_REFE=-95.976600000000005,
                   CRITERE='RELATIF',
                   PRECISION=5.0000000000000001E-3,),
                _F(NUME_ORDRE=2,
                   REFERENCE='ANALYTIQUE',
                   RESULTAT=DEP,
                   NOM_CHAM='DEPL',
                   NOEUD='E',
                   NOM_CMP='DZ',
                   VALE_CALC=-96.180189370,
                   VALE_REFE=-95.976600000000005,
                   CRITERE='RELATIF',
                   PRECISION=5.0000000000000001E-3,),
                _F(NUME_ORDRE=2,
                   REFERENCE='ANALYTIQUE',
                   RESULTAT=DEP,
                   NOM_CHAM='DEPL',
                   NOEUD='F',
                   NOM_CMP='DZ',
                   VALE_CALC=-79.081121833,
                   VALE_REFE=-78.897000000000006,
                   CRITERE='RELATIF',
                   PRECISION=5.0000000000000001E-3,),
                _F(NUME_ORDRE=3,
                   REFERENCE='ANALYTIQUE',
                   RESULTAT=DEP,
                   NOM_CHAM='DEPL',
                   NOEUD='O',
                   NOM_CMP='DZ',
                   VALE_CALC=-170.824190538,
                   VALE_REFE=-170.6251,
                   CRITERE='RELATIF',
                   PRECISION=5.0000000000000001E-3,),
                _F(NUME_ORDRE=3,
                   REFERENCE='ANALYTIQUE',
                   RESULTAT=DEP,
                   NOM_CHAM='DEPL',
                   NOEUD='A',
                   NOM_CMP='DZ',
                   VALE_CALC= 5.4210108624E-17,
                   VALE_REFE=0.0,
                   TOLE_MACHINE=1.E-10,
                   CRITERE='ABSOLU',
                   PRECISION=1.E-10,),
                _F(NUME_ORDRE=3,
                   REFERENCE='ANALYTIQUE',
                   RESULTAT=DEP,
                   NOM_CHAM='DEPL',
                   NOEUD='B',
                   NOM_CMP='DZ',
                   VALE_CALC= 2.5153490402E-17,
                   VALE_REFE=0.0,
                   TOLE_MACHINE=1.E-10,
                   CRITERE='ABSOLU',
                   PRECISION=1.E-10,),
                _F(NUME_ORDRE=3,
                   REFERENCE='ANALYTIQUE',
                   RESULTAT=DEP,
                   NOM_CHAM='DEPL',
                   NOEUD='C',
                   NOM_CMP='DZ',
                   VALE_CALC= 4.9873299934E-17,
                   VALE_REFE=0.0,
                   TOLE_MACHINE=1.E-10,
                   CRITERE='ABSOLU',
                   PRECISION=1.E-10,),
                _F(NUME_ORDRE=3,
                   REFERENCE='ANALYTIQUE',
                   RESULTAT=DEP,
                   NOM_CHAM='DEPL',
                   NOEUD='D',
                   NOM_CMP='DZ',
                   VALE_CALC=-96.169161896,
                   VALE_REFE=-95.976600000000005,
                   CRITERE='RELATIF',
                   PRECISION=5.0000000000000001E-3,),
                _F(NUME_ORDRE=3,
                   REFERENCE='ANALYTIQUE',
                   RESULTAT=DEP,
                   NOM_CHAM='DEPL',
                   NOEUD='E',
                   NOM_CMP='DZ',
                   VALE_CALC=-96.180189370,
                   VALE_REFE=-95.976600000000005,
                   CRITERE='RELATIF',
                   PRECISION=5.0000000000000001E-3,),
                _F(NUME_ORDRE=3,
                   REFERENCE='ANALYTIQUE',
                   RESULTAT=DEP,
                   NOM_CHAM='DEPL',
                   NOEUD='F',
                   NOM_CMP='DZ',
                   VALE_CALC=-79.081121833,
                   VALE_REFE=-78.897000000000006,
                   CRITERE='RELATIF',
                   PRECISION=5.0000000000000001E-3,),
                ),
          )

#--------------------------------------------------------------------

DEP=CALC_CHAMP(reuse=DEP,RESULTAT=DEP,NUME_ORDRE=1,CONTRAINTE=('EFGE_ELNO'))


#--------------------------------------------------------------------
RELEVE_1=POST_RELEVE_T(
                   ACTION=_F(  NOEUD = ( 'O',  'A',  'B',  'C',  'D',  'E',  'F', ),
                            INTITULE = 'EFGE_R',
                            RESULTAT=DEP,
                            NUME_ORDRE=1,
                            NOM_CHAM='EFGE_ELNO',
                            NOM_CMP = ( 'MXX', 'MYY', ),
                            OPERATION = 'EXTRACTION')
                          )

TEST_TABLE(REFERENCE='ANALYTIQUE',
           PRECISION=1.E-2,
           
           VALE_CALC=-0.081694293,
           VALE_REFE=-0.081250000000000003,
           NOM_PARA='MXX',
           TABLE=RELEVE_1,
           FILTRE=_F(NOM_PARA='NOEUD',
                     VALE_K='O',),
           )

TEST_TABLE(REFERENCE='ANALYTIQUE',
           PRECISION=1.E-2,
           
           VALE_CALC=-0.081834294,
           VALE_REFE=-0.081250000000000003,
           NOM_PARA='MYY',
           TABLE=RELEVE_1,
           FILTRE=_F(NOM_PARA='NOEUD',
                     VALE_K='O',),
           )

TEST_TABLE(REFERENCE='ANALYTIQUE',
           PRECISION=0.029999999999999999,
           
           VALE_CALC=0.128018672,
           VALE_REFE=0.125,
           NOM_PARA='MXX',
           TABLE=RELEVE_1,
           FILTRE=_F(NOM_PARA='NOEUD',
                     VALE_K='A',),
           )

TEST_TABLE(REFERENCE='ANALYTIQUE',
           PRECISION=0.089999999999999997,
           
           VALE_CALC=0.040712415,
           VALE_REFE=0.037499999999999999,
           NOM_PARA='MYY',
           TABLE=RELEVE_1,
           FILTRE=_F(NOM_PARA='NOEUD',
                     VALE_K='A',),
           )

TEST_TABLE(REFERENCE='ANALYTIQUE',
           PRECISION=0.029999999999999999,
           
           VALE_CALC=0.083341675,
           VALE_REFE=0.081250000000000003,
           NOM_PARA='MXX',
           TABLE=RELEVE_1,
           FILTRE=_F(NOM_PARA='NOEUD',
                     VALE_K='B',),
           )

TEST_TABLE(REFERENCE='ANALYTIQUE',
           PRECISION=0.029999999999999999,
           
           VALE_CALC=0.083341444,
           VALE_REFE=0.081250000000000003,
           NOM_PARA='MYY',
           TABLE=RELEVE_1,
           FILTRE=_F(NOM_PARA='NOEUD',
                     VALE_K='B',),
           )

TEST_TABLE(REFERENCE='ANALYTIQUE',
           PRECISION=0.089999999999999997,
           
           VALE_CALC=0.040716932,
           VALE_REFE=0.037499999999999999,
           NOM_PARA='MXX',
           TABLE=RELEVE_1,
           FILTRE=_F(NOM_PARA='NOEUD',
                     VALE_K='C',),
           )

TEST_TABLE(REFERENCE='ANALYTIQUE',
           PRECISION=0.029999999999999999,
           
           VALE_CALC=0.128033277,
           VALE_REFE=0.125,
           NOM_PARA='MYY',
           TABLE=RELEVE_1,
           FILTRE=_F(NOM_PARA='NOEUD',
                     VALE_K='C',),
           )

TEST_TABLE(REFERENCE='ANALYTIQUE',
           PRECISION=0.025000000000000001,
           
           VALE_CALC=-0.030392243,
           VALE_REFE=-0.029690000000000001,
           NOM_PARA='MXX',
           TABLE=RELEVE_1,
           FILTRE=_F(NOM_PARA='NOEUD',
                     VALE_K='D',),
           )

TEST_TABLE(REFERENCE='ANALYTIQUE',
           PRECISION=0.02,
           
           VALE_CALC=-0.052553792,
           VALE_REFE=-0.051560000000000002,
           NOM_PARA='MYY',
           TABLE=RELEVE_1,
           FILTRE=_F(NOM_PARA='NOEUD',
                     VALE_K='D',),
           )

TEST_TABLE(REFERENCE='ANALYTIQUE',
           PRECISION=0.025000000000000001,
           
           VALE_CALC=-0.052543148,
           VALE_REFE=-0.051560000000000002,
           NOM_PARA='MXX',
           TABLE=RELEVE_1,
           FILTRE=_F(NOM_PARA='NOEUD',
                     VALE_K='E',),
           )

TEST_TABLE(REFERENCE='ANALYTIQUE',
           PRECISION=0.025000000000000001,
           
           VALE_CALC=-0.030397060,
           VALE_REFE=-0.029690000000000001,
           NOM_PARA='MYY',
           TABLE=RELEVE_1,
           FILTRE=_F(NOM_PARA='NOEUD',
                     VALE_K='E',),
           )

TEST_TABLE(REFERENCE='ANALYTIQUE',
           PRECISION=0.025000000000000001,
           
           VALE_CALC=-0.029866362,
           VALE_REFE=-0.029250000000000002,
           NOM_PARA='MXX',
           TABLE=RELEVE_1,
           FILTRE=_F(NOM_PARA='NOEUD',
                     VALE_K='F',),
           )

TEST_TABLE(REFERENCE='ANALYTIQUE',
           PRECISION=0.025000000000000001,
           
           VALE_CALC=-0.029904314,
           VALE_REFE=-0.029250000000000002,
           NOM_PARA='MYY',
           TABLE=RELEVE_1,
           FILTRE=_F(NOM_PARA='NOEUD',
                     VALE_K='F',),
           )

FIN()
