# MODIF  DATE 30/07/2012   AUTEUR LEFEBVRE J-P.LEFEBVRE 
# TITRE  PLAQUE CARREE EN APPUI SIMPLE SOUS PRESSION SINUSOIDALE
# ssls118c.para = tps_job 60 mem_job 256Mo ncpus 1 liste_test S
#            CONFIGURATION MANAGEMENT OF EDF VERSION
# ======================================================================
# COPYRIGHT (C) 1991 - 2012  EDF R&D                  WWW.CODE-ASTER.ORG
# THIS PROGRAM IS FREE SOFTWARE; YOU CAN REDISTRIBUTE IT AND/OR MODIFY
# IT UNDER THE TERMS OF THE GNU GENERAL PUBLIC LICENSE AS PUBLISHED BY
# THE FREE SOFTWARE FOUNDATION; EITHER VERSION 2 OF THE LICENSE, OR
# (AT YOUR OPTION) ANY LATER VERSION.
#
# THIS PROGRAM IS DISTRIBUTED IN THE HOPE THAT IT WILL BE USEFUL, BUT
# WITHOUT ANY WARRANTY; WITHOUT EVEN THE IMPLIED WARRANTY OF
# MERCHANTABILITY OR FITNESS FOR A PARTICULAR PURPOSE. SEE THE GNU
# GENERAL PUBLIC LICENSE FOR MORE DETAILS.
#
# YOU SHOULD HAVE RECEIVED A COPY OF THE GNU GENERAL PUBLIC LICENSE
# ALONG WITH THIS PROGRAM; IF NOT, WRITE TO EDF R&D CODE_ASTER,
#    1 AVENUE DU GENERAL DE GAULLE, 92141 CLAMART CEDEX, FRANCE.
# ======================================================================
#---------------------------------------------------------------------
#         - MODELISATION AVEC DES ELEMENTS 'DKT'(TRI3)
#---------------------------------------------------------------------
#
DEBUT(CODE=_F(NOM='SSLS118C',NIV_PUB_WEB='INTERNET'),DEBUG=_F(SDVERI='OUI'))
MA=LIRE_MAILLAGE(VERI_MAIL=_F(VERIF='OUI'),FORMAT='MED',);
MA=DEFI_GROUP(reuse =MA,
              CREA_GROUP_MA=_F(TOUT='OUI',
                               NOM='TOUT',),
              MAILLAGE=MA,
              CREA_GROUP_NO=(_F(GROUP_MA='AB',),
                             _F(GROUP_MA='BC',),
                             _F(GROUP_MA='CD',),
                             _F(GROUP_MA='DA',),),);
MO=AFFE_MODELE(AFFE=_F(TOUT='OUI',
                       PHENOMENE='MECANIQUE',
                       MODELISATION='DKT',),
               MAILLAGE=MA,);

MA=MODI_MAILLAGE( reuse=MA,
                  MAILLAGE=MA,
                  ORIE_NORM_COQUE=_F(  VECT_NORM = (0., 0., 1.,),
                                       GROUP_NO = 'O',
                                       GROUP_MA = 'MAIL1'),
                                       INFO=2
                                       )
CAR_ELE=AFFE_CARA_ELEM(MODELE=MO,
                       COQUE=_F(ANGL_REP=(0.0,0.0),
                                GROUP_MA='TOUT',
                                EPAIS=0.1,),);
MAT=DEFI_MATERIAU(ELAS=_F(NU=0.25,
                          E=25.0,),);
CHAM_MAT=AFFE_MATERIAU(AFFE=_F(MATER=MAT,
                               TOUT='OUI',),
                       MAILLAGE=MA,);
PO=1.0
P = FORMULE(NOM_PARA=('X','Y'),VALE='PO*sin(pi*X)*sin(pi*Y)''');

CHA=AFFE_CHAR_MECA(DDL_IMPO=(_F(
                                DX=0.0,
                                DY=0.0,
                                GROUP_NO='O',
                                DRZ=0.0,
                                DRX=0.0,
                                DRY=0.0,),
                             _F(DZ=0.0,
                                DX=0.0,
                                GROUP_NO='AB',
                                DRY=0.0,),
                             _F(DZ=0.0,
                                DY=0.0,
                                GROUP_NO='BC',
                                DRX=0.0,),
                             _F(DZ=0.0,
                                DX=0.0,
                                GROUP_NO='CD',
                                DRY=0.0,),
                             _F(DZ=0.0,
                                DY=0.0,
                                GROUP_NO='DA',
                                DRX=0.0,),),
                   MODELE=MO,
                   FORCE_ARETE=(_F(MY=0.0,
                                   GROUP_MA='AB',),
                                _F(MY=0.0,
                                   GROUP_MA='CD',),
                                _F(MX=0.0,
                                   GROUP_MA='BC',),
                                _F(MX=0.0,
                                   GROUP_MA='DA',),),);
CHA_P=AFFE_CHAR_MECA_F(MODELE=MO,
                       FORCE_COQUE=_F(PRES=P,
                                      GROUP_MA='MAIL1',),);
RESU=MECA_STATIQUE(CHAM_MATER=CHAM_MAT,
                   MODELE=MO,
                   CARA_ELEM=CAR_ELE,
                   EXCIT=(_F(CHARGE=CHA,),
                          _F(CHARGE=CHA_P,),),);

RESU=CALC_CHAMP(reuse=RESU,RESULTAT=RESU,CONTRAINTE=('SIGM_ELNO'))


SIG_C1_S=POST_CHAMP(RESULTAT=RESU,
                     EXTR_COQUE=_F(NOM_CHAM='SIGM_ELNO',
                                   NUME_COUCHE=1,
                                   NIVE_COUCHE='SUP',),);
SIG_C1_M=POST_CHAMP(RESULTAT=RESU,
                     EXTR_COQUE=_F(NOM_CHAM='SIGM_ELNO',
                                   NUME_COUCHE=1,
                                   NIVE_COUCHE='MOY',),);
SIG_C1_I=POST_CHAMP(RESULTAT=RESU,
                     EXTR_COQUE=_F(NOM_CHAM='SIGM_ELNO',
                                   NUME_COUCHE=1,
                                   NIVE_COUCHE='INF',),);
EFF=CALC_CHAMP(RESULTAT=RESU,CONTRAINTE=('EFGE_ELNO'))


TEST_RESU(RESU=(_F(NOM_CHAM='DEPL',
                  RESULTAT=RESU,
                  REFERENCE='ANALYTIQUE',
                  PRECISION=0.02,
                  VALE=-1.154923,
                  GROUP_NO='O',
                  NOM_CMP='DZ',
                  NUME_ORDRE=1,),
                _F(RESULTAT=SIG_C1_I,
                        REFERENCE = 'ANALYTIQUE',
                        NUME_ORDRE=1,
                        NOM_CHAM='SIGM_ELNO',
                        MAILLE='M134',
                        VALE=18.9972,
                        PRECISION=2.5E-2,
                        GROUP_NO='O',
                        NOM_CMP='SIXX',),
                     _F(RESULTAT=SIG_C1_I,
                        REFERENCE = 'ANALYTIQUE',
                        NUME_ORDRE=1,
                        NOM_CHAM='SIGM_ELNO',
                        MAILLE='M134',
                        VALE=18.9972,
                        PRECISION=2.5E-2,
                        GROUP_NO='O',
                        NOM_CMP='SIYY',),
                     _F(RESULTAT=SIG_C1_I,
                        REFERENCE = 'ANALYTIQUE',
                        NUME_ORDRE=1,
                        NOM_CHAM='SIGM_ELNO',
                        MAILLE='M134',
                        VALE=0.0,
                        PRECISION=5.E-2,
                        GROUP_NO='O',
                        NOM_CMP='SIXY',
                        CRITERE='ABSOLU',),
                     _F(RESULTAT=SIG_C1_I,
                        REFERENCE = 'ANALYTIQUE',
                        NUME_ORDRE=1,
                        NOM_CHAM='SIGM_ELNO',
                        MAILLE='M134',
                        VALE=0.0,
                        PRECISION=1.E-2,
                        GROUP_NO='O',
                        NOM_CMP='SIXZ',
                        CRITERE='ABSOLU',),
                     _F(RESULTAT=SIG_C1_I,
                        REFERENCE = 'ANALYTIQUE',
                        NUME_ORDRE=1,
                        NOM_CHAM='SIGM_ELNO',
                        MAILLE='M134',
                        VALE=0.0,
                        PRECISION=1.E-2,
                        GROUP_NO='O',
                        NOM_CMP='SIYZ',
                        CRITERE='ABSOLU',),
                     _F(RESULTAT=SIG_C1_M,
                        REFERENCE = 'ANALYTIQUE',
                        NUME_ORDRE=1,
                        NOM_CHAM='SIGM_ELNO',
                        MAILLE='M134',
                        VALE=0.0,
                        PRECISION=1.E-2,
                        GROUP_NO='O',
                        NOM_CMP='SIXX',
                        CRITERE='ABSOLU',),
                     _F(RESULTAT=SIG_C1_M,
                        REFERENCE = 'ANALYTIQUE',
                        NUME_ORDRE=1,
                        NOM_CHAM='SIGM_ELNO',
                        MAILLE='M134',
                        VALE=0.0,
                        PRECISION=1.E-2,
                        GROUP_NO='O',
                        NOM_CMP='SIYY',
                        CRITERE='ABSOLU',),
                     _F(RESULTAT=SIG_C1_M,
                        REFERENCE = 'ANALYTIQUE',
                        NUME_ORDRE=1,
                        NOM_CHAM='SIGM_ELNO',
                        MAILLE='M134',
                        VALE=0.0,
                        PRECISION=1.E-2,
                        GROUP_NO='O',
                        NOM_CMP='SIXY',
                        CRITERE='ABSOLU',),
                     _F(RESULTAT=SIG_C1_M,
                        REFERENCE = 'ANALYTIQUE',
                        NUME_ORDRE=1,
                        NOM_CHAM='SIGM_ELNO',
                        MAILLE='M134',
                        VALE=0.0,
                        PRECISION=0.4,
                        GROUP_NO='O',
                        NOM_CMP='SIXZ',
                        CRITERE='ABSOLU',),
                     _F(RESULTAT=SIG_C1_M,
                        REFERENCE = 'ANALYTIQUE',
                        NUME_ORDRE=1,
                        NOM_CHAM='SIGM_ELNO',
                        MAILLE='M134',
                        VALE=0.0,
                        PRECISION=0.4,
                        GROUP_NO='O',
                        NOM_CMP='SIYZ',
                        CRITERE='ABSOLU',),
                     _F(RESULTAT=SIG_C1_S,
                        REFERENCE = 'ANALYTIQUE',
                        NUME_ORDRE=1,
                        NOM_CHAM='SIGM_ELNO',
                        MAILLE='M134',
                        VALE=-18.9972,
                        PRECISION=2.5E-2,
                        GROUP_NO='O',
                        NOM_CMP='SIXX',),
                     _F(RESULTAT=SIG_C1_S,
                        REFERENCE = 'ANALYTIQUE',
                        NUME_ORDRE=1,
                        NOM_CHAM='SIGM_ELNO',
                        MAILLE='M134',
                        VALE=-18.9972,
                        PRECISION=2.5E-2,
                        GROUP_NO='O',
                        NOM_CMP='SIYY',),
                     _F(RESULTAT=SIG_C1_S,
                        REFERENCE = 'ANALYTIQUE',
                        NUME_ORDRE=1,
                        NOM_CHAM='SIGM_ELNO',
                        MAILLE='M134',
                        VALE=0.0,
                        PRECISION=5.E-2,
                        GROUP_NO='O',
                        NOM_CMP='SIXY',
                        CRITERE='ABSOLU',),
                     _F(RESULTAT=SIG_C1_S,
                        REFERENCE = 'ANALYTIQUE',
                        NUME_ORDRE=1,
                        NOM_CHAM='SIGM_ELNO',
                        MAILLE='M134',
                        VALE=0.0,
                        PRECISION=1.E-2,
                        GROUP_NO='O',
                        NOM_CMP='SIXZ',
                        CRITERE='ABSOLU',),
                     _F(RESULTAT=SIG_C1_S,
                        REFERENCE = 'ANALYTIQUE',
                        NUME_ORDRE=1,
                        NOM_CHAM='SIGM_ELNO',
                        MAILLE='M134',
                        VALE=0.0,
                        PRECISION=1.E-2,
                        GROUP_NO='O',
                        NOM_CMP='SIYZ',
                        CRITERE='ABSOLU',),
                     _F(RESULTAT=SIG_C1_I,
                        REFERENCE = 'ANALYTIQUE',
                        NUME_ORDRE=1,
                        NOM_CHAM='SIGM_ELNO',
                        MAILLE='M122',
                        VALE=0.0,
                        PRECISION=0.2,
                        GROUP_NO='B1',
                        NOM_CMP='SIXX',
                        CRITERE='ABSOLU',),
                     _F(RESULTAT=SIG_C1_I,
                        REFERENCE = 'ANALYTIQUE',
                        NUME_ORDRE=1,
                        NOM_CHAM='SIGM_ELNO',
                        MAILLE='M122',
                        VALE=0.0,
                        PRECISION=0.8,
                        GROUP_NO='B1',
                        NOM_CMP='SIYY',
                        CRITERE='ABSOLU',),
                     _F(RESULTAT=SIG_C1_I,
                        REFERENCE = 'ANALYTIQUE',
                        NUME_ORDRE=1,
                        NOM_CHAM='SIGM_ELNO',
                        MAILLE='M122',
                        VALE=0.0,
                        PRECISION=0.8,
                        GROUP_NO='B1',
                        NOM_CMP='SIXY',
                        CRITERE='ABSOLU',),
                     _F(RESULTAT=SIG_C1_I,
                        REFERENCE = 'ANALYTIQUE',
                        NUME_ORDRE=1,
                        NOM_CHAM='SIGM_ELNO',
                        MAILLE='M122',
                        VALE=0.0,
                        PRECISION=1.E-2,
                        GROUP_NO='B1',
                        NOM_CMP='SIXZ',
                        CRITERE='ABSOLU',),
                     _F(RESULTAT=SIG_C1_I,
                        REFERENCE = 'ANALYTIQUE',
                        NUME_ORDRE=1,
                        NOM_CHAM='SIGM_ELNO',
                        MAILLE='M122',
                        VALE=0.0,
                        PRECISION=1.E-2,
                        GROUP_NO='B1',
                        NOM_CMP='SIYZ',
                        CRITERE='ABSOLU',),
                     _F(RESULTAT=SIG_C1_M,
                        REFERENCE = 'ANALYTIQUE',
                        NUME_ORDRE=1,
                        NOM_CHAM='SIGM_ELNO',
                        MAILLE='M122',
                        VALE=0.0,
                        PRECISION=1.E-2,
                        GROUP_NO='B1',
                        NOM_CMP='SIXX',
                        CRITERE='ABSOLU',),
                     _F(RESULTAT=SIG_C1_M,
                        REFERENCE = 'ANALYTIQUE',
                        NUME_ORDRE=1,
                        NOM_CHAM='SIGM_ELNO',
                        MAILLE='M122',
                        VALE=0.0,
                        PRECISION=1.E-2,
                        GROUP_NO='B1',
                        NOM_CMP='SIYY',
                        CRITERE='ABSOLU',),
                     _F(RESULTAT=SIG_C1_M,
                        REFERENCE = 'ANALYTIQUE',
                        NUME_ORDRE=1,
                        NOM_CHAM='SIGM_ELNO',
                        MAILLE='M122',
                        VALE=0.0,
                        PRECISION=1.E-2,
                        GROUP_NO='B1',
                        NOM_CMP='SIXY',
                        CRITERE='ABSOLU',),
                     _F(RESULTAT=SIG_C1_M,
                        NUME_ORDRE=1,
                        REFERENCE = 'ANALYTIQUE',
                        NOM_CHAM='SIGM_ELNO',
                        MAILLE='M122',
                        VALE=0.0,
                        PRECISION=0.4,
                        GROUP_NO='B1',
                        NOM_CMP='SIXZ',
                        CRITERE='ABSOLU',),
                     _F(RESULTAT=SIG_C1_M,
                        REFERENCE = 'ANALYTIQUE',
                        NUME_ORDRE=1,
                        NOM_CHAM='SIGM_ELNO',
                        MAILLE='M122',
                        VALE=-2.3873,
                        PRECISION=0.02,
                        GROUP_NO='B1',
                        NOM_CMP='SIYZ',),
                     _F(RESULTAT=SIG_C1_S,
                        REFERENCE = 'ANALYTIQUE',
                        NUME_ORDRE=1,
                        NOM_CHAM='SIGM_ELNO',
                        MAILLE='M122',
                        VALE=0.0,
                        PRECISION=0.26,
                        GROUP_NO='B1',
                        NOM_CMP='SIXX',
                        CRITERE='ABSOLU',),
                     _F(RESULTAT=SIG_C1_S,
                        REFERENCE = 'ANALYTIQUE',
                        NUME_ORDRE=1,
                        NOM_CHAM='SIGM_ELNO',
                        MAILLE='M122',
                        VALE=0.0,
                        PRECISION=0.8,
                        GROUP_NO='B1',
                        NOM_CMP='SIYY',
                        CRITERE='ABSOLU',),
                     _F(RESULTAT=SIG_C1_S,
                        REFERENCE = 'ANALYTIQUE',
                        NUME_ORDRE=1,
                        NOM_CHAM='SIGM_ELNO',
                        MAILLE='M122',
                        VALE=0.0,
                        PRECISION=0.8,
                        GROUP_NO='B1',
                        NOM_CMP='SIXY',
                        CRITERE='ABSOLU',),
                     _F(RESULTAT=SIG_C1_S,
                        REFERENCE = 'ANALYTIQUE',
                        NUME_ORDRE=1,
                        NOM_CHAM='SIGM_ELNO',
                        MAILLE='M122',
                        VALE=0.0,
                        PRECISION=1.E-2,
                        GROUP_NO='B1',
                        NOM_CMP='SIXZ',
                        CRITERE='ABSOLU',),
                     _F(RESULTAT=SIG_C1_S,
                        REFERENCE = 'ANALYTIQUE',
                        NUME_ORDRE=1,
                        NOM_CHAM='SIGM_ELNO',
                        MAILLE='M122',
                        VALE=0.0,
                        PRECISION=1.E-2,
                        GROUP_NO='B1',
                        NOM_CMP='SIYZ',
                        CRITERE='ABSOLU',),
                     _F(RESULTAT=EFF,
                        REFERENCE = 'ANALYTIQUE',
                        NUME_ORDRE=1,
                        NOM_CHAM='EFGE_ELNO',
                        MAILLE='M134',
                        VALE=0.0,
                        PRECISION=1.E-2,
                        GROUP_NO='O',
                        NOM_CMP='NXX',
                        CRITERE='ABSOLU',),
                     _F(RESULTAT=EFF,
                        REFERENCE = 'ANALYTIQUE',
                        NUME_ORDRE=1,
                        NOM_CHAM='EFGE_ELNO',
                        MAILLE='M134',
                        VALE=0.0,
                        PRECISION=1.E-2,
                        GROUP_NO='O',
                        NOM_CMP='NYY',
                        CRITERE='ABSOLU',),
                     _F(RESULTAT=EFF,
                        REFERENCE = 'ANALYTIQUE',
                        NUME_ORDRE=1,
                        NOM_CHAM='EFGE_ELNO',
                        MAILLE='M134',
                        VALE=0.0,
                        PRECISION=1.E-2,
                        GROUP_NO='O',
                        NOM_CMP='NXY',
                        CRITERE='ABSOLU',),
                     _F(RESULTAT=EFF,
                        REFERENCE = 'ANALYTIQUE',
                        NUME_ORDRE=1,
                        NOM_CHAM='EFGE_ELNO',
                        MAILLE='M134',
                        VALE=-0.0316629,
                        PRECISION=2.5E-2,
                        GROUP_NO='O',
                        NOM_CMP='MXX',),
                     _F(RESULTAT=EFF,
                        REFERENCE = 'ANALYTIQUE',
                        NUME_ORDRE=1,
                        NOM_CHAM='EFGE_ELNO',
                        MAILLE='M134',
                        VALE=-0.0316629,
                        PRECISION=2.5E-2,
                        GROUP_NO='O',
                        NOM_CMP='MYY',),
                     _F(RESULTAT=EFF,
                        REFERENCE = 'ANALYTIQUE',
                        NUME_ORDRE=1,
                        NOM_CHAM='EFGE_ELNO',
                        MAILLE='M134',
                        VALE=0.0,
                        PRECISION=1.E-2,
                        GROUP_NO='O',
                        NOM_CMP='MXY',
                        CRITERE='ABSOLU',),
                     _F(RESULTAT=EFF,
                        NUME_ORDRE=1,
                        REFERENCE = 'ANALYTIQUE',
                        NOM_CHAM='EFGE_ELNO',
                        MAILLE='M134',
                        VALE=0.0,
                        PRECISION=0.03,
                        GROUP_NO='O',
                        NOM_CMP='QX',
                        CRITERE='ABSOLU',),
                     _F(RESULTAT=EFF,
                        REFERENCE = 'ANALYTIQUE',
                        NUME_ORDRE=1,
                        NOM_CHAM='EFGE_ELNO',
                        MAILLE='M134',
                        VALE=0.0,
                        PRECISION=0.03,
                        GROUP_NO='O',
                        NOM_CMP='QY',
                        CRITERE='ABSOLU',),
                     _F(RESULTAT=EFF,
                        REFERENCE = 'ANALYTIQUE',
                        NUME_ORDRE=1,
                        NOM_CHAM='EFGE_ELNO',
                        MAILLE='M158',
                        VALE=0.0,
                        PRECISION=0.03,
                        GROUP_NO='O',
                        NOM_CMP='QX',
                        CRITERE='ABSOLU',),
                     _F(RESULTAT=EFF,
                        REFERENCE = 'ANALYTIQUE',
                        NUME_ORDRE=1,
                        NOM_CHAM='EFGE_ELNO',
                        MAILLE='M158',
                        VALE=0.0,
                        PRECISION=0.02,
                        GROUP_NO='O',
                        NOM_CMP='QY',
                        CRITERE='ABSOLU',),
                     _F(RESULTAT=EFF,
                        REFERENCE = 'ANALYTIQUE',
                        NUME_ORDRE=1,
                        NOM_CHAM='EFGE_ELNO',
                        MAILLE='M132',
                        VALE=0.0,
                        PRECISION=0.03,
                        GROUP_NO='O',
                        NOM_CMP='QX',
                        CRITERE='ABSOLU',),
                     _F(RESULTAT=EFF,
                        REFERENCE = 'ANALYTIQUE',
                        NUME_ORDRE=1,
                        NOM_CHAM='EFGE_ELNO',
                        MAILLE='M132',
                        VALE=0.0,
                        PRECISION=0.03,
                        GROUP_NO='O',
                        NOM_CMP='QY',
                        CRITERE='ABSOLU',),
                     _F(RESULTAT=EFF,
                        REFERENCE = 'ANALYTIQUE',
                        NUME_ORDRE=1,
                        NOM_CHAM='EFGE_ELNO',
                        MAILLE='M156',
                        VALE=0.0,
                        PRECISION=0.03,
                        GROUP_NO='O',
                        NOM_CMP='QX',
                        CRITERE='ABSOLU',),
                     _F(RESULTAT=EFF,
                        REFERENCE = 'ANALYTIQUE',
                        NUME_ORDRE=1,
                        NOM_CHAM='EFGE_ELNO',
                        MAILLE='M156',
                        VALE=0.0,
                        PRECISION=0.02,
                        GROUP_NO='O',
                        NOM_CMP='QY',
                        CRITERE='ABSOLU',),
                     _F(RESULTAT=EFF,
                        REFERENCE = 'ANALYTIQUE',
                        NUME_ORDRE=1,
                        NOM_CHAM='EFGE_ELNO',
                        MAILLE='M288',
                        VALE=0.0,
                        PRECISION=1.E-2,
                        GROUP_NO='C',
                        NOM_CMP='NXX',
                        CRITERE='ABSOLU',),
                     _F(RESULTAT=EFF,
                        REFERENCE = 'ANALYTIQUE',
                        NUME_ORDRE=1,
                        NOM_CHAM='EFGE_ELNO',
                        MAILLE='M288',
                        VALE=0.0,
                        PRECISION=1.E-2,
                        GROUP_NO='C',
                        NOM_CMP='NYY',
                        CRITERE='ABSOLU',),
                     _F(RESULTAT=EFF,
                        REFERENCE = 'ANALYTIQUE',
                        NUME_ORDRE=1,
                        NOM_CHAM='EFGE_ELNO',
                        MAILLE='M288',
                        VALE=0.0,
                        PRECISION=1.E-2,
                        GROUP_NO='C',
                        NOM_CMP='NXY',
                        CRITERE='ABSOLU',),
                     _F(RESULTAT=EFF,
                        REFERENCE = 'ANALYTIQUE',
                        NUME_ORDRE=1,
                        NOM_CHAM='EFGE_ELNO',
                        MAILLE='M288',
                        VALE=0.0,
                        PRECISION=1.E-2,
                        GROUP_NO='C',
                        NOM_CMP='MXX',
                        CRITERE='ABSOLU',),
                     _F(RESULTAT=EFF,
                        REFERENCE = 'ANALYTIQUE',
                        NUME_ORDRE=1,
                        NOM_CHAM='EFGE_ELNO',
                        MAILLE='M288',
                        VALE=0.0,
                        PRECISION=1.E-2,
                        GROUP_NO='C',
                        NOM_CMP='MYY',
                        CRITERE='ABSOLU',),
                     _F(RESULTAT=EFF,
                        REFERENCE = 'ANALYTIQUE',
                        NUME_ORDRE=1,
                        NOM_CHAM='EFGE_ELNO',
                        MAILLE='M288',
                        VALE=0.0189972,
                        PRECISION=0.03,
                        GROUP_NO='C',
                        NOM_CMP='MXY',),
                     _F(RESULTAT=EFF,
                        REFERENCE = 'ANALYTIQUE',
                        NUME_ORDRE=1,
                        NOM_CHAM='EFGE_ELNO',
                        MAILLE='M288',
                        VALE=0.0,
                        PRECISION=1.E-2,
                        GROUP_NO='C',
                        NOM_CMP='QX',
                        CRITERE='ABSOLU',),
                     _F(RESULTAT=EFF,
                        NUME_ORDRE=1,
                        REFERENCE = 'ANALYTIQUE',
                        NOM_CHAM='EFGE_ELNO',
                        MAILLE='M288',
                        VALE=0.0,
                        PRECISION=1.E-2,
                        GROUP_NO='C',
                        NOM_CMP='QY',
                        CRITERE='ABSOLU',),
                     _F(RESULTAT=EFF,
                        NUME_ORDRE=1,
                        REFERENCE = 'ANALYTIQUE',
                        NOM_CHAM='EFGE_ELNO',
                        MAILLE='M23',
                        VALE=0.0,
                        PRECISION=1.E-2,
                        GROUP_NO='D',
                        NOM_CMP='NXX',
                        CRITERE='ABSOLU',),
                     _F(RESULTAT=EFF,
                        NUME_ORDRE=1,
                        REFERENCE = 'ANALYTIQUE',
                        NOM_CHAM='EFGE_ELNO',
                        MAILLE='M23',
                        VALE=0.0,
                        PRECISION=1.E-2,
                        GROUP_NO='D',
                        NOM_CMP='NYY',
                        CRITERE='ABSOLU',),
                     _F(RESULTAT=EFF,
                        NUME_ORDRE=1,
                        NOM_CHAM='EFGE_ELNO',
                        REFERENCE = 'ANALYTIQUE',
                        MAILLE='M23',
                        VALE=0.0,
                        PRECISION=1.E-2,
                        GROUP_NO='D',
                        NOM_CMP='NXY',
                        CRITERE='ABSOLU',),
                     _F(RESULTAT=EFF,
                        NUME_ORDRE=1,
                        REFERENCE = 'ANALYTIQUE',
                        NOM_CHAM='EFGE_ELNO',
                        MAILLE='M23',
                        VALE=0.0,
                        PRECISION=1.E-2,
                        GROUP_NO='D',
                        NOM_CMP='MXX',
                        CRITERE='ABSOLU',),
                     _F(RESULTAT=EFF,
                        NUME_ORDRE=1,
                        REFERENCE = 'ANALYTIQUE',
                        NOM_CHAM='EFGE_ELNO',
                        MAILLE='M23',
                        VALE=0.0,
                        PRECISION=1.E-2,
                        GROUP_NO='D',
                        NOM_CMP='MYY',
                        CRITERE='ABSOLU',),
                     _F(RESULTAT=EFF,
                        NUME_ORDRE=1,
                        NOM_CHAM='EFGE_ELNO',
                        REFERENCE = 'ANALYTIQUE',
                        MAILLE='M23',
                        VALE=-0.0189972,
                        PRECISION=0.03,
                        GROUP_NO='D',
                        NOM_CMP='MXY',),
                     _F(RESULTAT=EFF,
                        NUME_ORDRE=1,
                        REFERENCE = 'ANALYTIQUE',
                        NOM_CHAM='EFGE_ELNO',
                        MAILLE='M23',
                        VALE=0.0,
                        PRECISION=0.04,
                        GROUP_NO='D',
                        NOM_CMP='QX',
                        CRITERE='ABSOLU',),
                     _F(RESULTAT=EFF,
                        NUME_ORDRE=1,
                        REFERENCE = 'ANALYTIQUE',
                        NOM_CHAM='EFGE_ELNO',
                        MAILLE='M23',
                        VALE=0.0,
                        PRECISION=1.E-2,
                        GROUP_NO='D',
                        NOM_CMP='QY',
                        CRITERE='ABSOLU',),
                     _F(RESULTAT=EFF,
                        REFERENCE = 'ANALYTIQUE',
                        NUME_ORDRE=1,
                        NOM_CHAM='EFGE_ELNO',
                        MAILLE='M14',
                        VALE=0.0,
                        PRECISION=1.E-2,
                        GROUP_NO='D1',
                        NOM_CMP='NXX',
                        CRITERE='ABSOLU',),
                     _F(RESULTAT=EFF,
                        REFERENCE = 'ANALYTIQUE',
                        NUME_ORDRE=1,
                        NOM_CHAM='EFGE_ELNO',
                        MAILLE='M14',
                        VALE=0.0,
                        PRECISION=1.E-2,
                        GROUP_NO='D1',
                        NOM_CMP='NYY',
                        CRITERE='ABSOLU',),
                     _F(RESULTAT=EFF,
                        NUME_ORDRE=1,
                        REFERENCE = 'ANALYTIQUE',
                        NOM_CHAM='EFGE_ELNO',
                        MAILLE='M14',
                        VALE=0.0,
                        PRECISION=1.E-2,
                        GROUP_NO='D1',
                        NOM_CMP='NXY',
                        CRITERE='ABSOLU',),
                     _F(RESULTAT=EFF,
                        NUME_ORDRE=1,
                        REFERENCE = 'ANALYTIQUE',
                        NOM_CHAM='EFGE_ELNO',
                        MAILLE='M14',
                        VALE=0.0,
                        PRECISION=1.E-2,
                        GROUP_NO='D1',
                        NOM_CMP='MXX',
                        CRITERE='ABSOLU',),
                     _F(RESULTAT=EFF,
                        NUME_ORDRE=1,
                        REFERENCE = 'ANALYTIQUE',
                        NOM_CHAM='EFGE_ELNO',
                        MAILLE='M14',
                        VALE=0.0,
                        PRECISION=1.E-2,
                        GROUP_NO='D1',
                        NOM_CMP='MYY',
                        CRITERE='ABSOLU',),
                     _F(RESULTAT=EFF,
                        NUME_ORDRE=1,
                        REFERENCE = 'ANALYTIQUE',
                        NOM_CHAM='EFGE_ELNO',
                        MAILLE='M14',
                        VALE=0.0,
                        PRECISION=1.E-2,
                        GROUP_NO='D1',
                        NOM_CMP='MXY',
                        CRITERE='ABSOLU',),
                     _F(RESULTAT=EFF,
                        NUME_ORDRE=1,
                        REFERENCE = 'ANALYTIQUE',
                        NOM_CHAM='EFGE_ELNO',
                        MAILLE='M14',
                        VALE=-0.159155,
                        PRECISION=0.3,
                        GROUP_NO='D1',
                        NOM_CMP='QX',),
                     _F(RESULTAT=EFF,
                        NUME_ORDRE=1,
                        REFERENCE = 'ANALYTIQUE',
                        NOM_CHAM='EFGE_ELNO',
                        MAILLE='M14',
                        VALE=0.0,
                        PRECISION=0.06,
                        GROUP_NO='D1',
                        NOM_CMP='QY',
                        CRITERE='ABSOLU',),
                     _F(RESULTAT=EFF,
                        NUME_ORDRE=1,
                        REFERENCE = 'ANALYTIQUE',
                        NOM_CHAM='EFGE_ELNO',
                        MAILLE='M11',
                        VALE=-0.159155,
                        PRECISION=0.21,
                        GROUP_NO='D1',
                        NOM_CMP='QX',),
                     _F(RESULTAT=EFF,
                        NUME_ORDRE=1,
                        REFERENCE = 'ANALYTIQUE',
                        NOM_CHAM='EFGE_ELNO',
                        MAILLE='M11',
                        VALE=0.0,
                        PRECISION=0.03,
                        GROUP_NO='D1',
                        NOM_CMP='QY',
                        CRITERE='ABSOLU',),
                     _F(RESULTAT=EFF,
                        NUME_ORDRE=1,
                        REFERENCE = 'ANALYTIQUE',
                        NOM_CHAM='EFGE_ELNO',
                        MAILLE='M1',
                        VALE=0.0,
                        PRECISION=1.E-2,
                        GROUP_NO='A',
                        NOM_CMP='NXX',
                        CRITERE='ABSOLU',),
                     _F(RESULTAT=EFF,
                        NUME_ORDRE=1,
                        REFERENCE = 'ANALYTIQUE',
                        NOM_CHAM='EFGE_ELNO',
                        MAILLE='M1',
                        VALE=0.0,
                        PRECISION=1.E-2,
                        GROUP_NO='A',
                        NOM_CMP='NYY',
                        CRITERE='ABSOLU',),
                     _F(RESULTAT=EFF,
                        NUME_ORDRE=1,
                        REFERENCE = 'ANALYTIQUE',
                        NOM_CHAM='EFGE_ELNO',
                        MAILLE='M1',
                        VALE=0.0,
                        PRECISION=1.E-2,
                        GROUP_NO='A',
                        NOM_CMP='NXY',
                        CRITERE='ABSOLU',),
                     _F(RESULTAT=EFF,
                        NUME_ORDRE=1,
                        REFERENCE = 'ANALYTIQUE',
                        NOM_CHAM='EFGE_ELNO',
                        MAILLE='M1',
                        VALE=0.0,
                        PRECISION=1.E-2,
                        GROUP_NO='A',
                        NOM_CMP='MXX',
                        CRITERE='ABSOLU',),
                     _F(RESULTAT=EFF,
                        NUME_ORDRE=1,
                        REFERENCE = 'ANALYTIQUE',
                        NOM_CHAM='EFGE_ELNO',
                        MAILLE='M1',
                        VALE=0.0,
                        PRECISION=1.E-2,
                        GROUP_NO='A',
                        NOM_CMP='MYY',
                        CRITERE='ABSOLU',),
                     _F(RESULTAT=EFF,
                        NUME_ORDRE=1,
                        REFERENCE = 'ANALYTIQUE',
                        NOM_CHAM='EFGE_ELNO',
                        MAILLE='M1',
                        VALE=0.0189972,
                        PRECISION=0.03,
                        GROUP_NO='A',
                        NOM_CMP='MXY',),
                     _F(RESULTAT=EFF,
                        NUME_ORDRE=1,
                        REFERENCE = 'ANALYTIQUE',
                        NOM_CHAM='EFGE_ELNO',
                        MAILLE='M1',
                        VALE=0.0,
                        PRECISION=1.E-2,
                        GROUP_NO='A',
                        NOM_CMP='QY',
                        CRITERE='ABSOLU',),
                     _F(RESULTAT=EFF,
                        NUME_ORDRE=1,
                        REFERENCE = 'ANALYTIQUE',
                        NOM_CHAM='EFGE_ELNO',
                        MAILLE='M1',
                        VALE=0.0,
                        PRECISION=0.04,
                        GROUP_NO='A',
                        NOM_CMP='QX',
                        CRITERE='ABSOLU',),
                     _F(RESULTAT=EFF,
                        NUME_ORDRE=1,
                        REFERENCE = 'ANALYTIQUE',
                        NOM_CHAM='EFGE_ELNO',
                        MAILLE='M266',
                        VALE=0.0,
                        PRECISION=1.E-2,
                        GROUP_NO='B',
                        NOM_CMP='NXX',
                        CRITERE='ABSOLU',),
                     _F(RESULTAT=EFF,
                        NUME_ORDRE=1,
                        REFERENCE = 'ANALYTIQUE',
                        NOM_CHAM='EFGE_ELNO',
                        MAILLE='M266',
                        VALE=0.0,
                        PRECISION=1.E-2,
                        GROUP_NO='B',
                        NOM_CMP='NYY',
                        CRITERE='ABSOLU',),
                     _F(RESULTAT=EFF,
                        NUME_ORDRE=1,
                        REFERENCE = 'ANALYTIQUE',
                        NOM_CHAM='EFGE_ELNO',
                        MAILLE='M266',
                        VALE=0.0,
                        PRECISION=1.E-2,
                        GROUP_NO='B',
                        NOM_CMP='NXY',
                        CRITERE='ABSOLU',),
                     _F(RESULTAT=EFF,
                        NUME_ORDRE=1,
                        REFERENCE = 'ANALYTIQUE',
                        NOM_CHAM='EFGE_ELNO',
                        MAILLE='M266',
                        VALE=0.0,
                        PRECISION=1.E-2,
                        GROUP_NO='B',
                        NOM_CMP='MXX',
                        CRITERE='ABSOLU',),
                     _F(RESULTAT=EFF,
                        NUME_ORDRE=1,
                        REFERENCE = 'ANALYTIQUE',
                        NOM_CHAM='EFGE_ELNO',
                        MAILLE='M266',
                        VALE=0.0,
                        PRECISION=1.E-2,
                        GROUP_NO='B',
                        NOM_CMP='MYY',
                        CRITERE='ABSOLU',),
                     _F(RESULTAT=EFF,
                        NUME_ORDRE=1,
                        REFERENCE = 'ANALYTIQUE',
                        NOM_CHAM='EFGE_ELNO',
                        MAILLE='M266',
                        VALE=-0.0189972,
                        PRECISION=0.03,
                        GROUP_NO='B',
                        NOM_CMP='MXY',),
                     _F(RESULTAT=EFF,
                        NUME_ORDRE=1,
                        REFERENCE = 'ANALYTIQUE',
                        NOM_CHAM='EFGE_ELNO',
                        MAILLE='M266',
                        VALE=0.0,
                        PRECISION=1.E-2,
                        GROUP_NO='B',
                        NOM_CMP='QY',
                        CRITERE='ABSOLU',),
                     _F(RESULTAT=EFF,
                        NUME_ORDRE=1,
                        REFERENCE = 'ANALYTIQUE',
                        NOM_CHAM='EFGE_ELNO',
                        MAILLE='M266',
                        VALE=0.0,
                        PRECISION=1.E-2,
                        GROUP_NO='B',
                        NOM_CMP='QX',
                        CRITERE='ABSOLU',),
                     _F(RESULTAT=EFF,
                        NUME_ORDRE=1,
                        REFERENCE = 'ANALYTIQUE',
                        NOM_CHAM='EFGE_ELNO',
                        MAILLE='M122',
                        VALE=0.0,
                        PRECISION=1.E-2,
                        GROUP_NO='B1',
                        NOM_CMP='NXX',
                        CRITERE='ABSOLU',),
                     _F(RESULTAT=EFF,
                        NUME_ORDRE=1,
                        REFERENCE = 'ANALYTIQUE',
                        NOM_CHAM='EFGE_ELNO',
                        MAILLE='M122',
                        VALE=0.0,
                        PRECISION=1.E-2,
                        GROUP_NO='B1',
                        NOM_CMP='NYY',
                        CRITERE='ABSOLU',),
                     _F(RESULTAT=EFF,
                        NUME_ORDRE=1,
                        REFERENCE = 'ANALYTIQUE',
                        NOM_CHAM='EFGE_ELNO',
                        MAILLE='M122',
                        VALE=0.0,
                        PRECISION=1.E-2,
                        GROUP_NO='B1',
                        NOM_CMP='NXY',
                        CRITERE='ABSOLU',),
                     _F(RESULTAT=EFF,
                        NUME_ORDRE=1,
                        REFERENCE = 'ANALYTIQUE',
                        NOM_CHAM='EFGE_ELNO',
                        MAILLE='M122',
                        VALE=0.0,
                        PRECISION=1.E-2,
                        GROUP_NO='B1',
                        NOM_CMP='MXX',
                        CRITERE='ABSOLU',),
                     _F(RESULTAT=EFF,
                        NUME_ORDRE=1,
                        REFERENCE = 'ANALYTIQUE',
                        NOM_CHAM='EFGE_ELNO',
                        MAILLE='M122',
                        VALE=0.0,
                        PRECISION=1.E-2,
                        GROUP_NO='B1',
                        NOM_CMP='MYY',
                        CRITERE='ABSOLU',),
                     _F(RESULTAT=EFF,
                        NUME_ORDRE=1,
                        REFERENCE = 'ANALYTIQUE',
                        NOM_CHAM='EFGE_ELNO',
                        MAILLE='M122',
                        VALE=0.0,
                        PRECISION=1.E-2,
                        GROUP_NO='B1',
                        NOM_CMP='MXY',
                        CRITERE='ABSOLU',),
                     _F(RESULTAT=EFF,
                        NUME_ORDRE=1,
                        REFERENCE = 'ANALYTIQUE',
                        NOM_CHAM='EFGE_ELNO',
                        MAILLE='M122',
                        VALE=-0.159155,
                        PRECISION=0.21,
                        GROUP_NO='B1',
                        NOM_CMP='QY',),
                     _F(RESULTAT=EFF,
                        NUME_ORDRE=1,
                        REFERENCE = 'ANALYTIQUE',
                        NOM_CHAM='EFGE_ELNO',
                        MAILLE='M122',
                        VALE=0.0,
                        PRECISION=0.03,
                        GROUP_NO='B1',
                        NOM_CMP='QX',
                        CRITERE='ABSOLU',),
                     _F(RESULTAT=EFF,
                        NUME_ORDRE=1,
                        REFERENCE = 'ANALYTIQUE',
                        NOM_CHAM='EFGE_ELNO',
                        MAILLE='M146',
                        VALE=0.0,
                        PRECISION=1.E-2,
                        GROUP_NO='B1',
                        NOM_CMP='NXX',
                        CRITERE='ABSOLU',),
                     _F(RESULTAT=EFF,
                        NUME_ORDRE=1,
                        REFERENCE = 'ANALYTIQUE',
                        NOM_CHAM='EFGE_ELNO',
                        MAILLE='M146',
                        VALE=0.0,
                        PRECISION=1.E-2,
                        GROUP_NO='B1',
                        NOM_CMP='NYY',
                        CRITERE='ABSOLU',),
                     _F(RESULTAT=EFF,
                        NUME_ORDRE=1,
                        REFERENCE = 'ANALYTIQUE',
                        NOM_CHAM='EFGE_ELNO',
                        MAILLE='M146',
                        VALE=0.0,
                        PRECISION=1.E-2,
                        GROUP_NO='B1',
                        NOM_CMP='NXY',
                        CRITERE='ABSOLU',),
                     _F(RESULTAT=EFF,
                        NUME_ORDRE=1,
                        REFERENCE = 'ANALYTIQUE',
                        NOM_CHAM='EFGE_ELNO',
                        MAILLE='M146',
                        VALE=0.0,
                        PRECISION=1.E-2,
                        GROUP_NO='B1',
                        NOM_CMP='MXX',
                        CRITERE='ABSOLU',),
                     _F(RESULTAT=EFF,
                        NUME_ORDRE=1,
                        REFERENCE = 'ANALYTIQUE',
                        NOM_CHAM='EFGE_ELNO',
                        MAILLE='M146',
                        VALE=0.0,
                        PRECISION=1.E-2,
                        GROUP_NO='B1',
                        NOM_CMP='MYY',
                        CRITERE='ABSOLU',),
                     _F(RESULTAT=EFF,
                        NUME_ORDRE=1,
                        REFERENCE = 'ANALYTIQUE',
                        NOM_CHAM='EFGE_ELNO',
                        MAILLE='M146',
                        VALE=0.0,
                        PRECISION=1.E-2,
                        GROUP_NO='B1',
                        NOM_CMP='MXY',
                        CRITERE='ABSOLU',),
                     _F(RESULTAT=EFF,
                        NUME_ORDRE=1,
                        REFERENCE = 'ANALYTIQUE',
                        NOM_CHAM='EFGE_ELNO',
                        MAILLE='M146',
                        VALE=-0.159155,
                        PRECISION=0.03,
                        GROUP_NO='B1',
                        NOM_CMP='QY',),
                     _F(RESULTAT=EFF,
                        NUME_ORDRE=1,
                        REFERENCE = 'ANALYTIQUE',
                        NOM_CHAM='EFGE_ELNO',
                        MAILLE='M146',
                        VALE=0.0,
                        PRECISION=2.E-2,
                        GROUP_NO='B1',
                        NOM_CMP='QX',
                        CRITERE='ABSOLU',),),);
FIN();
