# TITRE PLAQUE RECTANGULAIRE SIMPLEMENT APPUIEE COMPRIMEE
# ======================================================================
# COPYRIGHT (C) 1991 - 2013  EDF R&D                  WWW.CODE-ASTER.ORG
# THIS PROGRAM IS FREE SOFTWARE; YOU CAN REDISTRIBUTE IT AND/OR MODIFY  
# IT UNDER THE TERMS OF THE GNU GENERAL PUBLIC LICENSE AS PUBLISHED BY  
# THE FREE SOFTWARE FOUNDATION; EITHER VERSION 2 OF THE LICENSE, OR     
# (AT YOUR OPTION) ANY LATER VERSION.                                                    
#                                                                       
# THIS PROGRAM IS DISTRIBUTED IN THE HOPE THAT IT WILL BE USEFUL, BUT   
# WITHOUT ANY WARRANTY; WITHOUT EVEN THE IMPLIED WARRANTY OF            
# MERCHANTABILITY OR FITNESS FOR A PARTICULAR PURPOSE. SEE THE GNU      
# GENERAL PUBLIC LICENSE FOR MORE DETAILS.                              
#                                                                       
# YOU SHOULD HAVE RECEIVED A COPY OF THE GNU GENERAL PUBLIC LICENSE     
# ALONG WITH THIS PROGRAM; IF NOT, WRITE TO EDF R&D CODE_ASTER,         
#    1 AVENUE DU GENERAL DE GAULLE, 92141 CLAMART CEDEX, FRANCE.        
# ======================================================================

DEBUT(CODE=_F(NOM='SSLS110C',NIV_PUB_WEB='INTERNET'),DEBUG=_F(SDVERI='OUI'))

# MAILLAGE 1/4 DE LA PLAQUE
#
# MODELISATION DKT (QUAD4)
#

MATERI=DEFI_MATERIAU( ELAS=_F(  E = 210000.,     NU = 0.3000, ) )

#

MAILLA=LIRE_MAILLAGE(FORMAT='MED'   )

MAILLA=DEFI_GROUP( reuse=MAILLA,   MAILLAGE=MAILLA,
  CREA_GROUP_MA=_F(  NOM = 'TOUT',   TOUT = 'OUI',   ))

#

CH_MAT=AFFE_MATERIAU(  MAILLAGE=MAILLA,
                            AFFE=_F(  TOUT = 'OUI',   MATER = MATERI,  ) )

#

MODELE=AFFE_MODELE(  MAILLAGE=MAILLA, VERIF='MAILLE',
                     AFFE=_F( TOUT = 'OUI', MODELISATION = 'DKT',
                                PHENOMENE = 'MECANIQUE', ) )

#

CHARGE=AFFE_CHAR_MECA(MODELE=MODELE,DDL_IMPO=(
                  _F( GROUP_NO = 'G_23', DZ = 0.,),
                  _F( GROUP_NO = 'G_34', DZ = 0.,),
                  _F( GROUP_NO = 'G_12', DY = 0., DRX = 0., DRZ = 0., ),
                  _F( GROUP_NO = 'G_41', DX = 0., DRY = 0., DRZ = 0.,)),
                  FORCE_ARETE=_F(  GROUP_MA = 'G_2233', FX = -1.,)
#
                  )

CARAC=AFFE_CARA_ELEM(   MODELE=MODELE,
                               COQUE=_F(
       GROUP_MA = 'TOUT',
  EPAIS = 5.,
                                                             )
                           )

#
RESU=MECA_STATIQUE(MODELE=MODELE,
                   CHAM_MATER=CH_MAT,
                   CARA_ELEM=CARAC,
                   EXCIT=_F(CHARGE=CHARGE,),
                   );
#
#
####################################################################
#
###### ETAT DE CONTRAINTES
#

SIGMA=CREA_CHAMP( OPERATION='EXTR', TYPE_CHAM='ELGA_SIEF_R',
                    RESULTAT=RESU, NUME_ORDRE=1,
                    NOM_CHAM='SIEF_ELGA' ),


ASSEMBLAGE ( MODELE=MODELE,
             CHAM_MATER=CH_MAT,
             CARA_ELEM=CARAC,
             CHARGE= (CHARGE,),
             NUME_DDL= CO('NUMSTA'),
             SOLVEUR=_F(METHODE='MULT_FRONT',RENUM='METIS'),
             MATR_ASSE=(
              _F( MATRICE= CO('MATASS'), OPTION= 'RIGI_MECA'),
              _F( MATRICE= CO('RIGASG'), OPTION= 'RIGI_GEOM',SIEF_ELGA=SIGMA),),);


MOD=MODE_ITER_SIMULT(MATR_RIGI=MATASS,
                     MATR_RIGI_GEOM=RIGASG,
                     TYPE_RESU='MODE_FLAMB',
                     CALC_CHAR_CRIT=_F(NMAX_CHAR_CRIT = 9,
                                       DIM_SOUS_ESPACE = 30),
                            )

#
##### CHARGE CRITIQUE 1 ( MODE 1 ) = MODE 1 TOUTE LA PLAQUE
#

TEST_RESU(RESU=_F(PARA='CHAR_CRIT',
                  NUME_MODE=9,
                  RESULTAT=MOD,
                  VALE_CALC=-380.51819677378,
                  VALE_REFE=-379.60016927266759,
                  REFERENCE='ANALYTIQUE',
                  CRITERE='RELATIF',
                  PRECISION=0.03,),
          )

#
##### CHARGE CRITIQUE 2 ( MODE 2 ) = MODE 3 TOUTE LA PLAQUE
#

TEST_RESU(RESU=_F(PARA='CHAR_CRIT',
                  NUME_MODE=8,
                  RESULTAT=MOD,
                  VALE_CALC=-1071.2887800406,
                  VALE_REFE=-1054.4449146462989,
                  REFERENCE='ANALYTIQUE',
                  CRITERE='RELATIF',
                  PRECISION=0.02,),
          )
#
##### CHARGE CRITIQUE 3 ( MODE 3 ) = MODE 5 TOUTE LA PLAQUE
#

TEST_RESU(RESU=_F(PARA='CHAR_CRIT',
                  NUME_MODE=7,
                  RESULTAT=MOD,
                  VALE_CALC=-2692.3711477529,
                  VALE_REFE=-2566.0971442832338,
                  REFERENCE='ANALYTIQUE',
                  CRITERE='RELATIF',
                  PRECISION=0.055,),
          )


FIN()
