# MODIF  DATE 28/05/2004   AUTEUR LEBOUVIE F.LEBOUVIER 
# TITRE PLAQUE CIRCULAIRE ENCASTREE SOUMISE A UNE PRESSION UNIFORME
#            CONFIGURATION MANAGEMENT OF EDF VERSION
# ======================================================================
# COPYRIGHT (C) 1991 - 2001  EDF R&D                  WWW.CODE-ASTER.ORG
# THIS PROGRAM IS FREE SOFTWARE; YOU CAN REDISTRIBUTE IT AND/OR MODIFY
# IT UNDER THE TERMS OF THE GNU GENERAL PUBLIC LICENSE AS PUBLISHED BY
# THE FREE SOFTWARE FOUNDATION; EITHER VERSION 2 OF THE LICENSE, OR
# (AT YOUR OPTION) ANY LATER VERSION.
#
# THIS PROGRAM IS DISTRIBUTED IN THE HOPE THAT IT WILL BE USEFUL, BUT
# WITHOUT ANY WARRANTY; WITHOUT EVEN THE IMPLIED WARRANTY OF
# MERCHANTABILITY OR FITNESS FOR A PARTICULAR PURPOSE. SEE THE GNU
# GENERAL PUBLIC LICENSE FOR MORE DETAILS.
#
# YOU SHOULD HAVE RECEIVED A COPY OF THE GNU GENERAL PUBLIC LICENSE
# ALONG WITH THIS PROGRAM; IF NOT, WRITE TO EDF R&D CODE_ASTER,
#    1 AVENUE DU GENERAL DE GAULLE, 92141 CLAMART CEDEX, FRANCE.
# ======================================================================
# CAS_TEST__: SSLS100I
# SSLS100/I                COMMANDES                            26/03/93
#----------------------------------------------------------------------
# MODELISATION COQUE_AXIS:   21 NOEUDS -- 10 MAILLES SEG3 ; KAPPA=1.E6
#
#                    !->
#        Y !       S !N
#          !     <---!
#          !         !
#          ====================!  -------->
#          O        D          A        X
#
#                 1.0 M
#          !-------------------!
#======================================================================

DEBUT( CODE=_F(  NOM = 'SSLS100I',NIV_PUB_WEB='INTERNET') )

#

MAILL=LIRE_MAILLAGE(   )

MAILL=DEFI_GROUP( reuse=MAILL,   MAILLAGE=MAILL,
                          CREA_GROUP_MA=_F(  NOM = 'TOUT', TOUT = 'OUI'))

MATER=DEFI_MATERIAU( ELAS=_F(  E = 1.0,    NU = 0.3,   RHO = 1234.0) )

CHMAT=AFFE_MATERIAU(  MAILLAGE=MAILL,
                          AFFE=_F(  TOUT = 'OUI',   MATER = MATER) )

MODEL=AFFE_MODELE(  MAILLAGE=MAILL,
                        AFFE=_F( TOUT = 'OUI',   MODELISATION = 'COQUE_AXIS',
                              PHENOMENE = 'MECANIQUE') )

CARELEM=AFFE_CARA_ELEM(  MODELE=MODEL,
                 COQUE=_F(  GROUP_MA = 'TOUT',
                         EPAIS = 0.1,
                         A_CIS = 1.E2,  MODI_METRIQUE = 'NON') )

MASS_INE=POST_ELEM(     MODELE=MODEL,
                          CHAM_MATER=CHMAT,
                          CARA_ELEM=CARELEM,
                         MASS_INER=_F(  GROUP_MA = 'TOUT') )

IMPR_TABLE(   TABLE=MASS_INE,
  NOM_PARA=( 'LIEU', 'ENTITE', 'MASSE', 'CDG_X', 'CDG_Y', 'CDG_Z', )
              )

IMPR_TABLE(   TABLE=MASS_INE,
  NOM_PARA=( 'LIEU', 'ENTITE', 'IX_G', 'IY_G', 'IZ_G',
                    'IXY_G', 'IXZ_G', 'IYZ_G', )
              )

IMPR_TABLE(   TABLE=MASS_INE,
  NOM_PARA=( 'LIEU', 'ENTITE', 'IX_PRIN_G', 'IY_PRIN_G', 'IZ_PRIN_G',
                    'ALPHA', 'BETA', 'GAMMA', )
              )

TEST_TABLE(      TABLE=MASS_INE,
                   FILTRE=_F(  NOM_PARA = 'LIEU',
                            VALE_K = 'TOUT'),
REFERENCE='ANALYTIQUE',  NOM_PARA='MASSE', VALE=387.672533453       )

TEST_TABLE(      TABLE=MASS_INE,
                   FILTRE=_F(  NOM_PARA = 'LIEU',
                            VALE_K = 'TOUT'),
REFERENCE='ANALYTIQUE', PRECISION=0.004,  NOM_PARA='IX_G', VALE=97.2411938077       )

TEST_TABLE(      TABLE=MASS_INE,
                   FILTRE=_F(  NOM_PARA = 'LIEU',
                            VALE_K = 'TOUT'),
REFERENCE='ANALYTIQUE', PRECISION=0.004,  NOM_PARA='IY_G', VALE=97.2411938077       )

TEST_TABLE(      TABLE=MASS_INE,
                   FILTRE=_F(  NOM_PARA = 'LIEU',
                            VALE_K = 'TOUT'),
REFERENCE='ANALYTIQUE', NOM_PARA='IZ_G', VALE=193.836266726       )

ZERO=DEFI_CONSTANTE(    VALE=0.0 )

VAL_FY=DEFI_CONSTANTE(    VALE=-1. )

CHARGE=AFFE_CHAR_MECA_F(  MODELE=MODEL,DDL_IMPO=(
              _F( NOEUD = 'A',   DX = ZERO, DY = ZERO, DRZ = ZERO),
              _F( NOEUD = 'O',                         DRZ = ZERO)),
           FORCE_COQUE=_F(  TOUT = 'OUI',   FY = VAL_FY)   )

RESU=MECA_STATIQUE(    MODELE=MODEL, CHAM_MATER=CHMAT,
                       SOLVEUR=_F(NPREC=9),
                               CARA_ELEM=CARELEM,
                               EXCIT=_F(  CHARGE = CHARGE)       )

RESU=CALC_ELEM(reuse=RESU,     RESULTAT=RESU,     
                        NIVE_COUCHE='SUP',
                        OPTION=('SIGM_ELNO_DEPL','EFGE_ELNO_DEPL',
                                'DEGE_ELNO_DEPL',),
              )

TEST_RESU(RESU=(_F(
                   RESULTAT = RESU,  NOM_CHAM = 'SIGM_ELNO_DEPL',
                   MAILLE = 'STU',  NOEUD = 'O',
                   NOM_CMP = 'SIXX',
                   NUME_ORDRE = 1,
                   VALE = -4.905E+01, PRECISION = 1.E-02),
                  _F(
                   RESULTAT = RESU,  NOM_CHAM = 'SIGM_ELNO_DEPL',
                   MAILLE = 'STU',  NOEUD = 'O',
                   NOM_CMP = 'SIYY',
                   NUME_ORDRE = 1,
                   VALE = -4.905E+01, PRECISION = 1.E-02)))

#--------------------------------------------------------------------

TEST_RESU(RESU=(

     # DEPLACEMENTS
            _F(  RESULTAT = RESU, NUME_ORDRE=1, NOM_CHAM='DEPL', CRITERE = 'RELATIF',   PRECISION = 6.E-3,
REFERENCE='ANALYTIQUE', NOEUD = 'O', NOM_CMP = 'DY', VALE = -170.6250E-0),
            _F(  RESULTAT = RESU, NUME_ORDRE=1, NOM_CHAM='DEPL', CRITERE = 'RELATIF',   PRECISION = 1.E-2,
REFERENCE='ANALYTIQUE', NOEUD = 'D', NOM_CMP = 'DY', VALE = -95.9765E-0),
            _F(  RESULTAT = RESU, NUME_ORDRE=1, NOM_CHAM='DEPL', CRITERE = 'RELATIF',   PRECISION = 6.E-3,
REFERENCE='ANALYTIQUE', NOEUD = 'D', NOM_CMP = 'DRZ', VALE = 255.9400E-0),

     # DEFORMATIONS GENERALISEES
            _F(  RESULTAT = RESU, NUME_ORDRE=1, NOM_CHAM='DEGE_ELNO_DEPL', CRITERE = 'RELATIF',   PRECISION = 66.E-2,
              MAILLE = 'IJK',
REFERENCE='ANALYTIQUE', NOEUD = 'D', NOM_CMP = 'KXX', VALE = -170.625E-0),
            _F(  RESULTAT = RESU, NUME_ORDRE=1, NOM_CHAM='DEGE_ELNO_DEPL', CRITERE = 'RELATIF',   PRECISION = 60.E-2,
              MAILLE = 'KLM',
REFERENCE='ANALYTIQUE', NOEUD = 'D', NOM_CMP = 'KXX', VALE = -170.625E-0),
            _F(  RESULTAT = RESU, NUME_ORDRE=1, NOM_CHAM='DEGE_ELNO_DEPL', CRITERE = 'RELATIF',   PRECISION = 5.E-3,
              MAILLE = 'IJK',
REFERENCE='ANALYTIQUE', NOEUD = 'D', NOM_CMP = 'KYY', VALE = -511.875E-0),
            _F(  RESULTAT = RESU, NUME_ORDRE=1, NOM_CHAM='DEGE_ELNO_DEPL', CRITERE = 'RELATIF',   PRECISION = 5.E-3,
              MAILLE = 'KLM',
REFERENCE='ANALYTIQUE', NOEUD = 'D', NOM_CMP = 'KYY', VALE = -511.875E-0),
     # EFFORTS GENERALISES
            _F(  RESULTAT = RESU, NUME_ORDRE=1, NOM_CHAM='EFGE_ELNO_DEPL', CRITERE = 'RELATIF',   PRECISION = 1.5E-1,
              MAILLE = 'ABC',
REFERENCE='ANALYTIQUE', NOEUD = 'A', NOM_CMP = 'MXX', VALE = 0.12500E-0),
            _F(  RESULTAT = RESU, NUME_ORDRE=1, NOM_CHAM='EFGE_ELNO_DEPL', CRITERE = 'RELATIF',   PRECISION = 1.5E-1,
              MAILLE = 'ABC',
REFERENCE='ANALYTIQUE', NOEUD = 'A', NOM_CMP = 'MYY', VALE = 0.03750E-0),
            _F(  RESULTAT = RESU, NUME_ORDRE=1, NOM_CHAM='EFGE_ELNO_DEPL', CRITERE = 'RELATIF',   PRECISION = 6.E-2,
              MAILLE = 'IJK',
REFERENCE='ANALYTIQUE', NOEUD = 'D', NOM_CMP = 'MYY', VALE = -0.05156E-0),
            _F(  RESULTAT = RESU, NUME_ORDRE=1, NOM_CHAM='EFGE_ELNO_DEPL', CRITERE = 'RELATIF',   PRECISION = 6.E-2,
              MAILLE = 'KLM',
REFERENCE='ANALYTIQUE', NOEUD = 'D', NOM_CMP = 'MYY', VALE = -0.05156E-0),
            _F(  RESULTAT = RESU, NUME_ORDRE=1, NOM_CHAM='EFGE_ELNO_DEPL', CRITERE = 'RELATIF',   PRECISION = 5.E-3,
              MAILLE = 'STU',
REFERENCE='ANALYTIQUE', NOEUD = 'O', NOM_CMP = 'MXX', VALE = -0.08125E-0),
            _F(  RESULTAT = RESU, NUME_ORDRE=1, NOM_CHAM='EFGE_ELNO_DEPL', CRITERE = 'RELATIF',   PRECISION = 5.E-3,
              MAILLE = 'STU',
REFERENCE='ANALYTIQUE', NOEUD = 'O', NOM_CMP = 'MYY', VALE = -0.08125E-0))
            )

FIN( )
#
