# ======================================================================
# COPYRIGHT (C) 1991 - 2016  EDF R&D                  WWW.CODE-ASTER.ORG
# THIS PROGRAM IS FREE SOFTWARE; YOU CAN REDISTRIBUTE IT AND/OR MODIFY
# IT UNDER THE TERMS OF THE GNU GENERAL PUBLIC LICENSE AS PUBLISHED BY
# THE FREE SOFTWARE FOUNDATION; EITHER VERSION 2 OF THE LICENSE, OR
# (AT YOUR OPTION) ANY LATER VERSION.
#
# THIS PROGRAM IS DISTRIBUTED IN THE HOPE THAT IT WILL BE USEFUL, BUT
# WITHOUT ANY WARRANTY; WITHOUT EVEN THE IMPLIED WARRANTY OF
# MERCHANTABILITY OR FITNESS FOR A PARTICULAR PURPOSE. SEE THE GNU
# GENERAL PUBLIC LICENSE FOR MORE DETAILS.
#
# YOU SHOULD HAVE RECEIVED A COPY OF THE GNU GENERAL PUBLIC LICENSE
# ALONG WITH THIS PROGRAM; IF NOT, WRITE TO EDF R&D CODE_ASTER,
#    1 AVENUE DU GENERAL DE GAULLE, 92141 CLAMART CEDEX, FRANCE.
# ======================================================================
# CAS_TEST__: SSLS100J
# SSLS100/J                COMMANDES                            23/03/93
# PLAQUE CIRCULAIRE ENCASTREE SOUMISE A UNE PRESSION UNIFORME
#----------------------------------------------------------------------
# MODELISATION COQUE_AXIS:   21 NOEUDS -- 20 MAILLES SEG3 ; KAPPA=5/6
#
#                    !->
#        Y !       S !N
#          !     <---!
#          !         !
#          ====================!  -------->
#          O        D          A        X
#
#                 1.0 M
#          !-------------------!
#======================================================================

DEBUT(CODE=_F(NIV_PUB_WEB='INTERNET'), DEBUG=_F(SDVERI='OUI'))

#

MATER=DEFI_MATERIAU( ELAS=_F(  E = 1.0,     NU = 0.3) )

MAILL=LIRE_MAILLAGE(   )

MAILL=DEFI_GROUP( reuse=MAILL,   MAILLAGE=MAILL,
  CREA_GROUP_MA=_F(  NOM = 'TOUT', TOUT = 'OUI'))

CHMAT=AFFE_MATERIAU(  MAILLAGE=MAILL,
                          AFFE=_F(  TOUT = 'OUI',   MATER = MATER) )

MODEL=AFFE_MODELE(  MAILLAGE=MAILL,
                        AFFE=_F( TOUT = 'OUI',   MODELISATION = 'COQUE_AXIS',
                              PHENOMENE = 'MECANIQUE') )

CHARGE=AFFE_CHAR_MECA(  MODELE=MODEL,DDL_IMPO=(
              _F( NOEUD = 'A',   DX = 0., DY = 0., DRZ = 0.),
              _F( NOEUD = 'O',                     DRZ = 0.)),
           FORCE_COQUE=_F(  TOUT = 'OUI',   FY = -1.0)   )

CARELEM=AFFE_CARA_ELEM(  MODELE=MODEL,
                 COQUE=_F( GROUP_MA = 'TOUT',
                           EPAIS = 0.1,
                           A_CIS = 0.83333, MODI_METRIQUE = 'NON',) )

RESU=MECA_STATIQUE(    MODELE=MODEL, CHAM_MATER=CHMAT,
                               CARA_ELEM=CARELEM,
                               EXCIT=_F(  CHARGE = CHARGE)       )

RESU=CALC_CHAMP(reuse=RESU,
                RESULTAT=RESU,
                CONTRAINTE=('SIGM_ELNO',),
                DEFORMATION=('EPSI_ELNO',),);

RESC1SUP=POST_CHAMP(RESULTAT=RESU,
                     EXTR_COQUE=_F(NOM_CHAM='SIGM_ELNO',
                                   NUME_COUCHE=1,
                                   NIVE_COUCHE='SUP',),);

RESU=CALC_CHAMP(reuse=RESU,
                RESULTAT=RESU,
                CONTRAINTE=('EFGE_ELNO'),
                DEFORMATION=('DEGE_ELNO'),);


TEST_RESU(RESU=(_F(NUME_ORDRE=1,
                   RESULTAT=RESC1SUP,
                   NOM_CHAM='SIGM_ELNO',
                   NOEUD='O',
                   NOM_CMP='SIXX',
                   VALE_CALC=-49.050735455,
                   VALE_REFE=-49.049999999999997,
                   REFERENCE='NON_DEFINI',
                   PRECISION=1.E-2,
                   MAILLE='STU',),
                _F(NUME_ORDRE=1,
                   RESULTAT=RESC1SUP,
                   NOM_CHAM='SIGM_ELNO',
                   NOEUD='O',
                   NOM_CMP='SIYY',
                   VALE_CALC=-49.050735455,
                   VALE_REFE=-49.049999999999997,
                   REFERENCE='NON_DEFINI',
                   PRECISION=1.E-2,
                   MAILLE='STU',),
                ),
          )

#--------------------------------------------------------------------
RELEVE_1=POST_RELEVE_T(
                   ACTION=_F(  NOEUD = ( 'A',    'F',   'D',    'P',  'O', ),
#                                   X =   1. .75  .5  .25  0.
                            INTITULE = 'DEPL',
                            RESULTAT = RESU,
                            NOM_CHAM='DEPL',
                            NUME_ORDRE = 1,
                            NOM_CMP = ( 'DX',  'DY',  'DRZ', ),
                            OPERATION = 'EXTRACTION')
                          )

RELEVE_2=POST_RELEVE_T( ACTION=(
                   _F(  NOEUD = 'O',
                            INTITULE = 'DEGE',
                            RESULTAT = RESU,
                            NOM_CHAM='DEGE_ELNO',
                            NUME_ORDRE=1,
                            NOM_CMP = ('KXX', 'KYY', 'KXY',),
                            OPERATION = 'EXTRACTION'),
                   _F(  NOEUD = 'O',
                            INTITULE = 'EFGE_DEP',
                            RESULTAT = RESU,
                            NUME_ORDRE=1,
                            NOM_CHAM='EFGE_ELNO',
                            NOM_CMP = 'MYY',
                            OPERATION = 'EXTRACTION'))
                          )

#--------------------------------------------------------------------

TEST_RESU(RESU=(_F(NUME_ORDRE=1,
                   RESULTAT=RESU,
                   NOM_CHAM='DEPL',
                   NOEUD='O',
                   NOM_CMP='DY',
                   VALE_CALC=-178.385925021,
                   VALE_REFE=-178.42400000000001,
                   REFERENCE='NON_DEFINI',
                   CRITERE='RELATIF',
                   PRECISION=5.0000000000000001E-3,),
                _F(NUME_ORDRE=1,
                   RESULTAT=RESU,
                   NOM_CHAM='DEPL',
                   NOEUD='D',
                   NOM_CMP='DY',
                   VALE_CALC=-101.776259721,
                   VALE_REFE=-101.827,
                   REFERENCE='NON_DEFINI',
                   CRITERE='RELATIF',
                   PRECISION=5.0000000000000001E-3,),
                _F(NUME_ORDRE=1,
                   RESULTAT=RESU,
                   NOM_CHAM='DEPL',
                   NOEUD='D',
                   NOM_CMP='DRZ',
                   VALE_CALC=256.001538933,
                   VALE_REFE=255.94,
                   REFERENCE='NON_DEFINI',
                   CRITERE='RELATIF',
                   PRECISION=5.0000000000000001E-3,),
                _F(NUME_ORDRE=1,
                   RESULTAT=RESU,
                   NOM_CHAM='DEGE_ELNO',
                   NOEUD='D',
                   NOM_CMP='KXX',
                   VALE_CALC=-167.891883068,
                   VALE_REFE=-170.625,
                   REFERENCE='NON_DEFINI',
                   CRITERE='RELATIF',
                   PRECISION=0.050000000000000003,
                   MAILLE='IJK',),
                _F(NUME_ORDRE=1,
                   RESULTAT=RESU,
                   NOM_CHAM='DEGE_ELNO',
                   NOEUD='D',
                   NOM_CMP='KXX',
                   VALE_CALC=-178.919871713,
                   VALE_REFE=-170.625,
                   REFERENCE='NON_DEFINI',
                   CRITERE='RELATIF',
                   PRECISION=0.050000000000000003,
                   MAILLE='KLM',),
                _F(NUME_ORDRE=1,
                   RESULTAT=RESU,
                   NOM_CHAM='DEGE_ELNO',
                   NOEUD='D',
                   NOM_CMP='KYY',
                   VALE_CALC=-512.865923307,
                   VALE_REFE=-511.875,
                   REFERENCE='NON_DEFINI',
                   CRITERE='RELATIF',
                   PRECISION=5.0000000000000001E-3,
                   MAILLE='IJK',),
                _F(NUME_ORDRE=1,
                   RESULTAT=RESU,
                   NOM_CHAM='DEGE_ELNO',
                   NOEUD='D',
                   NOM_CMP='KYY',
                   VALE_CALC=-512.768502548,
                   VALE_REFE=-511.875,
                   REFERENCE='NON_DEFINI',
                   CRITERE='RELATIF',
                   PRECISION=5.0000000000000001E-3,
                   MAILLE='KLM',),
                _F(NUME_ORDRE=1,
                   RESULTAT=RESU,
                   NOM_CHAM='EFGE_ELNO',
                   NOEUD='A',
                   NOM_CMP='MXX',
                   VALE_CALC=0.123707281,
                   VALE_REFE=0.125,
                   REFERENCE='NON_DEFINI',
                   CRITERE='RELATIF',
                   PRECISION=0.02,
                   MAILLE='ABC',),
                _F(NUME_ORDRE=1,
                   RESULTAT=RESU,
                   NOM_CHAM='EFGE_ELNO',
                   NOEUD='A',
                   NOM_CMP='MYY',
                   VALE_CALC=0.037046396,
                   VALE_REFE=0.037499999999999999,
                   REFERENCE='NON_DEFINI',
                   CRITERE='RELATIF',
                   PRECISION=0.02,
                   MAILLE='ABC',),
                _F(NUME_ORDRE=1,
                   RESULTAT=RESU,
                   NOM_CHAM='EFGE_ELNO',
                   NOEUD='D',
                   NOM_CMP='MYY',
                   VALE_CALC=-0.051578158,
                   VALE_REFE=-0.051560000000000002,
                   REFERENCE='NON_DEFINI',
                   CRITERE='RELATIF',
                   PRECISION=5.0000000000000001E-3,
                   MAILLE='IJK',),
                _F(NUME_ORDRE=1,
                   RESULTAT=RESU,
                   NOM_CHAM='EFGE_ELNO',
                   NOEUD='D',
                   NOM_CMP='MYY',
                   VALE_CALC=-0.051872204,
                   VALE_REFE=-0.051560000000000002,
                   REFERENCE='NON_DEFINI',
                   CRITERE='RELATIF',
                   PRECISION=7.0000000000000001E-3,
                   MAILLE='KLM',),
                _F(NUME_ORDRE=1,
                   RESULTAT=RESU,
                   NOM_CHAM='EFGE_ELNO',
                   NOEUD='O',
                   NOM_CMP='MXX',
                   VALE_CALC=-0.081751226,
                   VALE_REFE=-0.081250000000000003,
                   REFERENCE='NON_DEFINI',
                   CRITERE='RELATIF',
                   PRECISION=1.E-2,
                   MAILLE='STU',),
                _F(NUME_ORDRE=1,
                   RESULTAT=RESU,
                   NOM_CHAM='EFGE_ELNO',
                   NOEUD='O',
                   NOM_CMP='MYY',
                   VALE_CALC=-0.081751226,
                   VALE_REFE=-0.081250000000000003,
                   REFERENCE='NON_DEFINI',
                   CRITERE='RELATIF',
                   PRECISION=1.E-2,
                   MAILLE='STU',),
                ),
          )

FIN( )
#
