# person_in_charge: jean-michel.proix at edf.fr
# TITRE PLAQUE EN FLEXION AVEC DIVERS ELANCEMENTS. MODELISATION SHB MAILLAGE REGULIER
# ======================================================================
# COPYRIGHT (C) 1991 - 2012  EDF R&D                  WWW.CODE-ASTER.ORG
# THIS PROGRAM IS FREE SOFTWARE; YOU CAN REDISTRIBUTE IT AND/OR MODIFY
# IT UNDER THE TERMS OF THE GNU GENERAL PUBLIC LICENSE AS PUBLISHED BY
# THE FREE SOFTWARE FOUNDATION; EITHER VERSION 2 OF THE LICENSE, OR
# (AT YOUR OPTION) ANY LATER VERSION.
#
# THIS PROGRAM IS DISTRIBUTED IN THE HOPE THAT IT WILL BE USEFUL, BUT
# WITHOUT ANY WARRANTY; WITHOUT EVEN THE IMPLIED WARRANTY OF
# MERCHANTABILITY OR FITNESS FOR A PARTICULAR PURPOSE. SEE THE GNU
# GENERAL PUBLIC LICENSE FOR MORE DETAILS.
#
# YOU SHOULD HAVE RECEIVED A COPY OF THE GNU GENERAL PUBLIC LICENSE
# ALONG WITH THIS PROGRAM; IF NOT, WRITE TO EDF R&D CODE_ASTER,
#    1 AVENUE DU GENERAL DE GAULLE, 92141 CLAMART CEDEX, FRANCE.
# ======================================================================
# ELEMENT SHBPS - A.COMBESCURE - S.BAGUET -INSA LYON 2003
#


DEBUT(CODE=_F(NIV_PUB_WEB='INTERNET'),DEBUG=_F(SDVERI='OUI'))

YG=2.E11
L=100.
b=10.
F=1.

MAT=DEFI_MATERIAU(ELAS=_F(E=YG,
                          NU=0.0,),);



# CAS 1 :

h=10.

MAIL31=LIRE_MAILLAGE(FORMAT='MED',UNITE=21);

MAIL31=MODI_MAILLAGE(reuse=MAIL31,MAILLAGE=MAIL31,
ORIE_SHB=_F(GROUP_MA='GEOTOT'),)

MAIL31=DEFI_GROUP(reuse =MAIL31, MAILLAGE=MAIL31,
                CREA_GROUP_NO=(_F(GROUP_MA='SUENCAS',),
                               _F(GROUP_MA='SUDEPIM',),
                               _F(GROUP_MA='LI15',),
                               _F(GROUP_MA='LI21',),
                               _F(GROUP_MA='LI87',),),);

CHMAT31=AFFE_MATERIAU(MAILLAGE=MAIL31,
                  AFFE=_F(TOUT='OUI',MATER=MAT,),);

MODMEC31=AFFE_MODELE(MAILLAGE=MAIL31,
                    AFFE=_F(TOUT='OUI',
                            PHENOMENE='MECANIQUE',
                            MODELISATION='SHB',),);


CHARG31=AFFE_CHAR_MECA(MODELE=MODMEC31,
                      DDL_IMPO=(_F(GROUP_MA=('SUENCAS'),
                                   DX=0.0,),
                                _F(GROUP_MA='LI15',
                                   DY=0.0,),
                                _F(GROUP_MA='LI21',
                                   DZ=0.0,),),
                      FORCE_ARETE=(_F(GROUP_MA='LI87',
                                      FZ=F/b,),),
                           );

RESU31=MECA_STATIQUE(MODELE=MODMEC31,
                    CHAM_MATER=CHMAT31,
                    EXCIT=_F(CHARGE=CHARG31,),
                    );

RESU31=CALC_CHAMP(reuse=RESU31,
                  RESULTAT=RESU31,
                  CRITERES=('SIEQ_ELGA','SIEQ_ELNO'),
                  CONTRAINTE=('SIEF_ELNO','SIGM_ELNO'),);

ENGENDRE_TEST(CO=RESU31,TYPE_TEST='SOMM_ABS')

TEST_RESU(RESU=(_F(NUME_ORDRE=1,
                   TYPE_TEST='SOMM_ABS',
                   RESULTAT=RESU31,
                   NOM_CHAM='DEPL',
                   VALE_CALC=21.000000037873,
                   ),
                _F(NUME_ORDRE=1,
                   TYPE_TEST='SOMM_ABS',
                   RESULTAT=RESU31,
                   NOM_CHAM='SIEF_ELGA',
                   VALE_CALC=12.303149306899,
                   ),
                _F(NUME_ORDRE=1,
                   TYPE_TEST='SOMM_ABS',
                   RESULTAT=RESU31,
                   NOM_CHAM='SIEF_ELNO',
                   VALE_CALC=30.168275718667,
                   ),
                _F(NUME_ORDRE=1,
                   TYPE_TEST='SOMM_ABS',
                   RESULTAT=RESU31,
                   NOM_CHAM='SIGM_ELNO',
                   VALE_CALC=30.168275718667,
                   ),
                _F(NUME_ORDRE=1,
                   TYPE_TEST='SOMM_ABS',
                   RESULTAT=RESU31,
                   NOM_CHAM='SIEQ_ELGA',
                   VALE_CALC=283.21865632308,
                   ),
                _F(NUME_ORDRE=1,
                   TYPE_TEST='SOMM_ABS',
                   RESULTAT=RESU31,
                   NOM_CHAM='SIEQ_ELNO',
                   VALE_CALC=490.1939943253,
                   ),
                ),
          )

Iy=b*h*h*h/12
Uz=F*L*L*L/3/YG/Iy


TEST_RESU(RESU=(_F(NUME_ORDRE=1,
                   GROUP_NO='P7',
                   REFERENCE='SOURCE_EXTERNE',
                   RESULTAT=RESU31,
                   NOM_CHAM='DEPL',
                   NOM_CMP='DZ',
                   VALE_CALC=1.9443071181675E-09,
                   VALE_REFE=Uz,
                   PRECISION=0.040000000000000001,),
                _F(NUME_ORDRE=1,
                   GROUP_NO='P8',
                   REFERENCE='SOURCE_EXTERNE',
                   RESULTAT=RESU31,
                   NOM_CHAM='DEPL',
                   NOM_CMP='DZ',
                   VALE_CALC=1.9218107432032E-09,
                   VALE_REFE=Uz,
                   PRECISION=0.040000000000000001,),
                ),
          )

# CAS 2 :

h=1.0

MAIL32=LIRE_MAILLAGE(FORMAT='MED',UNITE=22);

MAIL32=MODI_MAILLAGE(reuse=MAIL32,MAILLAGE=MAIL32,
ORIE_SHB=_F(GROUP_MA='GEOTOT'),)

MAIL32=DEFI_GROUP(reuse =MAIL32, MAILLAGE=MAIL32,
                CREA_GROUP_NO=(_F(GROUP_MA='SUENCAS',),
                               _F(GROUP_MA='SUDEPIM',),
                               _F(GROUP_MA='LI15',),
                               _F(GROUP_MA='LI21',),
                               _F(GROUP_MA='LI87',),),);

CHMAT32=AFFE_MATERIAU(MAILLAGE=MAIL32,
                  AFFE=_F(TOUT='OUI',MATER=MAT,),);

MODMEC32=AFFE_MODELE(MAILLAGE=MAIL32,
                    AFFE=_F(TOUT='OUI',
                            PHENOMENE='MECANIQUE',
                            MODELISATION='SHB',),);


CHARG32=AFFE_CHAR_MECA(MODELE=MODMEC32,
                      DDL_IMPO=(_F(GROUP_MA=('SUENCAS'),
                                   DX=0.0,),
                                _F(GROUP_MA='LI15',
                                   DY=0.0,),
                                _F(GROUP_MA='LI21',
                                   DZ=0.0,),),
                      FORCE_ARETE=(_F(GROUP_MA='LI87',
                                      FZ=F/b,),),
                           );

RESU32=MECA_STATIQUE(MODELE=MODMEC32,
                    CHAM_MATER=CHMAT32,
                    EXCIT=_F(CHARGE=CHARG32,))


Iy=b*h*h*h/12
Uz=F*L*L*L/3/YG/Iy


TEST_RESU(RESU=(_F(NUME_ORDRE=1,
                   GROUP_NO='P7',
                   REFERENCE='SOURCE_EXTERNE',
                   RESULTAT=RESU32,
                   NOM_CHAM='DEPL',
                   NOM_CMP='DZ',
                   VALE_CALC=1.9332758863142E-06,
                   VALE_REFE=Uz,
                   PRECISION=0.050000000000000003,),
                _F(NUME_ORDRE=1,
                   GROUP_NO='P8',
                   REFERENCE='SOURCE_EXTERNE',
                   RESULTAT=RESU32,
                   NOM_CHAM='DEPL',
                   NOM_CMP='DZ',
                   VALE_CALC=1.9107795124485E-06,
                   VALE_REFE=Uz,
                   PRECISION=0.050000000000000003,),
                ),
          )

# CAS 3 :

h=0.1

MAIL33=LIRE_MAILLAGE(FORMAT='MED',UNITE=23);

MAIL33=MODI_MAILLAGE(reuse=MAIL33,MAILLAGE=MAIL33,
ORIE_SHB=_F(GROUP_MA='GEOTOT'),)

MAIL33=DEFI_GROUP(reuse =MAIL33, MAILLAGE=MAIL33,
                CREA_GROUP_NO=(_F(GROUP_MA='SUENCAS',),
                               _F(GROUP_MA='SUDEPIM',),
                               _F(GROUP_MA='LI15',),
                               _F(GROUP_MA='LI21',),
                               _F(GROUP_MA='LI87',),),);

CHMAT33=AFFE_MATERIAU(MAILLAGE=MAIL33,
                  AFFE=_F(TOUT='OUI',MATER=MAT,),);

MODMEC33=AFFE_MODELE(MAILLAGE=MAIL33,
                    AFFE=_F(TOUT='OUI',
                            PHENOMENE='MECANIQUE',
                            MODELISATION='SHB',),);


CHARG33=AFFE_CHAR_MECA(MODELE=MODMEC33,
                      DDL_IMPO=(_F(GROUP_MA=('SUENCAS'),
                                   DX=0.0,),
                                _F(GROUP_MA='LI15',
                                   DY=0.0,),
                                _F(GROUP_MA='LI21',
                                   DZ=0.0,),),
                      FORCE_ARETE=(_F(GROUP_MA='LI87',
                                      FZ=F/b,),),
                           );

# DANS CETTE CONFIGURATION LE PROBLEME DEVIENT TRES MAL CONDITIONNE (1.0E+12 DEJA)
# L/h=1000 ET MAILLAGE DISTORDU
# ON UTILISE MUMPS ET ON DESACTIVE LA DETECTION DE SINGULARITE AINSI QUE LA VERIFICATION DE QUALITE
RESU33=MECA_STATIQUE(MODELE=MODMEC33,
                    CHAM_MATER=CHMAT33,
                    EXCIT=_F(CHARGE=CHARG33,),
                    SOLVEUR=_F(METHODE='MUMPS',
                               NPREC=-1,
                               RESI_RELA=-1.0,
                               ),
                    );

Iy=b*h*h*h/12
Uz=F*L*L*L/3/YG/Iy

# LA SOLUTION OBTENUE PRESENTE UNE FAIBLE VARIABILITE ENTRE MACHINES QUI DECOULE
# DU MAUVAIS CONDITIONNEMENT
TEST_RESU(RESU=(_F(NUME_ORDRE=1,
                   GROUP_NO='P7',
                   REFERENCE='SOURCE_EXTERNE',
                   RESULTAT=RESU33,
                   NOM_CHAM='DEPL',
                   NOM_CMP='DZ',
                   VALE_CALC=1.9332462742306E-03,
                   VALE_REFE=Uz,
                   TOLE_MACHINE=1.E-4, #TODO TOLE_MACHINE
                   PRECISION=0.05,),
                _F(NUME_ORDRE=1,
                   GROUP_NO='P8',
                   REFERENCE='SOURCE_EXTERNE',
                   RESULTAT=RESU33,
                   NOM_CHAM='DEPL',
                   NOM_CMP='DZ',
                   VALE_CALC=1.9107729402564E-03,
                   VALE_REFE=Uz,
                   TOLE_MACHINE=1.E-4, #TODO TOLE_MACHINE
                   PRECISION=0.05,),
                ),
          )

FIN()
