# TITRE CYLINDRE OBLIQUE SOUS CHARGE AXIALE UNIFORME
# ======================================================================
# COPYRIGHT (C) 1991 - 2012  EDF R&D                  WWW.CODE-ASTER.ORG
# THIS PROGRAM IS FREE SOFTWARE; YOU CAN REDISTRIBUTE IT AND/OR MODIFY
# IT UNDER THE TERMS OF THE GNU GENERAL PUBLIC LICENSE AS PUBLISHED BY
# THE FREE SOFTWARE FOUNDATION; EITHER VERSION 2 OF THE LICENSE, OR
# (AT YOUR OPTION) ANY LATER VERSION.
#
# THIS PROGRAM IS DISTRIBUTED IN THE HOPE THAT IT WILL BE USEFUL, BUT
# WITHOUT ANY WARRANTY; WITHOUT EVEN THE IMPLIED WARRANTY OF
# MERCHANTABILITY OR FITNESS FOR A PARTICULAR PURPOSE. SEE THE GNU
# GENERAL PUBLIC LICENSE FOR MORE DETAILS.
#
# YOU SHOULD HAVE RECEIVED A COPY OF THE GNU GENERAL PUBLIC LICENSE
# ALONG WITH THIS PROGRAM; IF NOT, WRITE TO EDF R&D CODE_ASTER,
#    1 AVENUE DU GENERAL DE GAULLE, 92141 CLAMART CEDEX, FRANCE.
# ======================================================================
DEBUT(CODE=_F(NOM='SSLV307A',NIV_PUB_WEB='INTERNET'),DEBUG=_F(SDVERI='OUI'))

MAIL=LIRE_MAILLAGE(FORMAT='MED',)

#
# DEFINITION DES GROUPES DE NOEUDS
MAIL=DEFI_GROUP( reuse=MAIL,   MAILLAGE=MAIL,CREA_GROUP_NO=(
                       _F(  GROUP_MA = ('SECT0_1', 'SECT0_2',)),
                       _F(  GROUP_MA = ('LAB',   'LEF',
                                                   'LA2B2_1', 'LE2F2_1',
                                                   'LA2B2_2', 'LE2F2_2',
                                                   'LA3B3', 'LE3F3',)),
                       _F(  GROUP_MA = ('FACE_AB1', 'FACE_AB2',)),
                       _F(  GROUP_MA = ('FACE_EF1', 'FACE_EF2',)),

                       _F( NOM = 'GN1',
                                      OPTION = 'PLAN',
                                      NOEUD_CENTRE = 'N2',
                                  PRECISION = 0.01,
                                  VECT_NORMALE = (0.,-0.8660254,0.5,)),

                       _F( NOM = 'GN2',
                                      OPTION = 'PLAN',
                                      NOEUD_CENTRE = 'N1540',
                                  PRECISION = 0.01,
                                  VECT_NORMALE = (-1.,0.,0.,)))
                   )

# IMPR_CO (CO : MAIL) ;
#
# DEFINITION DU MODELE
MODELE=AFFE_MODELE(    MAILLAGE=MAIL,
                         AFFE=_F(  TOUT = 'OUI',
                       PHENOMENE = 'MECANIQUE',
                       MODELISATION = '3D')  )

#
# DEFINITION DU MATERIAU
ACIER=DEFI_MATERIAU(    ELAS=_F(  E = 2.1E11,  NU = 0.3,
                                 ALPHA = 1.E-5,  RHO = 7800.)
                      )

#
# ATTRIBUTION DU MATERIAU
CHMAT=AFFE_MATERIAU(    MAILLAGE=MAIL,
                          AFFE=_F(  TOUT = 'OUI',
                                 MATER = ACIER)  )

#
# DEFINITION DES CONDITIONS AUX LIMITES
CLIM=AFFE_CHAR_MECA(    MODELE=MODELE,LIAISON_OBLIQUE=(
# DEPLACEMENT AXIAL BLOQUE
                       _F( GROUP_NO = ('SECT0_1', 'SECT0_2',),
                                        DZ = 0.,
                                        ANGL_NAUT = (0.,  0., -30.,)),
#                     LIAISON_OBLIQUE : (GROUP_NO : (SECT0_1 SECT0_2)
#                                        DX: 0.
#                                        ANGL_NAUT : (0.  0. -30.) )
#                     LIAISON_OBLIQUE : (GROUP_NO : (SECT0_1 SECT0_2)
#                                        DY : 0.
#                                        ANGL_NAUT : (0.  0. -30.) )
# COND. DE SYM. SUR FACE AB : V=0
                       _F( GROUP_NO = ('FACE_AB1', 'FACE_AB2',),
                                        DY = 0.,
                                        ANGL_NAUT = (0.,  0., -30.,)),
# COND. DE SYM. SUR FACE EF : U=0
                       _F( GROUP_NO = ('FACE_EF1', 'FACE_EF2',),
                                        DX = 0.,
                                        ANGL_NAUT = (0.,  0., -30.,))),LIAISON_GROUP=(
# IDENTIFICATION DES SECTIONS COMMUNES AUX 2 ZONES
                            _F( GROUP_MA_1 = 'SECT2_1',
                                           GROUP_MA_2 = 'SECT2_3',
                                           DDL_1 = ('DX',),
                                           DDL_2 = ('DX',),
                                           COEF_MULT_1 = ( 1., ),
                                           COEF_MULT_2 = (-1., ),
                                           COEF_IMPO = 0.,
                          SANS_GROUP_NO = (
                                           'FACE_EF1', 'FACE_EF2', )),
                            _F( GROUP_MA_1 = 'SECT2_1',
                                           GROUP_MA_2 = 'SECT2_3',
                                           DDL_1 = ('DY',),
                                           DDL_2 = ('DY',),
                                           COEF_MULT_1 = ( 1., ),
                                           COEF_MULT_2 = (-1., ),
                                           COEF_IMPO = 0.,
                          SANS_GROUP_NO = ('FACE_AB1', 'FACE_AB2',
                                            )),
                            _F( GROUP_MA_1 = 'SECT2_1',
                                           GROUP_MA_2 = 'SECT2_3',
                                           DDL_1 = ('DZ',),
                                           DDL_2 = ('DZ',),
                                           COEF_MULT_1 = ( 1., ),
                                           COEF_MULT_2 = (-1., ),
                                           COEF_IMPO = 0.),
                            _F( GROUP_MA_1 = 'SECT2_2',
                                           GROUP_MA_2 = 'SECT2_4',
                                           DDL_1 = ('DX',),
                                           DDL_2 = ('DX',),
                                           COEF_MULT_1 = ( 1., ),
                                           COEF_MULT_2 = (-1., ),
                                           COEF_IMPO = 0.,
                          SANS_GROUP_NO = (
                                           'FACE_EF1', 'FACE_EF2', )),
                            _F( GROUP_MA_1 = 'SECT2_2',
                                           GROUP_MA_2 = 'SECT2_4',
                                           DDL_1 = ('DY',),
                                           DDL_2 = ('DY',),
                                           COEF_MULT_1 = ( 1., ),
                                           COEF_MULT_2 = (-1., ),
                                           COEF_IMPO = 0.,
                          SANS_GROUP_NO = ('FACE_AB1', 'FACE_AB2',
                                            )),
                            _F( GROUP_MA_1 = 'SECT2_2',
                                           GROUP_MA_2 = 'SECT2_4',
                                           DDL_1 = ('DZ',),
                                           DDL_2 = ('DZ',),
                                           COEF_MULT_1 = ( 1., ),
                                           COEF_MULT_2 = (-1., ),
                                           COEF_IMPO = 0.))
                        )

#
CHARGT=AFFE_CHAR_MECA(    MODELE=MODELE,
                            FORCE_FACE=_F(  GROUP_MA = ('SECT4_3', 'SECT4_4',),
                                         FX = 0.,
                                         FY = 250000.,
                                         FZ = 433013.)
#                .......... PRESSION = Q/H ...............
                        )

#
# RESOLUTION
DEF=MECA_STATIQUE(    MODELE=MODELE,
                        CHAM_MATER=CHMAT,
                           SOLVEUR=_F(  METHODE = 'LDLT'),EXCIT=(
                        _F(  CHARGE = CHARGT),
                              _F(  CHARGE = CLIM)),
                         INFO=2
                    )


#
# CALCUL DES CONTRAINTES

DEF=CALC_CHAMP(reuse=DEF,RESULTAT=DEF,CONTRAINTE=('SIGM_ELNO'))


TEST_RESU(RESU=(_F(NUME_ORDRE=1,
                   RESULTAT=DEF,
                   NOM_CHAM='DEPL',
                   NOEUD='N1540',
                   NOM_CMP='DX',
                   VALE_CALC=0.0,
                   VALE_REFE=0.0,
                   REFERENCE='ANALYTIQUE',
                   PRECISION=1.E-3,
                   CRITERE='ABSOLU',),
                _F(NUME_ORDRE=1,
                   RESULTAT=DEF,
                   NOM_CHAM='DEPL',
                   NOEUD='N1540',
                   NOM_CMP='DY',
                   VALE_CALC=-6.18930800E-07,
                   VALE_REFE=0.0,
                   REFERENCE='ANALYTIQUE',
                   CRITERE='ABSOLU',
                   PRECISION=6.0E-3,),
                _F(NUME_ORDRE=1,
                   RESULTAT=DEF,
                   NOM_CHAM='DEPL',
                   NOEUD='N1540',
                   NOM_CMP='DZ',
                   VALE_CALC=3.57339864E-07,
                   VALE_REFE=0.0,
                   REFERENCE='ANALYTIQUE',
                   CRITERE='ABSOLU',
                   PRECISION=6.0E-3,),
                _F(NUME_ORDRE=1,
                   RESULTAT=DEF,
                   NOM_CHAM='DEPL',
                   NOEUD='N962',
                   NOM_CMP='DX',
                   VALE_CALC=-7.13856051E-07,
                   VALE_REFE=-7.143E-07,
                   REFERENCE='ANALYTIQUE',
                   PRECISION=6.0E-3,),
                _F(NUME_ORDRE=1,
                   RESULTAT=DEF,
                   NOM_CHAM='DEPL',
                   NOEUD='N962',
                   NOM_CMP='DY',
                   VALE_CALC=2.38094955E-06,
                   VALE_REFE=0.0,
                   REFERENCE='ANALYTIQUE',
                   CRITERE='ABSOLU',
                   PRECISION=6.0E-3,),
                _F(NUME_ORDRE=1,
                   RESULTAT=DEF,
                   NOM_CHAM='DEPL',
                   NOEUD='N962',
                   NOM_CMP='DZ',
                   VALE_CALC= 4.12392559E-06,
                   VALE_REFE=0.0,
                   REFERENCE='ANALYTIQUE',
                   CRITERE='ABSOLU',
                   PRECISION=6.0E-3,),
                _F(NUME_ORDRE=1,
                   RESULTAT=DEF,
                   NOM_CHAM='DEPL',
                   NOEUD='N3360',
                   NOM_CMP='DX',
                   VALE_CALC=-7.13856051E-07,
                   VALE_REFE=-7.1429999999999998E-07,
                   REFERENCE='ANALYTIQUE',
                   PRECISION=6.0E-3,),
                _F(NUME_ORDRE=1,
                   RESULTAT=DEF,
                   NOM_CHAM='DEPL',
                   NOEUD='N3360',
                   NOM_CMP='DY',
                   VALE_CALC= 2.38094955E-06,
                   VALE_REFE=0.0,
                   REFERENCE='ANALYTIQUE',
                   CRITERE='ABSOLU',
                   PRECISION=6.0E-3,),
                _F(NUME_ORDRE=1,
                   RESULTAT=DEF,
                   NOM_CHAM='DEPL',
                   NOEUD='N3360',
                   NOM_CMP='DZ',
                   VALE_CALC= 4.12392559E-06,
                   VALE_REFE=0.0,
                   REFERENCE='ANALYTIQUE',
                   CRITERE='ABSOLU',
                   PRECISION=6.0E-3,),
                _F(NUME_ORDRE=1,
                   RESULTAT=DEF,
                   NOM_CHAM='DEPL',
                   NOEUD='N3356',
                   NOM_CMP='DX',
                   VALE_CALC=-7.13736037E-07,
                   VALE_REFE=-7.1429999999999998E-07,
                   REFERENCE='ANALYTIQUE',
                   PRECISION=6.0E-3,),
                _F(NUME_ORDRE=1,
                   RESULTAT=DEF,
                   NOM_CHAM='DEPL',
                   NOEUD='N3356',
                   NOM_CMP='DY',
                   VALE_CALC= 4.76190076E-06,
                   VALE_REFE=0.0,
                   REFERENCE='ANALYTIQUE',
                   CRITERE='ABSOLU',
                   PRECISION=6.0E-3,),
                _F(NUME_ORDRE=1,
                   RESULTAT=DEF,
                   NOM_CHAM='DEPL',
                   NOEUD='N3356',
                   NOM_CMP='DZ',
                   VALE_CALC= 8.24785405E-06,
                   VALE_REFE=0.0,
                   REFERENCE='ANALYTIQUE',
                   CRITERE='ABSOLU',
                   PRECISION=6.0E-3,),
                _F(NUME_ORDRE=1,
                   RESULTAT=DEF,
                   NOM_CHAM='DEPL',
                   NOEUD='N2121',
                   NOM_CMP='DX',
                   VALE_CALC=-1.86115638E-23,
                   VALE_REFE=0.0,
                   REFERENCE='ANALYTIQUE',
                   CRITERE='ABSOLU',
                   PRECISION=6.0E-3,),
                _F(NUME_ORDRE=1,
                   RESULTAT=DEF,
                   NOM_CHAM='DEPL',
                   NOEUD='N2121',
                   NOM_CMP='DY',
                   VALE_CALC= 1.76199720E-06,
                   VALE_REFE=0.0,
                   REFERENCE='ANALYTIQUE',
                   CRITERE='ABSOLU',
                   PRECISION=6.0E-3,),
                _F(NUME_ORDRE=1,
                   RESULTAT=DEF,
                   NOM_CHAM='DEPL',
                   NOEUD='N2121',
                   NOM_CMP='DZ',
                   VALE_CALC= 4.48129616E-06,
                   VALE_REFE=0.0,
                   REFERENCE='ANALYTIQUE',
                   CRITERE='ABSOLU',
                   PRECISION=6.0E-3,),
                _F(NUME_ORDRE=1,
                   RESULTAT=DEF,
                   NOM_CHAM='DEPL',
                   NOEUD='N2156',
                   NOM_CMP='DX',
                   VALE_CALC= 0.00000000E+00,
                   VALE_REFE=0.0,
                   REFERENCE='ANALYTIQUE',
                   CRITERE='ABSOLU',
                   PRECISION=6.0E-3,),
                _F(NUME_ORDRE=1,
                   RESULTAT=DEF,
                   NOM_CHAM='DEPL',
                   NOEUD='N2156',
                   NOM_CMP='DY',
                   VALE_CALC= 1.76199720E-06,
                   VALE_REFE=0.0,
                   REFERENCE='ANALYTIQUE',
                   CRITERE='ABSOLU',
                   PRECISION=6.0E-3,),
                _F(NUME_ORDRE=1,
                   RESULTAT=DEF,
                   NOM_CHAM='DEPL',
                   NOEUD='N2156',
                   NOM_CMP='DZ',
                   VALE_CALC= 4.48129616E-06,
                   VALE_REFE=0.0,
                   REFERENCE='ANALYTIQUE',
                   CRITERE='ABSOLU',
                   PRECISION=6.0E-3,),
                _F(NUME_ORDRE=1,
                   RESULTAT=DEF,
                   NOM_CHAM='DEPL',
                   NOEUD='N2150',
                   NOM_CMP='DX',
                   VALE_CALC=-2.06795153E-23,
                   VALE_REFE=0.0,
                   REFERENCE='ANALYTIQUE',
                   CRITERE='ABSOLU',
                   PRECISION=6.0E-3,),
                _F(NUME_ORDRE=1,
                   RESULTAT=DEF,
                   NOM_CHAM='DEPL',
                   NOEUD='N2150',
                   NOM_CMP='DY',
                   VALE_CALC= 4.14287867E-06,
                   VALE_REFE=0.0,
                   REFERENCE='ANALYTIQUE',
                   CRITERE='ABSOLU',
                   PRECISION=6.0E-3,),
                _F(NUME_ORDRE=1,
                   RESULTAT=DEF,
                   NOM_CHAM='DEPL',
                   NOEUD='N2150',
                   NOM_CMP='DZ',
                   VALE_CALC= 8.60527409E-06,
                   VALE_REFE=0.0,
                   REFERENCE='ANALYTIQUE',
                   CRITERE='ABSOLU',
                   PRECISION=6.0E-3,),
                _F(NUME_ORDRE=1,
                   RESULTAT=DEF,
                   NOM_CHAM='DEPL',
                   NOEUD='N961',
                   NOM_CMP='DX',
                   VALE_CALC=-7.06713229E-07,
                   VALE_REFE=0.0,
                   REFERENCE='ANALYTIQUE',
                   CRITERE='ABSOLU',
                   PRECISION=6.0E-3,),
                _F(NUME_ORDRE=1,
                   RESULTAT=DEF,
                   NOM_CHAM='DEPL',
                   NOEUD='N961',
                   NOM_CMP='DY',
                   VALE_CALC= 2.38094973E-06,
                   VALE_REFE=0.0,
                   REFERENCE='ANALYTIQUE',
                   CRITERE='ABSOLU',
                   PRECISION=6.0E-3,),
                _F(NUME_ORDRE=1,
                   RESULTAT=DEF,
                   NOM_CHAM='DEPL',
                   NOEUD='N961',
                   NOM_CMP='DZ',
                   VALE_CALC= 4.12392591E-06,
                   VALE_REFE=0.0,
                   REFERENCE='ANALYTIQUE',
                   CRITERE='ABSOLU',
                   PRECISION=6.0E-3,),
                _F(NUME_ORDRE=1,
                   RESULTAT=DEF,
                   NOM_CHAM='DEPL',
                   NOEUD='N3361',
                   NOM_CMP='DX',
                   VALE_CALC=-7.06713229E-07,
                   VALE_REFE=0.0,
                   REFERENCE='ANALYTIQUE',
                   CRITERE='ABSOLU',
                   PRECISION=6.0E-3,),
                _F(NUME_ORDRE=1,
                   RESULTAT=DEF,
                   NOM_CHAM='DEPL',
                   NOEUD='N3361',
                   NOM_CMP='DY',
                   VALE_CALC= 2.38094973E-06,
                   VALE_REFE=0.0,
                   REFERENCE='ANALYTIQUE',
                   CRITERE='ABSOLU',
                   PRECISION=6.0E-3,),
                _F(NUME_ORDRE=1,
                   RESULTAT=DEF,
                   NOM_CHAM='DEPL',
                   NOEUD='N3361',
                   NOM_CMP='DZ',
                   VALE_CALC= 4.12392591E-06,
                   VALE_REFE=0.0,
                   REFERENCE='ANALYTIQUE',
                   CRITERE='ABSOLU',
                   PRECISION=6.0E-3,),
                _F(NUME_ORDRE=1,
                   RESULTAT=DEF,
                   NOM_CHAM='DEPL',
                   NOEUD='N993',
                   NOM_CMP='DX',
                   VALE_CALC=-7.20998924E-07,
                   VALE_REFE=0.0,
                   REFERENCE='ANALYTIQUE',
                   CRITERE='ABSOLU',
                   PRECISION=6.0E-3,),
                _F(NUME_ORDRE=1,
                   RESULTAT=DEF,
                   NOM_CHAM='DEPL',
                   NOEUD='N993',
                   NOM_CMP='DY',
                   VALE_CALC= 2.38094936E-06,
                   VALE_REFE=0.0,
                   REFERENCE='ANALYTIQUE',
                   CRITERE='ABSOLU',
                   PRECISION=6.0E-3,),
                _F(NUME_ORDRE=1,
                   RESULTAT=DEF,
                   NOM_CHAM='DEPL',
                   NOEUD='N993',
                   NOM_CMP='DZ',
                   VALE_CALC= 4.12392527E-06,
                   VALE_REFE=0.0,
                   REFERENCE='ANALYTIQUE',
                   CRITERE='ABSOLU',
                   PRECISION=6.0E-3,),
                _F(NUME_ORDRE=1,
                   RESULTAT=DEF,
                   NOM_CHAM='DEPL',
                   NOEUD='N3364',
                   NOM_CMP='DX',
                   VALE_CALC=-7.20998924E-07,
                   VALE_REFE=0.0,
                   REFERENCE='ANALYTIQUE',
                   CRITERE='ABSOLU',
                   PRECISION=6.0E-3,),
                _F(NUME_ORDRE=1,
                   RESULTAT=DEF,
                   NOM_CHAM='DEPL',
                   NOEUD='N3364',
                   NOM_CMP='DY',
                   VALE_CALC= 2.38094936E-06,
                   VALE_REFE=0.0,
                   REFERENCE='ANALYTIQUE',
                   CRITERE='ABSOLU',
                   PRECISION=6.0E-3,),
                _F(NUME_ORDRE=1,
                   RESULTAT=DEF,
                   NOM_CHAM='DEPL',
                   NOEUD='N3364',
                   NOM_CMP='DZ',
                   VALE_CALC= 4.12392527E-06,
                   VALE_REFE=0.0,
                   REFERENCE='ANALYTIQUE',
                   CRITERE='ABSOLU',
                   PRECISION=6.0E-3,),
                _F(NUME_ORDRE=1,
                   RESULTAT=DEF,
                   NOM_CHAM='DEPL',
                   NOEUD='N2141',
                   NOM_CMP='DX',
                   VALE_CALC= 5.29395592E-23,
                   VALE_REFE=0.0,
                   REFERENCE='ANALYTIQUE',
                   CRITERE='ABSOLU',
                   PRECISION=6.0E-3,),
                _F(NUME_ORDRE=1,
                   RESULTAT=DEF,
                   NOM_CHAM='DEPL',
                   NOEUD='N2141',
                   NOM_CMP='DY',
                   VALE_CALC= 1.76818298E-06,
                   VALE_REFE=0.0,
                   REFERENCE='ANALYTIQUE',
                   CRITERE='ABSOLU',
                   PRECISION=6.0E-3,),
                _F(NUME_ORDRE=1,
                   RESULTAT=DEF,
                   NOM_CHAM='DEPL',
                   NOEUD='N2141',
                   NOM_CMP='DZ',
                   VALE_CALC= 4.47772444E-06,
                   VALE_REFE=0.0,
                   REFERENCE='ANALYTIQUE',
                   CRITERE='ABSOLU',
                   PRECISION=6.0E-3,),
                _F(NUME_ORDRE=1,
                   RESULTAT=DEF,
                   NOM_CHAM='DEPL',
                   NOEUD='N2159',
                   NOM_CMP='DX',
                   VALE_CALC=-9.92616735E-23,
                   VALE_REFE=0.0,
                   REFERENCE='ANALYTIQUE',
                   CRITERE='ABSOLU',
                   PRECISION=6.0E-3,),
                _F(NUME_ORDRE=1,
                   RESULTAT=DEF,
                   NOM_CHAM='DEPL',
                   NOEUD='N2159',
                   NOM_CMP='DY',
                   VALE_CALC= 1.76818298E-06,
                   VALE_REFE=0.0,
                   REFERENCE='ANALYTIQUE',
                   CRITERE='ABSOLU',
                   PRECISION=6.0E-3,),
                _F(NUME_ORDRE=1,
                   RESULTAT=DEF,
                   NOM_CHAM='DEPL',
                   NOEUD='N2159',
                   NOM_CMP='DZ',
                   VALE_CALC= 4.47772444E-06,
                   VALE_REFE=0.0,
                   REFERENCE='ANALYTIQUE',
                   CRITERE='ABSOLU',
                   PRECISION=6.0E-3,),
                _F(NUME_ORDRE=1,
                   RESULTAT=DEF,
                   NOM_CHAM='DEPL',
                   NOEUD='N2122',
                   NOM_CMP='DX',
                   VALE_CALC=-2.31610572E-23,
                   VALE_REFE=0.0,
                   REFERENCE='ANALYTIQUE',
                   CRITERE='ABSOLU',
                   PRECISION=6.0E-3,),
                _F(NUME_ORDRE=1,
                   RESULTAT=DEF,
                   NOM_CHAM='DEPL',
                   NOEUD='N2122',
                   NOM_CMP='DY',
                   VALE_CALC= 1.75581147E-06,
                   VALE_REFE=0.0,
                   REFERENCE='ANALYTIQUE',
                   CRITERE='ABSOLU',
                   PRECISION=6.0E-3,),
                _F(NUME_ORDRE=1,
                   RESULTAT=DEF,
                   NOM_CHAM='DEPL',
                   NOEUD='N2122',
                   NOM_CMP='DZ',
                   VALE_CALC= 4.48486785E-06,
                   VALE_REFE=0.0,
                   REFERENCE='ANALYTIQUE',
                   CRITERE='ABSOLU',
                   PRECISION=6.0E-3,),
                _F(NUME_ORDRE=1,
                   RESULTAT=DEF,
                   NOM_CHAM='DEPL',
                   NOEUD='N2155',
                   NOM_CMP='DX',
                   VALE_CALC=-1.65436123E-23,
                   VALE_REFE=0.0,
                   REFERENCE='ANALYTIQUE',
                   CRITERE='ABSOLU',
                   PRECISION=6.0E-3,),
                _F(NUME_ORDRE=1,
                   RESULTAT=DEF,
                   NOM_CHAM='DEPL',
                   NOEUD='N2155',
                   NOM_CMP='DY',
                   VALE_CALC= 1.75581147E-06,
                   VALE_REFE=0.0,
                   REFERENCE='ANALYTIQUE',
                   CRITERE='ABSOLU',
                   PRECISION=6.0E-3,),
                _F(NUME_ORDRE=1,
                   RESULTAT=DEF,
                   NOM_CHAM='DEPL',
                   NOEUD='N2155',
                   NOM_CMP='DZ',
                   VALE_CALC= 4.48486785E-06,
                   VALE_REFE=0.0,
                   REFERENCE='ANALYTIQUE',
                   CRITERE='ABSOLU',
                   PRECISION=6.0E-3,),
                ),
          )

#
T1=POST_RELEVE_T(    ACTION=_F(
                                GROUP_NO = ('LAB',
                                             'LA2B2_1',
                                             'LA2B2_2',
                                             'LA3B3',
                                            ),
                                INTITULE = 'SIG',
                                RESULTAT = DEF,
                                NUME_ORDRE=1,
                                NOM_CHAM='SIGM_ELNO',
                                NOM_CMP = ('SIXX',  'SIYY', 'SIZZ',),
                                OPERATION = 'EXTRACTION')
                   )

#
TEST_TABLE(VALE_CALC=1.2499758217672E5,
           VALE_REFE=1.25E5,
           REFERENCE='ANALYTIQUE',
           PRECISION=1.E-3,
           NOM_PARA='SIYY',
           TABLE=T1,
           FILTRE=_F(NOM_PARA='NOEUD',
                     VALE_K='N1',),
           )

TEST_TABLE(VALE_CALC=1.2500208603765E5,
           VALE_REFE=1.25E5,
           REFERENCE='ANALYTIQUE',
           PRECISION=1.E-3,
           NOM_PARA='SIYY',
           TABLE=T1,
           FILTRE=_F(NOM_PARA='NOEUD',
                     VALE_K='N321',),
           )

TEST_TABLE(VALE_CALC=1.2499740665745E5,
           VALE_REFE=1.25E5,
           REFERENCE='ANALYTIQUE',
           PRECISION=1.E-3,
           NOM_PARA='SIYY',
           TABLE=T1,
           FILTRE=_F(NOM_PARA='NOEUD',
                     VALE_K='N961',),
           )

TEST_TABLE(VALE_CALC=1.2500233119006E5,
           VALE_REFE=1.25E5,
           REFERENCE='ANALYTIQUE',
           PRECISION=1.E-3,
           NOM_PARA='SIYY',
           TABLE=T1,
           FILTRE=_F(NOM_PARA='NOEUD',
                     VALE_K='N993',),
           )

TEST_TABLE(VALE_CALC=1.2499965299561E5,
           VALE_REFE=1.25E5,
           REFERENCE='ANALYTIQUE',
           PRECISION=1.E-3,
           NOM_PARA='SIYY',
           TABLE=T1,
           FILTRE=_F(NOM_PARA='NOEUD',
                     VALE_K='N962',),
           )

TEST_TABLE(VALE_CALC=1.249974073731E5,
           VALE_REFE=1.25E5,
           REFERENCE='ANALYTIQUE',
           PRECISION=1.E-3,
           NOM_PARA='SIYY',
           TABLE=T1,
           FILTRE=_F(NOM_PARA='NOEUD',
                     VALE_K='N3361',),
           )

TEST_TABLE(VALE_CALC=1.2500233074286E5,
           VALE_REFE=1.25E5,
           REFERENCE='ANALYTIQUE',
           PRECISION=1.E-3,
           NOM_PARA='SIYY',
           TABLE=T1,
           FILTRE=_F(NOM_PARA='NOEUD',
                     VALE_K='N3364',),
           )

TEST_TABLE(VALE_CALC=1.2499965309504E5,
           VALE_REFE=1.25E5,
           REFERENCE='ANALYTIQUE',
           PRECISION=1.E-3,
           NOM_PARA='SIYY',
           TABLE=T1,
           FILTRE=_F(NOM_PARA='NOEUD',
                     VALE_K='N3360',),
           )

TEST_TABLE(VALE_CALC=1.2499603622081E5,
           VALE_REFE=1.25E5,
           REFERENCE='ANALYTIQUE',
           PRECISION=1.E-3,
           NOM_PARA='SIYY',
           TABLE=T1,
           FILTRE=_F(NOM_PARA='NOEUD',
                     VALE_K='N3359',),
           )

TEST_TABLE(VALE_CALC=1.2500398269312E5,
           VALE_REFE=1.25E5,
           REFERENCE='ANALYTIQUE',
           PRECISION=1.E-3,
           NOM_PARA='SIYY',
           TABLE=T1,
           FILTRE=_F(NOM_PARA='NOEUD',
                     VALE_K='N3355',),
           )

TEST_TABLE(VALE_CALC=1.249996497264E5,
           VALE_REFE=1.25E5,
           REFERENCE='ANALYTIQUE',
           PRECISION=1.E-3,
           NOM_PARA='SIYY',
           TABLE=T1,
           FILTRE=_F(NOM_PARA='NOEUD',
                     VALE_K='N3356',),
           )

FIN()
#
