# TITRE CYLINDRE EN 3D (PENTA6 HEXA8) AVEC EFFET DE FOND = F(TEMPS)
#            CONFIGURATION MANAGEMENT OF EDF VERSION
# ======================================================================
# COPYRIGHT (C) 1991 - 2012  EDF R&D                  WWW.CODE-ASTER.ORG
# THIS PROGRAM IS FREE SOFTWARE; YOU CAN REDISTRIBUTE IT AND/OR MODIFY
# IT UNDER THE TERMS OF THE GNU GENERAL PUBLIC LICENSE AS PUBLISHED BY
# THE FREE SOFTWARE FOUNDATION; EITHER VERSION 2 OF THE LICENSE, OR
# (AT YOUR OPTION) ANY LATER VERSION.
#
# THIS PROGRAM IS DISTRIBUTED IN THE HOPE THAT IT WILL BE USEFUL, BUT
# WITHOUT ANY WARRANTY; WITHOUT EVEN THE IMPLIED WARRANTY OF
# MERCHANTABILITY OR FITNESS FOR A PARTICULAR PURPOSE. SEE THE GNU
# GENERAL PUBLIC LICENSE FOR MORE DETAILS.
#
# YOU SHOULD HAVE RECEIVED A COPY OF THE GNU GENERAL PUBLIC LICENSE
# ALONG WITH THIS PROGRAM; IF NOT, WRITE TO EDF R&D CODE_ASTER,
#    1 AVENUE DU GENERAL DE GAULLE, 92141 CLAMART CEDEX, FRANCE.
# ======================================================================
# CYLINDRE CREUX EN CONTRAINTES PLANES ET EFFET DE FOND
# AVEC PRESSION VARIABLE AU COURS DU TEMPS
#
# MODELISATION : ELEMENTS MECANIQUE 3D (PENTA6 HEXA8)
#


DEBUT( CODE=_F( NOM = 'SSLV04P',NIV_PUB_WEB='INTERNET'))

M=LIRE_MAILLAGE(FORMAT='MED',)

M=DEFI_GROUP(reuse=M,       MAILLAGE=M,CREA_GROUP_NO=(
                  _F( NOM = 'DIRI',   GROUP_MA = 'DIRI',   ),
                  _F( NOM = 'SB',   GROUP_MA = 'SB',   ),
                  _F( NOM = 'DIRY',   GROUP_MA = 'DIRY',   )),
                  CREA_GROUP_MA=_F( NOM = 'AE8',    UNION = ('AE6','AE5',),  )
                )

MO=AFFE_MODELE(            MAILLAGE=M,
                                   VERIF='MAILLE',
                                  AFFE=_F(  TOUT = 'OUI',
                                         PHENOMENE = 'MECANIQUE',
                                         MODELISATION = '3D',       ))

M=MODI_MAILLAGE( reuse=M,   MAILLAGE=M,
                        ORIE_PEAU_3D=_F(  GROUP_MA = 'SH',      )
                    )

TA=POST_ELEM(    MODELE=MO,AIRE_INTERNE=(
                    _F(  GROUP_MA_BORD = 'AE7',         ),
                    _F(  GROUP_MA_BORD = 'AE8',         ))
               )

MA=DEFI_MATERIAU(            ELAS=_F(  E = 200000.,
                                         NU = 0.3,
                                         ALPHA = 0.,    ) )

CM=AFFE_MATERIAU(        MAILLAGE=M,
                                  AFFE=_F(  TOUT = 'OUI',
                                         MATER = MA,            ))

CL=AFFE_CHAR_MECA(MODELE=MO,
                  DDL_IMPO =(_F(GROUP_NO = 'DIRI',   DY = 0.,),
                             _F(GROUP_NO = 'SB',     DZ = 0.,),
                             _F(GROUP_NO = 'DIRY',   DX = 0.,)),
                  FACE_IMPO= _F(GROUP_MA = 'DNOR',   DNOR = 0.,),
                 )

FPRESINT = DEFI_FONCTION(NOM_PARA='INST',
                         PROL_DROITE='LINEAIRE',
                         PROL_GAUCHE='LINEAIRE',
                         VALE =(1.,60.,2.,120.,)
                        )

CH=AFFE_CHAR_MECA_F(MODELE=MO,
                    INFO=2,
                    PRES_REP = _F(GROUP_MA = 'PRE7',
                                  PRES = FPRESINT,),
                    EFFE_FOND=(_F(GROUP_MA_INT = 'AE7',
                                  GROUP_MA = 'SH',
                                  PRES = FPRESINT,),
                               _F(GROUP_MA_INT = 'AE8',
                                  GROUP_MA = 'SH',
                                  PRES = FPRESINT,))
                  )

LINST=DEFI_LIST_REEL(DEBUT=0.,
                     INTERVALLE=_F(JUSQU_A = 2.0, NOMBRE = 2)
                    )

RESU=STAT_NON_LINE(MODELE=MO,
                   CHAM_MATER=CM,
                   EXCIT=(_F(CHARGE = CL,),
                          _F(CHARGE = CH,)),
                   COMP_ELAS=_F(RELATION='ELAS',),
                   INCREMENT=_F(LIST_INST=LINST,),
                  )

RESU=CALC_CHAMP(reuse=RESU,RESULTAT=RESU,CONTRAINTE=('SIGM_ELNO'))


RESU=CALC_CHAMP( reuse=RESU,   RESULTAT=RESU,
                     CONTRAINTE='SIGM_NOEU'
                 )

TEST_RESU(RESU=(_F(NUME_ORDRE=1,
                   GROUP_NO='A',
                   REFERENCE='ANALYTIQUE',
                   RESULTAT=RESU,
                   NOM_CHAM='DEPL',
                   NOM_CMP='DX',
                   VALE_CALC= 5.60003667E-05,
                   VALE_REFE=5.5999999999999999E-05,
                   CRITERE='RELATIF',
                   PRECISION=1.E-3,),
                _F(NUME_ORDRE=1,
                   GROUP_NO='A',
                   REFERENCE='ANALYTIQUE',
                   RESULTAT=RESU,
                   NOM_CHAM='DEPL',
                   NOM_CMP='DY',
                   VALE_CALC= 7.3058350115E-22,
                   VALE_REFE=0.0,
                   TOLE_MACHINE=1.E-10,
                   CRITERE='ABSOLU',
                   PRECISION=1.E-10,),
                _F(NUME_ORDRE=1,
                   GROUP_NO='B',
                   REFERENCE='ANALYTIQUE',
                   RESULTAT=RESU,
                   NOM_CHAM='DEPL',
                   NOM_CMP='DX',
                   VALE_CALC= 3.40000298E-05,
                   VALE_REFE=3.4E-05,
                   CRITERE='RELATIF',
                   PRECISION=1.E-3,),
                _F(NUME_ORDRE=1,
                   GROUP_NO='B',
                   REFERENCE='ANALYTIQUE',
                   RESULTAT=RESU,
                   NOM_CHAM='DEPL',
                   NOM_CMP='DY',
                   VALE_CALC= 6.1870033374E-23,
                   VALE_REFE=0.0,
                   TOLE_MACHINE=1.E-10,
                   CRITERE='ABSOLU',
                   PRECISION=1.E-10,),
                ),
          )

TEST_RESU(RESU=(_F(GROUP_NO='A',
                   INST=1.0,
                   REFERENCE='ANALYTIQUE',
                   RESULTAT=RESU,
                   NOM_CHAM='SIGM_NOEU',
                   NOM_CMP='SIXX',
                   VALE_CALC=-59.541439816,
                   VALE_REFE=-60.0,
                   CRITERE='RELATIF',
                   PRECISION=1.E-2,),
                _F(GROUP_NO='A',
                   INST=1.0,
                   REFERENCE='ANALYTIQUE',
                   RESULTAT=RESU,
                   NOM_CHAM='SIGM_NOEU',
                   NOM_CMP='SIYY',
                   VALE_CALC=99.618294489,
                   VALE_REFE=100.0,
                   CRITERE='RELATIF',
                   PRECISION=1.E-2,),
                _F(GROUP_NO='A',
                   INST=1.0,
                   REFERENCE='ANALYTIQUE',
                   RESULTAT=RESU,
                   NOM_CHAM='SIGM_NOEU',
                   NOM_CMP='SIZZ',
                   VALE_CALC=19.997581757,
                   VALE_REFE=20.0,
                   CRITERE='RELATIF',
                   PRECISION=1.E-2,),
                _F(GROUP_NO='A',
                   INST=1.0,
                   REFERENCE='ANALYTIQUE',
                   RESULTAT=RESU,
                   NOM_CHAM='SIGM_NOEU',
                   NOM_CMP='SIXY',
                   VALE_CALC=-1.54337654E-12,
                   VALE_REFE=0.0,
                   CRITERE='ABSOLU',
                   PRECISION=1.E-4,),
                _F(GROUP_NO='B',
                   INST=1.0,
                   REFERENCE='ANALYTIQUE',
                   RESULTAT=RESU,
                   NOM_CHAM='SIGM_NOEU',
                   NOM_CMP='SIXX',
                   VALE_CALC=0.026761257,
                   VALE_REFE=0.0,
                   CRITERE='ABSOLU',
                   PRECISION=0.10000000000000001,),
                _F(GROUP_NO='B',
                   INST=1.0,
                   REFERENCE='ANALYTIQUE',
                   RESULTAT=RESU,
                   NOM_CHAM='SIGM_NOEU',
                   NOM_CMP='SIYY',
                   VALE_CALC=39.974000799,
                   VALE_REFE=40.0,
                   CRITERE='RELATIF',
                   PRECISION=1.E-2,),
                _F(GROUP_NO='B',
                   INST=1.0,
                   REFERENCE='ANALYTIQUE',
                   RESULTAT=RESU,
                   NOM_CHAM='SIGM_NOEU',
                   NOM_CMP='SIZZ',
                   VALE_CALC=19.997307495,
                   VALE_REFE=20.0,
                   CRITERE='RELATIF',
                   PRECISION=1.E-2,),
                _F(GROUP_NO='B',
                   INST=1.0,
                   REFERENCE='ANALYTIQUE',
                   RESULTAT=RESU,
                   NOM_CHAM='SIGM_NOEU',
                   NOM_CMP='SIXY',
                   VALE_CALC=-1.04861952E-12,
                   VALE_REFE=0.0,
                   CRITERE='ABSOLU',
                   PRECISION=1.E-4,),
                _F(GROUP_NO='E',
                   INST=1.0,
                   REFERENCE='ANALYTIQUE',
                   RESULTAT=RESU,
                   NOM_CHAM='SIGM_NOEU',
                   NOM_CMP='SIXX',
                   VALE_CALC=20.328736885,
                   VALE_REFE=20.0,
                   CRITERE='RELATIF',
                   PRECISION=0.02,),
                _F(GROUP_NO='E',
                   INST=1.0,
                   REFERENCE='ANALYTIQUE',
                   RESULTAT=RESU,
                   NOM_CHAM='SIGM_NOEU',
                   NOM_CMP='SIYY',
                   VALE_CALC=20.328736885,
                   VALE_REFE=20.0,
                   CRITERE='RELATIF',
                   PRECISION=0.02,),
                _F(GROUP_NO='E',
                   INST=1.0,
                   REFERENCE='ANALYTIQUE',
                   RESULTAT=RESU,
                   NOM_CHAM='SIGM_NOEU',
                   NOM_CMP='SIZZ',
                   VALE_CALC=20.173940198,
                   VALE_REFE=20.0,
                   CRITERE='RELATIF',
                   PRECISION=1.E-2,),
                _F(GROUP_NO='E',
                   INST=1.0,
                   REFERENCE='ANALYTIQUE',
                   RESULTAT=RESU,
                   NOM_CHAM='SIGM_NOEU',
                   NOM_CMP='SIXY',
                   VALE_CALC=-79.977519158,
                   VALE_REFE=-80.0,
                   CRITERE='RELATIF',
                   PRECISION=1.E-2,),
                _F(GROUP_NO='F',
                   INST=1.0,
                   REFERENCE='ANALYTIQUE',
                   RESULTAT=RESU,
                   NOM_CHAM='SIGM_NOEU',
                   NOM_CMP='SIXX',
                   VALE_CALC=20.017569171,
                   VALE_REFE=20.0,
                   CRITERE='RELATIF',
                   PRECISION=1.E-2,),
                _F(GROUP_NO='F',
                   INST=1.0,
                   REFERENCE='ANALYTIQUE',
                   RESULTAT=RESU,
                   NOM_CHAM='SIGM_NOEU',
                   NOM_CMP='SIYY',
                   VALE_CALC=20.017569171,
                   VALE_REFE=20.0,
                   CRITERE='RELATIF',
                   PRECISION=1.E-2,),
                _F(GROUP_NO='F',
                   INST=1.0,
                   REFERENCE='ANALYTIQUE',
                   RESULTAT=RESU,
                   NOM_CHAM='SIGM_NOEU',
                   NOM_CMP='SIZZ',
                   VALE_CALC=20.007188403,
                   VALE_REFE=20.0,
                   CRITERE='RELATIF',
                   PRECISION=1.E-2,),
                _F(GROUP_NO='F',
                   INST=1.0,
                   REFERENCE='ANALYTIQUE',
                   RESULTAT=RESU,
                   NOM_CHAM='SIGM_NOEU',
                   NOM_CMP='SIXY',
                   VALE_CALC=-20.002723310,
                   VALE_REFE=-20.0,
                   CRITERE='RELATIF',
                   PRECISION=1.E-2,),
                _F(GROUP_NO='A',
                   INST=2.0,
                   REFERENCE='ANALYTIQUE',
                   RESULTAT=RESU,
                   NOM_CHAM='SIGM_NOEU',
                   NOM_CMP='SIXX',
                   VALE_CALC=-119.082879632,
                   VALE_REFE=-120.0,
                   CRITERE='RELATIF',
                   PRECISION=1.E-2,),
                _F(GROUP_NO='A',
                   INST=2.0,
                   REFERENCE='ANALYTIQUE',
                   RESULTAT=RESU,
                   NOM_CHAM='SIGM_NOEU',
                   NOM_CMP='SIYY',
                   VALE_CALC=199.236588979,
                   VALE_REFE=200.0,
                   CRITERE='RELATIF',
                   PRECISION=1.E-2,),
                _F(GROUP_NO='A',
                   INST=2.0,
                   REFERENCE='ANALYTIQUE',
                   RESULTAT=RESU,
                   NOM_CHAM='SIGM_NOEU',
                   NOM_CMP='SIZZ',
                   VALE_CALC=39.995163515,
                   VALE_REFE=40.0,
                   CRITERE='RELATIF',
                   PRECISION=1.E-2,),
                _F(GROUP_NO='A',
                   INST=2.0,
                   REFERENCE='ANALYTIQUE',
                   RESULTAT=RESU,
                   NOM_CHAM='SIGM_NOEU',
                   NOM_CMP='SIXY',
                   VALE_CALC=-7.18258786E-13,
                   VALE_REFE=0.0,
                   CRITERE='ABSOLU',
                   PRECISION=1.E-4,),
                _F(GROUP_NO='B',
                   INST=2.0,
                   REFERENCE='ANALYTIQUE',
                   RESULTAT=RESU,
                   NOM_CHAM='SIGM_NOEU',
                   NOM_CMP='SIXX',
                   VALE_CALC=0.053522513,
                   VALE_REFE=0.0,
                   CRITERE='ABSOLU',
                   PRECISION=0.10000000000000001,),
                _F(GROUP_NO='B',
                   INST=2.0,
                   REFERENCE='ANALYTIQUE',
                   RESULTAT=RESU,
                   NOM_CHAM='SIGM_NOEU',
                   NOM_CMP='SIYY',
                   VALE_CALC=79.948001598,
                   VALE_REFE=80.0,
                   CRITERE='RELATIF',
                   PRECISION=1.E-2,),
                _F(GROUP_NO='B',
                   INST=2.0,
                   REFERENCE='ANALYTIQUE',
                   RESULTAT=RESU,
                   NOM_CHAM='SIGM_NOEU',
                   NOM_CMP='SIZZ',
                   VALE_CALC=39.994614990,
                   VALE_REFE=40.0,
                   CRITERE='RELATIF',
                   PRECISION=1.E-2,),
                _F(GROUP_NO='B',
                   INST=2.0,
                   REFERENCE='ANALYTIQUE',
                   RESULTAT=RESU,
                   NOM_CHAM='SIGM_NOEU',
                   NOM_CMP='SIXY',
                   VALE_CALC=-8.24867952E-13,
                   VALE_REFE=0.0,
                   CRITERE='ABSOLU',
                   PRECISION=1.E-4,),
                _F(GROUP_NO='E',
                   INST=2.0,
                   REFERENCE='ANALYTIQUE',
                   RESULTAT=RESU,
                   NOM_CHAM='SIGM_NOEU',
                   NOM_CMP='SIXX',
                   VALE_CALC=40.657473770,
                   VALE_REFE=40.0,
                   CRITERE='RELATIF',
                   PRECISION=0.02,),
                _F(GROUP_NO='E',
                   INST=2.0,
                   REFERENCE='ANALYTIQUE',
                   RESULTAT=RESU,
                   NOM_CHAM='SIGM_NOEU',
                   NOM_CMP='SIYY',
                   VALE_CALC=40.657473770,
                   VALE_REFE=40.0,
                   CRITERE='RELATIF',
                   PRECISION=0.02,),
                _F(GROUP_NO='E',
                   INST=2.0,
                   REFERENCE='ANALYTIQUE',
                   RESULTAT=RESU,
                   NOM_CHAM='SIGM_NOEU',
                   NOM_CMP='SIZZ',
                   VALE_CALC=40.347880396,
                   VALE_REFE=40.0,
                   CRITERE='RELATIF',
                   PRECISION=1.E-2,),
                _F(GROUP_NO='E',
                   INST=2.0,
                   REFERENCE='ANALYTIQUE',
                   RESULTAT=RESU,
                   NOM_CHAM='SIGM_NOEU',
                   NOM_CMP='SIXY',
                   VALE_CALC=-159.955038316,
                   VALE_REFE=-160.0,
                   CRITERE='RELATIF',
                   PRECISION=1.E-2,),
                _F(GROUP_NO='F',
                   INST=2.0,
                   REFERENCE='ANALYTIQUE',
                   RESULTAT=RESU,
                   NOM_CHAM='SIGM_NOEU',
                   NOM_CMP='SIXX',
                   VALE_CALC=40.035138342,
                   VALE_REFE=40.0,
                   CRITERE='RELATIF',
                   PRECISION=1.E-2,),
                _F(GROUP_NO='F',
                   INST=2.0,
                   REFERENCE='ANALYTIQUE',
                   RESULTAT=RESU,
                   NOM_CHAM='SIGM_NOEU',
                   NOM_CMP='SIYY',
                   VALE_CALC=40.035138342,
                   VALE_REFE=40.0,
                   CRITERE='RELATIF',
                   PRECISION=1.E-2,),
                _F(GROUP_NO='F',
                   INST=2.0,
                   REFERENCE='ANALYTIQUE',
                   RESULTAT=RESU,
                   NOM_CHAM='SIGM_NOEU',
                   NOM_CMP='SIZZ',
                   VALE_CALC=40.014376805,
                   VALE_REFE=40.0,
                   CRITERE='RELATIF',
                   PRECISION=1.E-2,),
                _F(GROUP_NO='F',
                   INST=2.0,
                   REFERENCE='ANALYTIQUE',
                   RESULTAT=RESU,
                   NOM_CHAM='SIGM_NOEU',
                   NOM_CMP='SIXY',
                   VALE_CALC=-40.005446619,
                   VALE_REFE=-40.0,
                   CRITERE='RELATIF',
                   PRECISION=1.E-2,),
                ),
          )

FIN()
#
