# TITRE ETIREMENT D'UN PARALLELEPIPEDE ORTHOTROPE SOUS SON PROPRE POIDS
#            CONFIGURATION MANAGEMENT OF EDF VERSION
# ======================================================================
# COPYRIGHT (C) 1991 - 2012  EDF R&D                  WWW.CODE-ASTER.ORG
# THIS PROGRAM IS FREE SOFTWARE; YOU CAN REDISTRIBUTE IT AND/OR MODIFY
# IT UNDER THE TERMS OF THE GNU GENERAL PUBLIC LICENSE AS PUBLISHED BY
# THE FREE SOFTWARE FOUNDATION; EITHER VERSION 2 OF THE LICENSE, OR
# (AT YOUR OPTION) ANY LATER VERSION.
#
# THIS PROGRAM IS DISTRIBUTED IN THE HOPE THAT IT WILL BE USEFUL, BUT
# WITHOUT ANY WARRANTY; WITHOUT EVEN THE IMPLIED WARRANTY OF
# MERCHANTABILITY OR FITNESS FOR A PARTICULAR PURPOSE. SEE THE GNU
# GENERAL PUBLIC LICENSE FOR MORE DETAILS.
#
# YOU SHOULD HAVE RECEIVED A COPY OF THE GNU GENERAL PUBLIC LICENSE
# ALONG WITH THIS PROGRAM; IF NOT, WRITE TO EDF R&D CODE_ASTER,
#    1 AVENUE DU GENERAL DE GAULLE, 92141 CLAMART CEDEX, FRANCE.
# ======================================================================

DEBUT(   CODE=_F(  NOM = 'SSLV120A',NIV_PUB_WEB='INTERNET'),DEBUG=_F(SDVERI='OUI'))

MA=LIRE_MAILLAGE(FORMAT='MED',  )

MO=AFFE_MODELE(  MAILLAGE=MA,
       AFFE=_F(  TOUT = 'OUI',PHENOMENE = 'MECANIQUE',MODELISATION = '3D') )

MAT1=DEFI_MATERIAU( ELAS=_F(  E = 2.0E+11,  NU = 0.3,  RHO = 7800.,
                            ALPHA = 0.)  )

MAT=DEFI_MATERIAU( ELAS_ORTH=_F(  E_L = 5.0E+11,
                                E_T = 5.0E+11,
                                E_N = 2.0E+11,
                                NU_LT = 0.1,
                                NU_LN = 0.3,
                               NU_TN = 0.1,
                               G_LT = 76923.1E+6,
                            G_LN = 76923.1E+6,
                            G_TN = 76923.1E+6,
                            RHO = 7800.,
                            ALPHA_L = 0.,
                            ALPHA_N = 0.,
                            ALPHA_T = 0.)  )


CHMAT=AFFE_MATERIAU(  MAILLAGE=MA,
                       AFFE=_F(  TOUT = 'OUI',  MATER = MAT) )

# ------------------------------------------------------------------
#    --- STRUCTURE SUSPENDUE //Z EN A + PAS DE ROTATION

CH=AFFE_CHAR_MECA(  MODELE=MO,
       PESANTEUR=_F(GRAVITE=9.81,
                    DIRECTION=(0.,  0.,   -1., ),),
       FORCE_FACE=_F(  GROUP_MA = 'FACESUP',       FZ = 229553.),DDL_IMPO=(
       _F(  GROUP_NO = 'A',   DX = 0.,   DY = 0.,   DZ = 0.),
                _F(  GROUP_NO = 'D',             DY = 0.),
                _F(  GROUP_NO = 'ABSANSA',      DX = 0.,   DY = 0.)) )

# ------------------------------------------------------------------

RESU=MECA_STATIQUE(MODELE=MO,
                   CHAM_MATER=CHMAT,
                   EXCIT=_F(CHARGE=CH,),
                   );




RESU=CALC_CHAMP(reuse=RESU,RESULTAT=RESU,CONTRAINTE=('SIGM_ELNO'))


TEST_RESU(RESU=(_F(NUME_ORDRE=1,
                   REFERENCE='ANALYTIQUE',
                   RESULTAT=RESU,
                   NOM_CHAM='DEPL',
                   NOEUD='N53',
                   NOM_CMP='DX',
                   VALE_CALC=-1.3834976965E-23,
                   VALE_REFE=0.0,
                   TOLE_MACHINE=1.E-10,
                   CRITERE='ABSOLU',
                   PRECISION=1.E-10,),
                _F(NUME_ORDRE=1,
                   REFERENCE='ANALYTIQUE',
                   RESULTAT=RESU,
                   NOM_CHAM='DEPL',
                   NOEUD='N53',
                   NOM_CMP='DY',
                   VALE_CALC=-7.6352172845E-24,
                   VALE_REFE=0.0,
                   TOLE_MACHINE=1.E-10,
                   CRITERE='ABSOLU',
                   PRECISION=1.E-10,),
                _F(NUME_ORDRE=1,
                   REFERENCE='ANALYTIQUE',
                   RESULTAT=RESU,
                   NOM_CHAM='DEPL',
                   NOEUD='N53',
                   NOM_CMP='DZ',
                   VALE_CALC=-1.72167447E-06,
                   VALE_REFE=-1.721655E-06,
                   CRITERE='RELATIF',
                   PRECISION=1.E-3,),
                _F(NUME_ORDRE=1,
                   REFERENCE='ANALYTIQUE',
                   RESULTAT=RESU,
                   NOM_CHAM='DEPL',
                   NOEUD='N12',
                   NOM_CMP='DX',
                   VALE_CALC=-1.9588081002E-14,
                   VALE_REFE=0.0,
                   TOLE_MACHINE=1.E-10,
                   CRITERE='ABSOLU',
                   PRECISION=1.E-10,),
                _F(NUME_ORDRE=1,
                   REFERENCE='ANALYTIQUE',
                   RESULTAT=RESU,
                   NOM_CHAM='DEPL',
                   NOEUD='N12',
                   NOM_CMP='DY',
                   VALE_CALC=-1.2396992779E-20,
                   VALE_REFE=0.0,
                   TOLE_MACHINE=1.E-10,
                   CRITERE='ABSOLU',
                   PRECISION=1.E-10,),
                _F(NUME_ORDRE=1,
                   REFERENCE='ANALYTIQUE',
                   RESULTAT=RESU,
                   NOM_CHAM='DEPL',
                   NOEUD='N12',
                   NOM_CMP='DZ',
                   VALE_CALC=-1.71593549E-06,
                   VALE_REFE=-1.715916E-06,
                   CRITERE='RELATIF',
                   PRECISION=1.E-3,),
                _F(NUME_ORDRE=1,
                   REFERENCE='ANALYTIQUE',
                   RESULTAT=RESU,
                   NOM_CHAM='DEPL',
                   NOEUD='N18',
                   NOM_CMP='DX',
                   VALE_CALC=-6.88652823E-08,
                   VALE_REFE=-6.88662E-08,
                   CRITERE='RELATIF',
                   PRECISION=1.E-3,),
                _F(NUME_ORDRE=1,
                   REFERENCE='ANALYTIQUE',
                   RESULTAT=RESU,
                   NOM_CHAM='DEPL',
                   NOEUD='N18',
                   NOM_CMP='DY',
                   VALE_CALC=-1.5170085585E-24,
                   VALE_REFE=0.0,
                   TOLE_MACHINE=1.E-10,
                   CRITERE='ABSOLU',
                   PRECISION=1.E-10,),
                _F(NUME_ORDRE=1,
                   REFERENCE='ANALYTIQUE',
                   RESULTAT=RESU,
                   NOM_CHAM='DEPL',
                   NOEUD='N18',
                   NOM_CMP='DZ',
                   VALE_CALC= 5.71471026E-09,
                   VALE_REFE=5.7388500000000003E-09,
                   CRITERE='RELATIF',
                   PRECISION=5.0000000000000001E-3,),
                _F(NUME_ORDRE=1,
                   REFERENCE='ANALYTIQUE',
                   RESULTAT=RESU,
                   NOM_CHAM='DEPL',
                   NOEUD='N56',
                   NOM_CMP='DX',
                   VALE_CALC=-1.2666203130E-24,
                   VALE_REFE=0.0,
                   TOLE_MACHINE=1.E-10,
                   CRITERE='ABSOLU',
                   PRECISION=1.E-10,),
                _F(NUME_ORDRE=1,
                   REFERENCE='ANALYTIQUE',
                   RESULTAT=RESU,
                   NOM_CHAM='DEPL',
                   NOEUD='N56',
                   NOM_CMP='DY',
                   VALE_CALC= 1.3648480107E-23,
                   VALE_REFE=0.0,
                   TOLE_MACHINE=1.E-10,
                   CRITERE='ABSOLU',
                   PRECISION=1.E-10,),
                _F(NUME_ORDRE=1,
                   REFERENCE='ANALYTIQUE',
                   RESULTAT=RESU,
                   NOM_CHAM='DEPL',
                   NOEUD='N56',
                   NOM_CMP='DZ',
                   VALE_CALC=-1.29126100E-06,
                   VALE_REFE=-1.2912412499999999E-06,
                   CRITERE='RELATIF',
                   PRECISION=1.E-3,),
                _F(NUME_ORDRE=1,
                   REFERENCE='ANALYTIQUE',
                   RESULTAT=RESU,
                   NOM_CHAM='DEPL',
                   NOEUD='N70',
                   NOM_CMP='DX',
                   VALE_CALC= 6.2501767085E-21,
                   VALE_REFE=0.0,
                   TOLE_MACHINE=1.E-10,
                   CRITERE='ABSOLU',
                   PRECISION=1.E-10,),
                _F(NUME_ORDRE=1,
                   REFERENCE='ANALYTIQUE',
                   RESULTAT=RESU,
                   NOM_CHAM='DEPL',
                   NOEUD='N70',
                   NOM_CMP='DY',
                   VALE_CALC=-2.2954205249E-08,
                   VALE_REFE=-2.2955400000000001E-08,
                   TOLE_MACHINE=1.E-10,
                   CRITERE='ABSOLU',
                   PRECISION=1.E-10,),
                _F(NUME_ORDRE=1,
                   REFERENCE='ANALYTIQUE',
                   RESULTAT=RESU,
                   NOM_CHAM='DEPL',
                   NOEUD='N70',
                   NOM_CMP='DZ',
                   VALE_CALC= 1.88875351E-09,
                   VALE_REFE=1.9129500000000001E-09,
                   CRITERE='RELATIF',
                   PRECISION=0.014999999999999999,),
                _F(NUME_ORDRE=1,
                   REFERENCE='ANALYTIQUE',
                   RESULTAT=RESU,
                   NOM_CHAM='SIGM_ELNO',
                   NOEUD='N59',
                   NOM_CMP='SIZZ',
                   VALE_CALC= 2.29561799E+05,
                   VALE_REFE=2.29554E5,
                   CRITERE='RELATIF',
                   PRECISION=1.E-3,
                   MAILLE='HEX3',),
                _F(NUME_ORDRE=1,
                   REFERENCE='ANALYTIQUE',
                   RESULTAT=RESU,
                   NOM_CHAM='SIGM_ELNO',
                   NOEUD='N56',
                   NOM_CMP='SIZZ',
                   VALE_CALC= 1.14777072E+05,
                   VALE_REFE=1.14777E5,
                   CRITERE='RELATIF',
                   PRECISION=1.E-3,
                   MAILLE='HEX2',),
                _F(NUME_ORDRE=1,
                   REFERENCE='ANALYTIQUE',
                   RESULTAT=RESU,
                   NOM_CHAM='SIGM_ELNO',
                   NOEUD='N70',
                   NOM_CMP='SIZZ',
                   VALE_CALC= 2.29550070E+05,
                   VALE_REFE=2.29554E5,
                   CRITERE='RELATIF',
                   PRECISION=1.E-3,
                   MAILLE='HEX6',),
                ),
          )

#################################################################
# stat_non_line ELAS, angle 0
#################################################################

LINST=DEFI_LIST_REEL(DEBUT=0.0,
                     INTERVALLE=(_F(JUSQU_A=1,
                                    NOMBRE=1,),),);


COEF=DEFI_FONCTION(NOM_PARA='INST',
                   VALE=(0.0,0.0,1.0,1.0,),
                   PROL_DROITE='LINEAIRE',
                   PROL_GAUCHE='LINEAIRE',);

RESUNL0=STAT_NON_LINE(MODELE=MO,
                     CHAM_MATER=CHMAT,
                     EXCIT=_F(CHARGE=CH,
                               FONC_MULT=COEF,
                     ),
                     COMP_INCR=(_F(RELATION='ELAS',
                                   TOUT='OUI',),),
                     INCREMENT=(_F(LIST_INST=LINST,),),
                                     );

RESUNL0=CALC_CHAMP(reuse=RESUNL0,RESULTAT=RESUNL0,CONTRAINTE=('SIGM_ELNO'))


#
#---------------------------------------------------------------------

TEST_RESU(RESU=(_F(NUME_ORDRE=1,
                   REFERENCE='ANALYTIQUE',
                   RESULTAT=RESUNL0,
                   NOM_CHAM='DEPL',
                   NOEUD='N53',
                   NOM_CMP='DX',
                   VALE_CALC=-1.5882437232E-25,
                   VALE_REFE=0.0,
                   TOLE_MACHINE=1.E-10,
                   CRITERE='ABSOLU',
                   PRECISION=1.E-10,),
                _F(NUME_ORDRE=1,
                   REFERENCE='ANALYTIQUE',
                   RESULTAT=RESUNL0,
                   NOM_CHAM='DEPL',
                   NOEUD='N53',
                   NOM_CMP='DY',
                   VALE_CALC= 2.8335614997E-24,
                   VALE_REFE=0.0,
                   TOLE_MACHINE=1.E-10,
                   CRITERE='ABSOLU',
                   PRECISION=1.E-10,),
                _F(NUME_ORDRE=1,
                   REFERENCE='ANALYTIQUE',
                   RESULTAT=RESUNL0,
                   NOM_CHAM='DEPL',
                   NOEUD='N53',
                   NOM_CMP='DZ',
                   VALE_CALC=-1.72167447E-06,
                   VALE_REFE=-1.721655E-06,
                   CRITERE='RELATIF',
                   PRECISION=1.E-3,),
                _F(NUME_ORDRE=1,
                   REFERENCE='ANALYTIQUE',
                   RESULTAT=RESUNL0,
                   NOM_CHAM='DEPL',
                   NOEUD='N12',
                   NOM_CMP='DX',
                   VALE_CALC=-1.9588081195E-14,
                   VALE_REFE=0.0,
                   TOLE_MACHINE=1.E-10,
                   CRITERE='ABSOLU',
                   PRECISION=1.E-10,),
                _F(NUME_ORDRE=1,
                   REFERENCE='ANALYTIQUE',
                   RESULTAT=RESUNL0,
                   NOM_CHAM='DEPL',
                   NOEUD='N12',
                   NOM_CMP='DY',
                   VALE_CALC=-3.7307019613E-21,
                   VALE_REFE=0.0,
                   TOLE_MACHINE=1.E-10,
                   CRITERE='ABSOLU',
                   PRECISION=1.E-10,),
                _F(NUME_ORDRE=1,
                   REFERENCE='ANALYTIQUE',
                   RESULTAT=RESUNL0,
                   NOM_CHAM='DEPL',
                   NOEUD='N12',
                   NOM_CMP='DZ',
                   VALE_CALC=-1.71593549E-06,
                   VALE_REFE=-1.715916E-06,
                   CRITERE='RELATIF',
                   PRECISION=1.E-3,),
                _F(NUME_ORDRE=1,
                   REFERENCE='ANALYTIQUE',
                   RESULTAT=RESUNL0,
                   NOM_CHAM='DEPL',
                   NOEUD='N18',
                   NOM_CMP='DX',
                   VALE_CALC=-6.88652823E-08,
                   VALE_REFE=-6.88662E-08,
                   CRITERE='RELATIF',
                   PRECISION=1.E-3,),
                _F(NUME_ORDRE=1,
                   REFERENCE='ANALYTIQUE',
                   RESULTAT=RESUNL0,
                   NOM_CHAM='DEPL',
                   NOEUD='N18',
                   NOM_CMP='DY',
                   VALE_CALC= 2.1725134623E-24,
                   VALE_REFE=0.0,
                   TOLE_MACHINE=1.E-10,
                   CRITERE='ABSOLU',
                   PRECISION=1.E-10,),
                _F(NUME_ORDRE=1,
                   REFERENCE='ANALYTIQUE',
                   RESULTAT=RESUNL0,
                   NOM_CHAM='DEPL',
                   NOEUD='N18',
                   NOM_CMP='DZ',
                   VALE_CALC= 5.71471026E-09,
                   VALE_REFE=5.7388500000000003E-09,
                   CRITERE='RELATIF',
                   PRECISION=7.0000000000000001E-3,),
                _F(NUME_ORDRE=1,
                   REFERENCE='ANALYTIQUE',
                   RESULTAT=RESUNL0,
                   NOM_CHAM='DEPL',
                   NOEUD='N56',
                   NOM_CMP='DX',
                   VALE_CALC=-2.3497099275E-23,
                   VALE_REFE=0.0,
                   TOLE_MACHINE=1.E-10,
                   CRITERE='ABSOLU',
                   PRECISION=1.E-10,),
                _F(NUME_ORDRE=1,
                   REFERENCE='ANALYTIQUE',
                   RESULTAT=RESUNL0,
                   NOM_CHAM='DEPL',
                   NOEUD='N56',
                   NOM_CMP='DY',
                   VALE_CALC= 2.8951321439E-23,
                   VALE_REFE=0.0,
                   TOLE_MACHINE=1.E-10,
                   CRITERE='ABSOLU',
                   PRECISION=1.E-10,),
                _F(NUME_ORDRE=1,
                   REFERENCE='ANALYTIQUE',
                   RESULTAT=RESUNL0,
                   NOM_CHAM='DEPL',
                   NOEUD='N56',
                   NOM_CMP='DZ',
                   VALE_CALC=-1.29126100E-06,
                   VALE_REFE=-1.2912412499999999E-06,
                   CRITERE='RELATIF',
                   PRECISION=1.E-3,),
                _F(NUME_ORDRE=1,
                   REFERENCE='ANALYTIQUE',
                   RESULTAT=RESUNL0,
                   NOM_CHAM='DEPL',
                   NOEUD='N70',
                   NOM_CMP='DX',
                   VALE_CALC= 1.4194419311E-21,
                   VALE_REFE=0.0,
                   TOLE_MACHINE=1.E-10,
                   CRITERE='ABSOLU',
                   PRECISION=1.E-10,),
                _F(NUME_ORDRE=1,
                   REFERENCE='ANALYTIQUE',
                   RESULTAT=RESUNL0,
                   NOM_CHAM='DEPL',
                   NOEUD='N70',
                   NOM_CMP='DY',
                   VALE_CALC=-2.2954205249E-08,
                   VALE_REFE=-2.2955400000000001E-08,
                   TOLE_MACHINE=1.E-10,
                   CRITERE='ABSOLU',
                   PRECISION=1.E-10,),
                _F(NUME_ORDRE=1,
                   REFERENCE='ANALYTIQUE',
                   RESULTAT=RESUNL0,
                   NOM_CHAM='DEPL',
                   NOEUD='N70',
                   NOM_CMP='DZ',
                   VALE_CALC= 1.88875351E-09,
                   VALE_REFE=1.9129500000000001E-09,
                   CRITERE='RELATIF',
                   PRECISION=0.02,),
                _F(NUME_ORDRE=1,
                   REFERENCE='ANALYTIQUE',
                   RESULTAT=RESUNL0,
                   NOM_CHAM='SIGM_ELNO',
                   NOEUD='N59',
                   NOM_CMP='SIZZ',
                   VALE_CALC= 2.29561799E+05,
                   VALE_REFE=2.29554E5,
                   CRITERE='RELATIF',
                   PRECISION=1.E-3,
                   MAILLE='HEX3',),
                _F(NUME_ORDRE=1,
                   REFERENCE='ANALYTIQUE',
                   RESULTAT=RESUNL0,
                   NOM_CHAM='SIGM_ELNO',
                   NOEUD='N56',
                   NOM_CMP='SIZZ',
                   VALE_CALC= 1.14777072E+05,
                   VALE_REFE=1.14777E5,
                   CRITERE='RELATIF',
                   PRECISION=1.E-3,
                   MAILLE='HEX2',),
                _F(NUME_ORDRE=1,
                   REFERENCE='ANALYTIQUE',
                   RESULTAT=RESUNL0,
                   NOM_CHAM='SIGM_ELNO',
                   NOEUD='N70',
                   NOM_CMP='SIZZ',
                   VALE_CALC= 2.29550070E+05,
                   VALE_REFE=2.29554E5,
                   CRITERE='RELATIF',
                   PRECISION=1.E-3,
                   MAILLE='HEX6',),
                ),
          )

#################################################################
# monocristal implicite angle 0
#################################################################

MAT2B=DEFI_MATERIAU( ELAS_ORTH=_F(  E_L = 5.0E+11,
                                E_T = 5.0E+11,
                                E_N = 2.0E+11,
                                NU_LT = 0.1,
                                NU_LN = 0.3,
                                NU_TN = 0.1,
                                G_LT = 76923.1E+6,
                                G_LN = 76923.1E+6,
                                G_TN = 76923.1E+6,
                                RHO = 7800.,
                                ALPHA_L = 0.,
                                ALPHA_N = 0.,
                                ALPHA_T = 0.) ,

                    MONO_VISC1=_F(N=0.0,
                                  K=1.E11,
                                  C=0.0,
                                  ),

                    MONO_ISOT1=_F(R_0=1.E11,
                                  Q=0.,
                                  B=0.,
                                  H=0.0,),

                    MONO_CINE1=_F(D=0.,),

                                  );


CHMAT2B=AFFE_MATERIAU(  MAILLAGE=MA,
                       AFFE=_F(  TOUT = 'OUI',
                        MATER = MAT2B
                        ) )

MAT2=DEFI_MATERIAU( MATER=MAT,

                    MONO_VISC1=_F(N=10.0,
                                  K=100.,
                                  C=0.0,
                                  ),

                    MONO_ISOT1=_F(R_0=1.E10,
                                  Q=0.,
                                  B=1.,
                                  H=0.0,),

                    MONO_CINE1=_F(D=0.,),

                                  );


CHMAT2=AFFE_MATERIAU(  MAILLAGE=MA,
                       AFFE=_F(  TOUT = 'OUI',
                        MATER = MAT2
                        ) )

COMPOR2=DEFI_COMPOR(MONOCRISTAL=(_F(
                                    MATER=MAT2,
                                    ECOULEMENT='MONO_VISC1',
                                    ECRO_ISOT='MONO_ISOT1',
                                    ECRO_CINE='MONO_CINE1',
                                    ELAS='ELAS_ORTH',
                                    FAMI_SYST_GLIS='UNIAXIAL',
                                    ),),);
RESUMM0=STAT_NON_LINE(MODELE=MO,
                     CHAM_MATER=CHMAT2,
                     EXCIT=_F(CHARGE=CH,
                               FONC_MULT=COEF,
                     ),
                     COMP_INCR=(_F(RELATION='MONOCRISTAL',
                                   COMPOR=COMPOR2,
                                   TOUT='OUI',),),
                     INCREMENT=(_F(LIST_INST=LINST,),),
                                     );

RESUMM0=CALC_CHAMP(reuse=RESUMM0,RESULTAT=RESUMM0,CONTRAINTE=('SIGM_ELNO'))


#
#---------------------------------------------------------------------

TEST_RESU(RESU=(_F(NUME_ORDRE=1,
                   REFERENCE='ANALYTIQUE',
                   RESULTAT=RESUMM0,
                   NOM_CHAM='DEPL',
                   NOEUD='N53',
                   NOM_CMP='DX',
                   VALE_CALC=-1.5882437232E-25,
                   VALE_REFE=0.0,
                   TOLE_MACHINE=1.E-10,
                   CRITERE='ABSOLU',
                   PRECISION=1.E-10,),
                _F(NUME_ORDRE=1,
                   REFERENCE='ANALYTIQUE',
                   RESULTAT=RESUMM0,
                   NOM_CHAM='DEPL',
                   NOEUD='N53',
                   NOM_CMP='DY',
                   VALE_CALC= 2.8335614997E-24,
                   VALE_REFE=0.0,
                   TOLE_MACHINE=1.E-10,
                   CRITERE='ABSOLU',
                   PRECISION=1.E-10,),
                _F(NUME_ORDRE=1,
                   REFERENCE='ANALYTIQUE',
                   RESULTAT=RESUMM0,
                   NOM_CHAM='DEPL',
                   NOEUD='N53',
                   NOM_CMP='DZ',
                   VALE_CALC=-1.72167447E-06,
                   VALE_REFE=-1.721655E-06,
                   CRITERE='RELATIF',
                   PRECISION=1.E-3,),
                _F(NUME_ORDRE=1,
                   REFERENCE='ANALYTIQUE',
                   RESULTAT=RESUMM0,
                   NOM_CHAM='DEPL',
                   NOEUD='N12',
                   NOM_CMP='DX',
                   VALE_CALC=-1.9588081195E-14,
                   VALE_REFE=0.0,
                   TOLE_MACHINE=1.E-10,
                   CRITERE='ABSOLU',
                   PRECISION=1.E-10,),
                _F(NUME_ORDRE=1,
                   REFERENCE='ANALYTIQUE',
                   RESULTAT=RESUMM0,
                   NOM_CHAM='DEPL',
                   NOEUD='N12',
                   NOM_CMP='DY',
                   VALE_CALC=-3.7307019613E-21,
                   VALE_REFE=0.0,
                   TOLE_MACHINE=1.E-10,
                   CRITERE='ABSOLU',
                   PRECISION=1.E-10,),
                _F(NUME_ORDRE=1,
                   REFERENCE='ANALYTIQUE',
                   RESULTAT=RESUMM0,
                   NOM_CHAM='DEPL',
                   NOEUD='N12',
                   NOM_CMP='DZ',
                   VALE_CALC=-1.71593549E-06,
                   VALE_REFE=-1.715916E-06,
                   CRITERE='RELATIF',
                   PRECISION=1.E-3,),
                _F(NUME_ORDRE=1,
                   REFERENCE='ANALYTIQUE',
                   RESULTAT=RESUMM0,
                   NOM_CHAM='DEPL',
                   NOEUD='N18',
                   NOM_CMP='DX',
                   VALE_CALC=-6.88652823E-08,
                   VALE_REFE=-6.88662E-08,
                   CRITERE='RELATIF',
                   PRECISION=1.E-3,),
                _F(NUME_ORDRE=1,
                   REFERENCE='ANALYTIQUE',
                   RESULTAT=RESUMM0,
                   NOM_CHAM='DEPL',
                   NOEUD='N18',
                   NOM_CMP='DY',
                   VALE_CALC= 2.1725134623E-24,
                   VALE_REFE=0.0,
                   TOLE_MACHINE=1.E-10,
                   CRITERE='ABSOLU',
                   PRECISION=1.E-10,),
                _F(NUME_ORDRE=1,
                   REFERENCE='ANALYTIQUE',
                   RESULTAT=RESUMM0,
                   NOM_CHAM='DEPL',
                   NOEUD='N18',
                   NOM_CMP='DZ',
                   VALE_CALC= 5.71471026E-09,
                   VALE_REFE=5.7388500000000003E-09,
                   CRITERE='RELATIF',
                   PRECISION=7.0000000000000001E-3,),
                _F(NUME_ORDRE=1,
                   REFERENCE='ANALYTIQUE',
                   RESULTAT=RESUMM0,
                   NOM_CHAM='DEPL',
                   NOEUD='N56',
                   NOM_CMP='DX',
                   VALE_CALC=-2.3497099275E-23,
                   VALE_REFE=0.0,
                   TOLE_MACHINE=1.E-10,
                   CRITERE='ABSOLU',
                   PRECISION=1.E-10,),
                _F(NUME_ORDRE=1,
                   REFERENCE='ANALYTIQUE',
                   RESULTAT=RESUMM0,
                   NOM_CHAM='DEPL',
                   NOEUD='N56',
                   NOM_CMP='DY',
                   VALE_CALC= 2.8951321439E-23,
                   VALE_REFE=0.0,
                   TOLE_MACHINE=1.E-10,
                   CRITERE='ABSOLU',
                   PRECISION=1.E-10,),
                _F(NUME_ORDRE=1,
                   REFERENCE='ANALYTIQUE',
                   RESULTAT=RESUMM0,
                   NOM_CHAM='DEPL',
                   NOEUD='N56',
                   NOM_CMP='DZ',
                   VALE_CALC=-1.29126100E-06,
                   VALE_REFE=-1.2912412499999999E-06,
                   CRITERE='RELATIF',
                   PRECISION=1.E-3,),
                _F(NUME_ORDRE=1,
                   REFERENCE='ANALYTIQUE',
                   RESULTAT=RESUMM0,
                   NOM_CHAM='DEPL',
                   NOEUD='N70',
                   NOM_CMP='DX',
                   VALE_CALC= 1.4194419311E-21,
                   VALE_REFE=0.0,
                   TOLE_MACHINE=1.E-10,
                   CRITERE='ABSOLU',
                   PRECISION=1.E-10,),
                _F(NUME_ORDRE=1,
                   REFERENCE='ANALYTIQUE',
                   RESULTAT=RESUMM0,
                   NOM_CHAM='DEPL',
                   NOEUD='N70',
                   NOM_CMP='DY',
                   VALE_CALC=-2.2954205249E-08,
                   VALE_REFE=-2.2955400000000001E-08,
                   TOLE_MACHINE=1.E-10,
                   CRITERE='ABSOLU',
                   PRECISION=1.E-10,),
                _F(NUME_ORDRE=1,
                   REFERENCE='ANALYTIQUE',
                   RESULTAT=RESUMM0,
                   NOM_CHAM='DEPL',
                   NOEUD='N70',
                   NOM_CMP='DZ',
                   VALE_CALC= 1.88875351E-09,
                   VALE_REFE=1.9129500000000001E-09,
                   CRITERE='RELATIF',
                   PRECISION=0.02,),
                _F(NUME_ORDRE=1,
                   REFERENCE='ANALYTIQUE',
                   RESULTAT=RESUMM0,
                   NOM_CHAM='SIGM_ELNO',
                   NOEUD='N59',
                   NOM_CMP='SIZZ',
                   VALE_CALC= 2.29561799E+05,
                   VALE_REFE=2.29554E5,
                   CRITERE='RELATIF',
                   PRECISION=1.E-3,
                   MAILLE='HEX3',),
                _F(NUME_ORDRE=1,
                   REFERENCE='ANALYTIQUE',
                   RESULTAT=RESUMM0,
                   NOM_CHAM='SIGM_ELNO',
                   NOEUD='N56',
                   NOM_CMP='SIZZ',
                   VALE_CALC= 1.14777072E+05,
                   VALE_REFE=1.14777E5,
                   CRITERE='RELATIF',
                   PRECISION=1.E-3,
                   MAILLE='HEX2',),
                _F(NUME_ORDRE=1,
                   REFERENCE='ANALYTIQUE',
                   RESULTAT=RESUMM0,
                   NOM_CHAM='SIGM_ELNO',
                   NOEUD='N70',
                   NOM_CMP='SIZZ',
                   VALE_CALC= 2.29550070E+05,
                   VALE_REFE=2.29554E5,
                   CRITERE='RELATIF',
                   PRECISION=1.E-3,
                   MAILLE='HEX6',),
                ),
          )

#################################################################
# angles differenets de zero : test de non regressison et inter_comparaison.
# meca_statique
#################################################################



DEFI_GROUP( reuse=MA,MAILLAGE=MA,
  CREA_GROUP_MA=_F(  NOM = 'TOUT', TOUT = 'OUI'))


ORIEN=AFFE_CARA_ELEM(MODELE=MO,
                     MASSIF=_F(GROUP_MA='TOUT',
                               ANGL_REP=(30.0,50.0,70.0,),),);


RESUEL1=MECA_STATIQUE(MODELE=MO,
                    CARA_ELEM=ORIEN,
                   CHAM_MATER=CHMAT,
                   EXCIT=_F(CHARGE=CH,),
                   );

RESUEL1=CALC_CHAMP(reuse=RESUEL1,RESULTAT=RESUEL1,CONTRAINTE=('SIGM_ELNO'))


#
#---------------------------------------------------------------------

TEST_RESU(RESU=(_F(NUME_ORDRE=1,
                   RESULTAT=RESUEL1,
                   NOM_CHAM='DEPL',
                   NOEUD='N53',
                   NOM_CMP='DX',
                   VALE_CALC=0.0,
                   CRITERE='ABSOLU',
                   ),
                _F(NUME_ORDRE=1,
                   RESULTAT=RESUEL1,
                   NOM_CHAM='DEPL',
                   NOEUD='N53',
                   NOM_CMP='DY',
                   VALE_CALC=0.0,
                   CRITERE='ABSOLU',
                   ),
                _F(NUME_ORDRE=1,
                   RESULTAT=RESUEL1,
                   NOM_CHAM='DEPL',
                   NOEUD='N53',
                   NOM_CMP='DZ',
                   VALE_CALC=-1.45348E-06,
                   TOLE_MACHINE=1.E-3,),
                _F(NUME_ORDRE=1,
                   RESULTAT=RESUEL1,
                   NOM_CHAM='DEPL',
                   NOEUD='N12',
                   NOM_CMP='DX',
                   VALE_CALC=2.1298815999999999E-08,
                   TOLE_MACHINE=1.E-3,),
                _F(NUME_ORDRE=1,
                   RESULTAT=RESUEL1,
                   NOM_CHAM='DEPL',
                   NOEUD='N12',
                   NOM_CMP='DY',
                   VALE_CALC=9.0016975999999997E-08,
                   TOLE_MACHINE=1.E-3,),
                _F(NUME_ORDRE=1,
                   RESULTAT=RESUEL1,
                   NOM_CHAM='DEPL',
                   NOEUD='N12',
                   NOM_CMP='DZ',
                   VALE_CALC=-1.4039682000000001E-06,
                   TOLE_MACHINE=1.E-3,),
                _F(NUME_ORDRE=1,
                   RESULTAT=RESUEL1,
                   NOM_CHAM='DEPL',
                   NOEUD='N18',
                   NOM_CMP='DX',
                   VALE_CALC=-1.4805413999999999E-07,
                   TOLE_MACHINE=1.E-3,),
                _F(NUME_ORDRE=1,
                   RESULTAT=RESUEL1,
                   NOM_CHAM='DEPL',
                   NOEUD='N18',
                   NOM_CMP='DY',
                   VALE_CALC=0.0,
                   CRITERE='ABSOLU',
                   ),
                _F(NUME_ORDRE=1,
                   RESULTAT=RESUEL1,
                   NOM_CHAM='DEPL',
                   NOEUD='N18',
                   NOM_CMP='DZ',
                   VALE_CALC=1.226902688E-07,
                   TOLE_MACHINE=1.E-3,),
                _F(NUME_ORDRE=1,
                   RESULTAT=RESUEL1,
                   NOM_CHAM='DEPL',
                   NOEUD='N56',
                   NOM_CMP='DX',
                   VALE_CALC=0.0,
                   CRITERE='ABSOLU',
                   ),
                _F(NUME_ORDRE=1,
                   RESULTAT=RESUEL1,
                   NOM_CHAM='DEPL',
                   NOEUD='N56',
                   NOM_CMP='DY',
                   VALE_CALC=0.0,
                   CRITERE='ABSOLU',
                   ),
                _F(NUME_ORDRE=1,
                   RESULTAT=RESUEL1,
                   NOM_CHAM='DEPL',
                   NOEUD='N56',
                   NOM_CMP='DZ',
                   VALE_CALC=-1.0881888E-06,
                   TOLE_MACHINE=1.E-3,
                   CRITERE='RELATIF',
                   ),
                _F(NUME_ORDRE=1,
                   RESULTAT=RESUEL1,
                   NOM_CHAM='DEPL',
                   NOEUD='N70',
                   NOM_CMP='DX',
                   VALE_CALC=-1.5456629E-07,
                   TOLE_MACHINE=1.E-3,),
                _F(NUME_ORDRE=1,
                   RESULTAT=RESUEL1,
                   NOM_CHAM='DEPL',
                   NOEUD='N70',
                   NOM_CMP='DY',
                   VALE_CALC=-1.46741969E-07,
                   TOLE_MACHINE=1.E-3,),
                _F(NUME_ORDRE=1,
                   RESULTAT=RESUEL1,
                   NOM_CHAM='DEPL',
                   NOEUD='N70',
                   NOM_CMP='DZ',
                   VALE_CALC=2.4514131399999999E-08,
                   TOLE_MACHINE=1.E-3,),
                _F(NUME_ORDRE=1,
                   RESULTAT=RESUEL1,
                   NOM_CHAM='SIGM_ELNO',
                   NOEUD='N59',
                   NOM_CMP='SIZZ',
                   VALE_CALC=2.3189837737999999E5,
                   TOLE_MACHINE=1.E-3,
                   CRITERE='RELATIF',
                   MAILLE='HEX3',),
                _F(NUME_ORDRE=1,
                   RESULTAT=RESUEL1,
                   NOM_CHAM='SIGM_ELNO',
                   NOEUD='N56',
                   NOM_CMP='SIZZ',
                   VALE_CALC=1.143306879E5,
                   TOLE_MACHINE=1.E-3,
                   CRITERE='RELATIF',
                   MAILLE='HEX2',),
                _F(NUME_ORDRE=1,
                   RESULTAT=RESUEL1,
                   NOM_CHAM='SIGM_ELNO',
                   NOEUD='N70',
                   NOM_CMP='SIZZ',
                   VALE_CALC=2.2569820000000001E5,
                   TOLE_MACHINE=1.E-3,
                   CRITERE='RELATIF',
                   MAILLE='HEX6',),
                ),
          )

#################################################################
# angles differenets de zero : test de non regressison et inter_comparaison.
# stat_non_line ELAS, angle 1
#################################################################



RESUNL1=STAT_NON_LINE(MODELE=MO,
                     CHAM_MATER=CHMAT,
                    CARA_ELEM=ORIEN,
                     EXCIT=_F(CHARGE=CH,
                               FONC_MULT=COEF,
                     ),
                     COMP_INCR=(_F(RELATION='ELAS',
                                   TOUT='OUI',),),
                     INCREMENT=(_F(LIST_INST=LINST,),),
                                     );

RESUNL1=CALC_CHAMP(reuse=RESUNL1,RESULTAT=RESUNL1,CONTRAINTE=('SIGM_ELNO'))


#
#---------------------------------------------------------------------

TEST_RESU(RESU=(_F(NUME_ORDRE=1,
                   REFERENCE='AUTRE_ASTER',
                   RESULTAT=RESUNL1,
                   NOM_CHAM='DEPL',
                   NOEUD='N53',
                   NOM_CMP='DX',
                   VALE_CALC=-2.8951321439E-24,
                   VALE_REFE=0.0,
                   TOLE_MACHINE=1.E-10,
                   CRITERE='ABSOLU',
                   PRECISION=1.E-10,),
                _F(NUME_ORDRE=1,
                   REFERENCE='AUTRE_ASTER',
                   RESULTAT=RESUNL1,
                   NOM_CHAM='DEPL',
                   NOEUD='N53',
                   NOM_CMP='DY',
                   VALE_CALC=-8.0650109724E-24,
                   VALE_REFE=0.0,
                   TOLE_MACHINE=1.E-10,
                   CRITERE='ABSOLU',
                   PRECISION=1.E-10,),
                _F(NUME_ORDRE=1,
                   REFERENCE='AUTRE_ASTER',
                   RESULTAT=RESUNL1,
                   NOM_CHAM='DEPL',
                   NOEUD='N53',
                   NOM_CMP='DZ',
                   VALE_CALC=-1.45347989E-06,
                   VALE_REFE=-1.45348E-06,),
                _F(NUME_ORDRE=1,
                   REFERENCE='AUTRE_ASTER',
                   RESULTAT=RESUNL1,
                   NOM_CHAM='DEPL',
                   NOEUD='N12',
                   NOM_CMP='DX',
                   VALE_CALC= 2.12988161E-08,
                   VALE_REFE=2.1298815999999999E-08,),
                _F(NUME_ORDRE=1,
                   REFERENCE='AUTRE_ASTER',
                   RESULTAT=RESUNL1,
                   NOM_CHAM='DEPL',
                   NOEUD='N12',
                   NOM_CMP='DY',
                   VALE_CALC= 9.00169760E-08,
                   VALE_REFE=9.0016975999999997E-08,),
                _F(NUME_ORDRE=1,
                   REFERENCE='AUTRE_ASTER',
                   RESULTAT=RESUNL1,
                   NOM_CHAM='DEPL',
                   NOEUD='N12',
                   NOM_CMP='DZ',
                   VALE_CALC=-1.40396822E-06,
                   VALE_REFE=-1.4039682000000001E-06,),
                _F(NUME_ORDRE=1,
                   REFERENCE='AUTRE_ASTER',
                   RESULTAT=RESUNL1,
                   NOM_CHAM='DEPL',
                   NOEUD='N18',
                   NOM_CMP='DX',
                   VALE_CALC=-1.48054140E-07,
                   VALE_REFE=-1.4805413999999999E-07,),
                _F(NUME_ORDRE=1,
                   REFERENCE='AUTRE_ASTER',
                   RESULTAT=RESUNL1,
                   NOM_CHAM='DEPL',
                   NOEUD='N18',
                   NOM_CMP='DY',
                   VALE_CALC= 8.2718061255E-25,
                   VALE_REFE=0.0,
                   TOLE_MACHINE=1.E-10,
                   CRITERE='ABSOLU',
                   PRECISION=1.E-10,),
                _F(NUME_ORDRE=1,
                   REFERENCE='AUTRE_ASTER',
                   RESULTAT=RESUNL1,
                   NOM_CHAM='DEPL',
                   NOEUD='N18',
                   NOM_CMP='DZ',
                   VALE_CALC= 1.22690269E-07,
                   VALE_REFE=1.226902688E-07,),
                _F(NUME_ORDRE=1,
                   REFERENCE='AUTRE_ASTER',
                   RESULTAT=RESUNL1,
                   NOM_CHAM='DEPL',
                   NOEUD='N56',
                   NOM_CMP='DX',
                   VALE_CALC=-2.0769988193E-23,
                   VALE_REFE=0.0,
                   TOLE_MACHINE=1.E-10,
                   CRITERE='ABSOLU',
                   PRECISION=1.E-10,),
                _F(NUME_ORDRE=1,
                   REFERENCE='AUTRE_ASTER',
                   RESULTAT=RESUNL1,
                   NOM_CHAM='DEPL',
                   NOEUD='N56',
                   NOM_CMP='DY',
                   VALE_CALC=-4.8390065834E-23,
                   VALE_REFE=0.0,
                   TOLE_MACHINE=1.E-10,
                   CRITERE='ABSOLU',
                   PRECISION=1.E-10,),
                _F(NUME_ORDRE=1,
                   REFERENCE='AUTRE_ASTER',
                   RESULTAT=RESUNL1,
                   NOM_CHAM='DEPL',
                   NOEUD='N56',
                   NOM_CMP='DZ',
                   VALE_CALC=-1.08818880E-06,
                   VALE_REFE=-1.0881888E-06,
                   CRITERE='RELATIF',
                   PRECISION=1.E-3,),
                _F(NUME_ORDRE=1,
                   REFERENCE='AUTRE_ASTER',
                   RESULTAT=RESUNL1,
                   NOM_CHAM='DEPL',
                   NOEUD='N70',
                   NOM_CMP='DX',
                   VALE_CALC=-1.54566292E-07,
                   VALE_REFE=-1.5456629E-07,),
                _F(NUME_ORDRE=1,
                   REFERENCE='AUTRE_ASTER',
                   RESULTAT=RESUNL1,
                   NOM_CHAM='DEPL',
                   NOEUD='N70',
                   NOM_CMP='DY',
                   VALE_CALC=-1.46741969E-07,
                   VALE_REFE=-1.46741969E-07,),
                _F(NUME_ORDRE=1,
                   REFERENCE='AUTRE_ASTER',
                   RESULTAT=RESUNL1,
                   NOM_CHAM='DEPL',
                   NOEUD='N70',
                   NOM_CMP='DZ',
                   VALE_CALC= 2.45141314E-08,
                   VALE_REFE=2.4514131399999999E-08,),
                _F(NUME_ORDRE=1,
                   REFERENCE='AUTRE_ASTER',
                   RESULTAT=RESUNL1,
                   NOM_CHAM='SIGM_ELNO',
                   NOEUD='N59',
                   NOM_CMP='SIZZ',
                   VALE_CALC= 2.31898377E+05,
                   VALE_REFE=2.3189837737999999E5,
                   CRITERE='RELATIF',
                   PRECISION=1.E-3,
                   MAILLE='HEX3',),
                _F(NUME_ORDRE=1,
                   REFERENCE='AUTRE_ASTER',
                   RESULTAT=RESUNL1,
                   NOM_CHAM='SIGM_ELNO',
                   NOEUD='N56',
                   NOM_CMP='SIZZ',
                   VALE_CALC= 1.14330688E+05,
                   VALE_REFE=1.143306879E5,
                   CRITERE='RELATIF',
                   PRECISION=1.E-3,
                   MAILLE='HEX2',),
                _F(NUME_ORDRE=1,
                   REFERENCE='AUTRE_ASTER',
                   RESULTAT=RESUNL1,
                   NOM_CHAM='SIGM_ELNO',
                   NOEUD='N70',
                   NOM_CMP='SIZZ',
                   VALE_CALC= 2.25698201E+05,
                   VALE_REFE=2.2569820000000001E5,
                   CRITERE='RELATIF',
                   PRECISION=1.E-3,
                   MAILLE='HEX6',),
                ),
          )

#################################################################
# angles differenets de zero : test de non regressison et inter_comparaison.
# stat_non_line MONOCRISTAL , angle 1
#################################################################


RESUMI1=STAT_NON_LINE(MODELE=MO,
                     CHAM_MATER=CHMAT2,
                    CARA_ELEM=ORIEN,
                     EXCIT=_F(CHARGE=CH,
                               FONC_MULT=COEF,
                     ),
                     COMP_INCR=(_F(RELATION='MONOCRISTAL',
                                   COMPOR=COMPOR2,
                                   DEFORMATION='PETIT',
                                   RESI_INTE_RELA=1e-06,
                                   ITER_INTE_MAXI=10,
                                   ITER_INTE_PAS=-10,
                                   ALGO_INTE='NEWTON',
                                   TOUT='OUI',),),
                     INCREMENT=(_F(LIST_INST=LINST,),),
                     NEWTON=_F(
                               MATRICE='ELASTIQUE',
                               ),
                     ARCHIVAGE=_F(LIST_INST=LINST,),
                     CONVERGENCE=_F(RESI_GLOB_RELA=1e-06,
                                     ),
                                     );

RESUMI1=CALC_CHAMP(reuse=RESUMI1,RESULTAT=RESUMI1,CONTRAINTE=('SIGM_ELNO'))


#
#---------------------------------------------------------------------

TEST_RESU(RESU=(_F(NUME_ORDRE=1,
                   REFERENCE='AUTRE_ASTER',
                   RESULTAT=RESUMI1,
                   NOM_CHAM='DEPL',
                   NOEUD='N53',
                   NOM_CMP='DX',
                   VALE_CALC=-1.1477130999E-23,
                   VALE_REFE=0.0,
                   TOLE_MACHINE=1.E-10,
                   CRITERE='ABSOLU',
                   PRECISION=1.E-10,),
                _F(NUME_ORDRE=1,
                   REFERENCE='AUTRE_ASTER',
                   RESULTAT=RESUMI1,
                   NOM_CHAM='DEPL',
                   NOEUD='N53',
                   NOM_CMP='DY',
                   VALE_CALC=-8.8921915849E-24,
                   VALE_REFE=0.0,
                   TOLE_MACHINE=1.E-10,
                   CRITERE='ABSOLU',
                   PRECISION=1.E-10,),
                _F(NUME_ORDRE=1,
                   REFERENCE='AUTRE_ASTER',
                   RESULTAT=RESUMI1,
                   NOM_CHAM='DEPL',
                   NOEUD='N53',
                   NOM_CMP='DZ',
                   VALE_CALC=-1.45347989E-06,
                   VALE_REFE=-1.45348E-06,),
                _F(NUME_ORDRE=1,
                   REFERENCE='AUTRE_ASTER',
                   RESULTAT=RESUMI1,
                   NOM_CHAM='DEPL',
                   NOEUD='N12',
                   NOM_CMP='DX',
                   VALE_CALC= 2.12988161E-08,
                   VALE_REFE=2.1298815999999999E-08,),
                _F(NUME_ORDRE=1,
                   REFERENCE='AUTRE_ASTER',
                   RESULTAT=RESUMI1,
                   NOM_CHAM='DEPL',
                   NOEUD='N12',
                   NOM_CMP='DY',
                   VALE_CALC= 9.00169760E-08,
                   VALE_REFE=9.0016975999999997E-08,),
                _F(NUME_ORDRE=1,
                   REFERENCE='AUTRE_ASTER',
                   RESULTAT=RESUMI1,
                   NOM_CHAM='DEPL',
                   NOEUD='N12',
                   NOM_CMP='DZ',
                   VALE_CALC=-1.40396822E-06,
                   VALE_REFE=-1.4039682000000001E-06,),
                _F(NUME_ORDRE=1,
                   REFERENCE='AUTRE_ASTER',
                   RESULTAT=RESUMI1,
                   NOM_CHAM='DEPL',
                   NOEUD='N18',
                   NOM_CMP='DX',
                   VALE_CALC=-1.48054140E-07,
                   VALE_REFE=-1.4805413999999999E-07,),
                _F(NUME_ORDRE=1,
                   REFERENCE='AUTRE_ASTER',
                   RESULTAT=RESUMI1,
                   NOM_CHAM='DEPL',
                   NOEUD='N18',
                   NOM_CMP='DY',
                   VALE_CALC= 6.6174449004E-24,
                   VALE_REFE=0.0,
                   TOLE_MACHINE=1.E-10,
                   CRITERE='ABSOLU',
                   PRECISION=1.E-10,),
                _F(NUME_ORDRE=1,
                   REFERENCE='AUTRE_ASTER',
                   RESULTAT=RESUMI1,
                   NOM_CHAM='DEPL',
                   NOEUD='N18',
                   NOM_CMP='DZ',
                   VALE_CALC= 1.22690269E-07,
                   VALE_REFE=1.226902688E-07,),
                _F(NUME_ORDRE=1,
                   REFERENCE='AUTRE_ASTER',
                   RESULTAT=RESUMI1,
                   NOM_CHAM='DEPL',
                   NOEUD='N56',
                   NOM_CMP='DX',
                   VALE_CALC=-1.7060600134E-23,
                   VALE_REFE=0.0,
                   TOLE_MACHINE=1.E-10,
                   CRITERE='ABSOLU',
                   PRECISION=1.E-10,),
                _F(NUME_ORDRE=1,
                   REFERENCE='AUTRE_ASTER',
                   RESULTAT=RESUMI1,
                   NOM_CHAM='DEPL',
                   NOEUD='N56',
                   NOM_CMP='DY',
                   VALE_CALC=-6.0384184716E-23,
                   VALE_REFE=0.0,
                   TOLE_MACHINE=1.E-10,
                   CRITERE='ABSOLU',
                   PRECISION=1.E-10,),
                _F(NUME_ORDRE=1,
                   REFERENCE='AUTRE_ASTER',
                   RESULTAT=RESUMI1,
                   NOM_CHAM='DEPL',
                   NOEUD='N56',
                   NOM_CMP='DZ',
                   VALE_CALC=-1.08818880E-06,
                   VALE_REFE=-1.0881888E-06,
                   CRITERE='RELATIF',
                   PRECISION=1.E-3,),
                _F(NUME_ORDRE=1,
                   REFERENCE='AUTRE_ASTER',
                   RESULTAT=RESUMI1,
                   NOM_CHAM='DEPL',
                   NOEUD='N70',
                   NOM_CMP='DX',
                   VALE_CALC=-1.54566292E-07,
                   VALE_REFE=-1.5456629E-07,),
                _F(NUME_ORDRE=1,
                   REFERENCE='AUTRE_ASTER',
                   RESULTAT=RESUMI1,
                   NOM_CHAM='DEPL',
                   NOEUD='N70',
                   NOM_CMP='DY',
                   VALE_CALC=-1.46741969E-07,
                   VALE_REFE=-1.46741969E-07,),
                _F(NUME_ORDRE=1,
                   REFERENCE='AUTRE_ASTER',
                   RESULTAT=RESUMI1,
                   NOM_CHAM='DEPL',
                   NOEUD='N70',
                   NOM_CMP='DZ',
                   VALE_CALC= 2.45141314E-08,
                   VALE_REFE=2.4514131399999999E-08,),
                _F(NUME_ORDRE=1,
                   REFERENCE='AUTRE_ASTER',
                   RESULTAT=RESUMI1,
                   NOM_CHAM='SIGM_ELNO',
                   NOEUD='N59',
                   NOM_CMP='SIZZ',
                   VALE_CALC= 2.31898377E+05,
                   VALE_REFE=2.3189837737999999E5,
                   CRITERE='RELATIF',
                   PRECISION=1.E-3,
                   MAILLE='HEX3',),
                _F(NUME_ORDRE=1,
                   REFERENCE='AUTRE_ASTER',
                   RESULTAT=RESUMI1,
                   NOM_CHAM='SIGM_ELNO',
                   NOEUD='N56',
                   NOM_CMP='SIZZ',
                   VALE_CALC= 1.14330688E+05,
                   VALE_REFE=1.143306879E5,
                   CRITERE='RELATIF',
                   PRECISION=1.E-3,
                   MAILLE='HEX2',),
                _F(NUME_ORDRE=1,
                   REFERENCE='AUTRE_ASTER',
                   RESULTAT=RESUMI1,
                   NOM_CHAM='SIGM_ELNO',
                   NOEUD='N70',
                   NOM_CMP='SIZZ',
                   VALE_CALC= 2.25698201E+05,
                   VALE_REFE=2.2569820000000001E5,
                   CRITERE='RELATIF',
                   PRECISION=1.E-3,
                   MAILLE='HEX6',),
                ),
          )

#################################################################
# angles differenets de zero : test de non regressison et inter_comparaison.
# stat_non_line MONOCRISTAL EXPLICITE, angle 1
#################################################################



RESUMM1=STAT_NON_LINE(MODELE=MO,
                     CHAM_MATER=CHMAT2,
                    CARA_ELEM=ORIEN,
                     EXCIT=_F(CHARGE=CH,
                               FONC_MULT=COEF,
                     ),
                     COMP_INCR=(_F(RELATION='MONOCRISTAL',
                                   COMPOR=COMPOR2,
                                   ALGO_INTE='RUNGE_KUTTA',
                                   TOUT='OUI',),),
                     INCREMENT=(_F(LIST_INST=LINST,),),
                     NEWTON=_F(
                               MATRICE='ELASTIQUE',
                               ),
                                     );

RESUMM1=CALC_CHAMP(reuse=RESUMM1,RESULTAT=RESUMM1,CONTRAINTE=('SIGM_ELNO'))


#
#---------------------------------------------------------------------

TEST_RESU(RESU=(_F(NUME_ORDRE=1,
                   REFERENCE='AUTRE_ASTER',
                   RESULTAT=RESUMM1,
                   NOM_CHAM='DEPL',
                   NOEUD='N53',
                   NOM_CMP='DX',
                   VALE_CALC=-1.1477130999E-23,
                   VALE_REFE=0.0,
                   TOLE_MACHINE=1.E-10,
                   CRITERE='ABSOLU',
                   PRECISION=1.E-10,),
                _F(NUME_ORDRE=1,
                   REFERENCE='AUTRE_ASTER',
                   RESULTAT=RESUMM1,
                   NOM_CHAM='DEPL',
                   NOEUD='N53',
                   NOM_CMP='DY',
                   VALE_CALC=-8.8921915849E-24,
                   VALE_REFE=0.0,
                   TOLE_MACHINE=1.E-10,
                   CRITERE='ABSOLU',
                   PRECISION=1.E-10,),
                _F(NUME_ORDRE=1,
                   REFERENCE='AUTRE_ASTER',
                   RESULTAT=RESUMM1,
                   NOM_CHAM='DEPL',
                   NOEUD='N53',
                   NOM_CMP='DZ',
                   VALE_CALC=-1.45347989E-06,
                   VALE_REFE=-1.45348E-06,),
                _F(NUME_ORDRE=1,
                   REFERENCE='AUTRE_ASTER',
                   RESULTAT=RESUMM1,
                   NOM_CHAM='DEPL',
                   NOEUD='N12',
                   NOM_CMP='DX',
                   VALE_CALC= 2.12988161E-08,
                   VALE_REFE=2.1298815999999999E-08,),
                _F(NUME_ORDRE=1,
                   REFERENCE='AUTRE_ASTER',
                   RESULTAT=RESUMM1,
                   NOM_CHAM='DEPL',
                   NOEUD='N12',
                   NOM_CMP='DY',
                   VALE_CALC= 9.00169760E-08,
                   VALE_REFE=9.0016975999999997E-08,),
                _F(NUME_ORDRE=1,
                   REFERENCE='AUTRE_ASTER',
                   RESULTAT=RESUMM1,
                   NOM_CHAM='DEPL',
                   NOEUD='N12',
                   NOM_CMP='DZ',
                   VALE_CALC=-1.40396822E-06,
                   VALE_REFE=-1.4039682000000001E-06,),
                _F(NUME_ORDRE=1,
                   REFERENCE='AUTRE_ASTER',
                   RESULTAT=RESUMM1,
                   NOM_CHAM='DEPL',
                   NOEUD='N18',
                   NOM_CMP='DX',
                   VALE_CALC=-1.48054140E-07,
                   VALE_REFE=-1.4805413999999999E-07,),
                _F(NUME_ORDRE=1,
                   REFERENCE='AUTRE_ASTER',
                   RESULTAT=RESUMM1,
                   NOM_CHAM='DEPL',
                   NOEUD='N18',
                   NOM_CMP='DY',
                   VALE_CALC= 6.6174449004E-24,
                   VALE_REFE=0.0,
                   TOLE_MACHINE=1.E-10,
                   CRITERE='ABSOLU',
                   PRECISION=1.E-10,),
                _F(NUME_ORDRE=1,
                   REFERENCE='AUTRE_ASTER',
                   RESULTAT=RESUMM1,
                   NOM_CHAM='DEPL',
                   NOEUD='N18',
                   NOM_CMP='DZ',
                   VALE_CALC= 1.22690269E-07,
                   VALE_REFE=1.226902688E-07,),
                _F(NUME_ORDRE=1,
                   REFERENCE='AUTRE_ASTER',
                   RESULTAT=RESUMM1,
                   NOM_CHAM='DEPL',
                   NOEUD='N56',
                   NOM_CMP='DX',
                   VALE_CALC=-1.7060600134E-23,
                   VALE_REFE=0.0,
                   TOLE_MACHINE=1.E-10,
                   CRITERE='ABSOLU',
                   PRECISION=1.E-10,),
                _F(NUME_ORDRE=1,
                   REFERENCE='AUTRE_ASTER',
                   RESULTAT=RESUMM1,
                   NOM_CHAM='DEPL',
                   NOEUD='N56',
                   NOM_CMP='DY',
                   VALE_CALC=-6.0384184716E-23,
                   VALE_REFE=0.0,
                   TOLE_MACHINE=1.E-10,
                   CRITERE='ABSOLU',
                   PRECISION=1.E-10,),
                _F(NUME_ORDRE=1,
                   REFERENCE='AUTRE_ASTER',
                   RESULTAT=RESUMM1,
                   NOM_CHAM='DEPL',
                   NOEUD='N56',
                   NOM_CMP='DZ',
                   VALE_CALC=-1.08818880E-06,
                   VALE_REFE=-1.0881888E-06,
                   CRITERE='RELATIF',
                   PRECISION=1.E-3,),
                _F(NUME_ORDRE=1,
                   REFERENCE='AUTRE_ASTER',
                   RESULTAT=RESUMM1,
                   NOM_CHAM='DEPL',
                   NOEUD='N70',
                   NOM_CMP='DX',
                   VALE_CALC=-1.54566292E-07,
                   VALE_REFE=-1.5456629E-07,),
                _F(NUME_ORDRE=1,
                   REFERENCE='AUTRE_ASTER',
                   RESULTAT=RESUMM1,
                   NOM_CHAM='DEPL',
                   NOEUD='N70',
                   NOM_CMP='DY',
                   VALE_CALC=-1.46741969E-07,
                   VALE_REFE=-1.46741969E-07,),
                _F(NUME_ORDRE=1,
                   REFERENCE='AUTRE_ASTER',
                   RESULTAT=RESUMM1,
                   NOM_CHAM='DEPL',
                   NOEUD='N70',
                   NOM_CMP='DZ',
                   VALE_CALC= 2.45141314E-08,
                   VALE_REFE=2.4514131399999999E-08,),
                _F(NUME_ORDRE=1,
                   REFERENCE='AUTRE_ASTER',
                   RESULTAT=RESUMM1,
                   NOM_CHAM='SIGM_ELNO',
                   NOEUD='N59',
                   NOM_CMP='SIZZ',
                   VALE_CALC= 2.31898377E+05,
                   VALE_REFE=2.3189837737999999E5,
                   CRITERE='RELATIF',
                   PRECISION=1.E-3,
                   MAILLE='HEX3',),
                _F(NUME_ORDRE=1,
                   REFERENCE='AUTRE_ASTER',
                   RESULTAT=RESUMM1,
                   NOM_CHAM='SIGM_ELNO',
                   NOEUD='N56',
                   NOM_CMP='SIZZ',
                   VALE_CALC= 1.14330688E+05,
                   VALE_REFE=1.143306879E5,
                   CRITERE='RELATIF',
                   PRECISION=1.E-3,
                   MAILLE='HEX2',),
                _F(NUME_ORDRE=1,
                   REFERENCE='AUTRE_ASTER',
                   RESULTAT=RESUMM1,
                   NOM_CHAM='SIGM_ELNO',
                   NOEUD='N70',
                   NOM_CMP='SIZZ',
                   VALE_CALC= 2.25698201E+05,
                   VALE_REFE=2.2569820000000001E5,
                   CRITERE='RELATIF',
                   PRECISION=1.E-3,
                   MAILLE='HEX6',),
                ),
          )

#################################################################
# angles differents de zero : test de non regression et inter_comparaison.
# stat_non_line POLYCRISTAL 1 PHASE EXPLICITE, angle 1
#################################################################


COMPORP=DEFI_COMPOR(POLYCRISTAL=_F(ANGL_EULER=(0.,0.,0.),
MONOCRISTAL=COMPOR2,FRAC_VOL=1.),
LOCALISATION='BETA',DA=0.,DL=0.)

RESUMP1=STAT_NON_LINE(MODELE=MO,
                     CHAM_MATER=CHMAT2,
                    CARA_ELEM=ORIEN,
                     EXCIT=_F(CHARGE=CH,
                               FONC_MULT=COEF,
                     ),
                     COMP_INCR=(_F(RELATION='POLYCRISTAL',
                                   COMPOR=COMPORP,
                                   ALGO_INTE='RUNGE_KUTTA',
                                   TOUT='OUI',),),
                     INCREMENT=(_F(LIST_INST=LINST,),),
                     NEWTON=_F(
                               MATRICE='ELASTIQUE',
                               ),
                                     );

RESUMP1=CALC_CHAMP(reuse=RESUMP1,RESULTAT=RESUMP1,CONTRAINTE=('SIGM_ELNO'))


#
#---------------------------------------------------------------------

TEST_RESU(RESU=(_F(NUME_ORDRE=1,
                   REFERENCE='AUTRE_ASTER',
                   RESULTAT=RESUMP1,
                   NOM_CHAM='DEPL',
                   NOEUD='N53',
                   NOM_CMP='DX',
                   VALE_CALC=-1.1477130999E-23,
                   VALE_REFE=0.0,
                   TOLE_MACHINE=1.E-10,
                   CRITERE='ABSOLU',
                   PRECISION=1.E-10,),
                _F(NUME_ORDRE=1,
                   REFERENCE='AUTRE_ASTER',
                   RESULTAT=RESUMP1,
                   NOM_CHAM='DEPL',
                   NOEUD='N53',
                   NOM_CMP='DY',
                   VALE_CALC=-8.8921915849E-24,
                   VALE_REFE=0.0,
                   TOLE_MACHINE=1.E-10,
                   CRITERE='ABSOLU',
                   PRECISION=1.E-10,),
                _F(NUME_ORDRE=1,
                   REFERENCE='AUTRE_ASTER',
                   RESULTAT=RESUMP1,
                   NOM_CHAM='DEPL',
                   NOEUD='N53',
                   NOM_CMP='DZ',
                   VALE_CALC=-1.45347989E-06,
                   VALE_REFE=-1.45348E-06,),
                _F(NUME_ORDRE=1,
                   REFERENCE='AUTRE_ASTER',
                   RESULTAT=RESUMP1,
                   NOM_CHAM='DEPL',
                   NOEUD='N12',
                   NOM_CMP='DX',
                   VALE_CALC= 2.12988161E-08,
                   VALE_REFE=2.1298815999999999E-08,),
                _F(NUME_ORDRE=1,
                   REFERENCE='AUTRE_ASTER',
                   RESULTAT=RESUMP1,
                   NOM_CHAM='DEPL',
                   NOEUD='N12',
                   NOM_CMP='DY',
                   VALE_CALC= 9.00169760E-08,
                   VALE_REFE=9.0016975999999997E-08,),
                _F(NUME_ORDRE=1,
                   REFERENCE='AUTRE_ASTER',
                   RESULTAT=RESUMP1,
                   NOM_CHAM='DEPL',
                   NOEUD='N12',
                   NOM_CMP='DZ',
                   VALE_CALC=-1.40396822E-06,
                   VALE_REFE=-1.4039682000000001E-06,),
                _F(NUME_ORDRE=1,
                   REFERENCE='AUTRE_ASTER',
                   RESULTAT=RESUMP1,
                   NOM_CHAM='DEPL',
                   NOEUD='N18',
                   NOM_CMP='DX',
                   VALE_CALC=-1.48054140E-07,
                   VALE_REFE=-1.4805413999999999E-07,),
                _F(NUME_ORDRE=1,
                   REFERENCE='AUTRE_ASTER',
                   RESULTAT=RESUMP1,
                   NOM_CHAM='DEPL',
                   NOEUD='N18',
                   NOM_CMP='DY',
                   VALE_CALC= 6.6174449004E-24,
                   VALE_REFE=0.0,
                   TOLE_MACHINE=1.E-10,
                   CRITERE='ABSOLU',
                   PRECISION=1.E-10,),
                _F(NUME_ORDRE=1,
                   REFERENCE='AUTRE_ASTER',
                   RESULTAT=RESUMP1,
                   NOM_CHAM='DEPL',
                   NOEUD='N18',
                   NOM_CMP='DZ',
                   VALE_CALC= 1.22690269E-07,
                   VALE_REFE=1.226902688E-07,),
                _F(NUME_ORDRE=1,
                   REFERENCE='AUTRE_ASTER',
                   RESULTAT=RESUMP1,
                   NOM_CHAM='DEPL',
                   NOEUD='N56',
                   NOM_CMP='DX',
                   VALE_CALC=-1.7060600134E-23,
                   VALE_REFE=0.0,
                   TOLE_MACHINE=1.E-10,
                   CRITERE='ABSOLU',
                   PRECISION=1.E-10,),
                _F(NUME_ORDRE=1,
                   REFERENCE='AUTRE_ASTER',
                   RESULTAT=RESUMP1,
                   NOM_CHAM='DEPL',
                   NOEUD='N56',
                   NOM_CMP='DY',
                   VALE_CALC=-6.0384184716E-23,
                   VALE_REFE=0.0,
                   TOLE_MACHINE=1.E-10,
                   CRITERE='ABSOLU',
                   PRECISION=1.E-10,),
                _F(NUME_ORDRE=1,
                   REFERENCE='AUTRE_ASTER',
                   RESULTAT=RESUMP1,
                   NOM_CHAM='DEPL',
                   NOEUD='N56',
                   NOM_CMP='DZ',
                   VALE_CALC=-1.08818880E-06,
                   VALE_REFE=-1.0881888E-06,
                   CRITERE='RELATIF',
                   PRECISION=1.E-3,),
                _F(NUME_ORDRE=1,
                   REFERENCE='AUTRE_ASTER',
                   RESULTAT=RESUMP1,
                   NOM_CHAM='DEPL',
                   NOEUD='N70',
                   NOM_CMP='DX',
                   VALE_CALC=-1.54566292E-07,
                   VALE_REFE=-1.5456629E-07,),
                _F(NUME_ORDRE=1,
                   REFERENCE='AUTRE_ASTER',
                   RESULTAT=RESUMP1,
                   NOM_CHAM='DEPL',
                   NOEUD='N70',
                   NOM_CMP='DY',
                   VALE_CALC=-1.46741969E-07,
                   VALE_REFE=-1.46741969E-07,),
                _F(NUME_ORDRE=1,
                   REFERENCE='AUTRE_ASTER',
                   RESULTAT=RESUMP1,
                   NOM_CHAM='DEPL',
                   NOEUD='N70',
                   NOM_CMP='DZ',
                   VALE_CALC= 2.45141314E-08,
                   VALE_REFE=2.4514131399999999E-08,),
                _F(NUME_ORDRE=1,
                   REFERENCE='AUTRE_ASTER',
                   RESULTAT=RESUMP1,
                   NOM_CHAM='SIGM_ELNO',
                   NOEUD='N59',
                   NOM_CMP='SIZZ',
                   VALE_CALC= 2.31898377E+05,
                   VALE_REFE=2.3189837737999999E5,
                   CRITERE='RELATIF',
                   PRECISION=1.E-3,
                   MAILLE='HEX3',),
                _F(NUME_ORDRE=1,
                   REFERENCE='AUTRE_ASTER',
                   RESULTAT=RESUMP1,
                   NOM_CHAM='SIGM_ELNO',
                   NOEUD='N56',
                   NOM_CMP='SIZZ',
                   VALE_CALC= 1.14330688E+05,
                   VALE_REFE=1.143306879E5,
                   CRITERE='RELATIF',
                   PRECISION=1.E-3,
                   MAILLE='HEX2',),
                _F(NUME_ORDRE=1,
                   REFERENCE='AUTRE_ASTER',
                   RESULTAT=RESUMP1,
                   NOM_CHAM='SIGM_ELNO',
                   NOEUD='N70',
                   NOM_CMP='SIZZ',
                   VALE_CALC= 2.25698201E+05,
                   VALE_REFE=2.2569820000000001E5,
                   CRITERE='RELATIF',
                   PRECISION=1.E-3,
                   MAILLE='HEX6',),
                ),
          )

FIN()
#
