# MODIF  DATE 17/07/2007   AUTEUR PELLET J.PELLET 
# TITRE CYLINDRE EN C.P. (TRIA3 QUAD4)
#            CONFIGURATION MANAGEMENT OF EDF VERSION
# ======================================================================
# COPYRIGHT (C) 1991 - 2001  EDF R&D                  WWW.CODE-ASTER.ORG
# THIS PROGRAM IS FREE SOFTWARE; YOU CAN REDISTRIBUTE IT AND/OR MODIFY
# IT UNDER THE TERMS OF THE GNU GENERAL PUBLIC LICENSE AS PUBLISHED BY
# THE FREE SOFTWARE FOUNDATION; EITHER VERSION 2 OF THE LICENSE, OR
# (AT YOUR OPTION) ANY LATER VERSION.
#
# THIS PROGRAM IS DISTRIBUTED IN THE HOPE THAT IT WILL BE USEFUL, BUT
# WITHOUT ANY WARRANTY; WITHOUT EVEN THE IMPLIED WARRANTY OF
# MERCHANTABILITY OR FITNESS FOR A PARTICULAR PURPOSE. SEE THE GNU
# GENERAL PUBLIC LICENSE FOR MORE DETAILS.
#
# YOU SHOULD HAVE RECEIVED A COPY OF THE GNU GENERAL PUBLIC LICENSE
# ALONG WITH THIS PROGRAM; IF NOT, WRITE TO EDF R&D CODE_ASTER,
#    1 AVENUE DU GENERAL DE GAULLE, 92141 CLAMART CEDEX, FRANCE.
# ======================================================================
#CAS_TEST__: SSLV04E
#
# ----------------------------------------------------------------------
# SSLV04 E                  COMMANDES
# CYLINDRE CREUX EN CONTRAINTES PLANES
#
# MODELISATION : ELEMENTS MECANIQUE C_PLAN (TRIA3 QUAD4)
# MAILLAGE     : GIBI > ASTER
# ----------------------------------------------------------------------
# GROUPES DE NOEUDS ET MAILLES: A B C D E F
#             BORDAB=AB     FACEEF=FE     FACEAE=AE
# ----------------------------------------------------------------------
#

DEBUT(CODE=_F(NOM='SSLV04E', NIV_PUB_WEB='INTERNET'), DEBUG=_F(SDVERI='OUI'))

PRE_GIBI()

M0=LIRE_MAILLAGE()

M=CREA_MAILLAGE( MAILLAGE=M0,
                 MODI_MAILLE=_F( OPTION = 'QUAD_TRIA3',
                                 GROUP_MA = 'S2', ),
               )
DEFI_GROUP(reuse=M,       MAILLAGE=M,
                  CREA_GROUP_NO=_F( NOM = 'DIRI', GROUP_MA = 'AB'))

MO=AFFE_MODELE(            MAILLAGE=M,
                                   VERIF='MAILLE',
                                  AFFE=_F(  TOUT = 'OUI',
                                         PHENOMENE = 'MECANIQUE',
                                         MODELISATION = 'C_PLAN'))

MA=DEFI_MATERIAU(            ELAS=_F(  E = 200000.,
                                         NU = 0.3,
                                         ALPHA = 0.) )

CM=AFFE_MATERIAU(        MAILLAGE=M,
                                  AFFE=_F(  TOUT = 'OUI',
                                         MATER = MA))

CH=AFFE_CHAR_MECA(         MODELE=MO,
                              DDL_IMPO=_F(  GROUP_NO = 'DIRI',  DY = 0.),
                             FACE_IMPO=_F(  GROUP_MA = 'FE',  DNOR = 0.),
                              PRES_REP=_F(  GROUP_MA = 'AE',  PRES = 60.))


nor_DNOR = CREA_CHAMP( TYPE_CHAM = 'NOEU_GEOM_R',
                      OPERATION = 'NORMALE',
                      MODELE    = MO,
                      GROUP_MA  = 'FE'     );

IMPR_RESU( RESU=_F( CHAM_GD= nor_DNOR ), );

TEST_RESU(CHAM_NO=(
           _F( CHAM_GD = nor_DNOR, REFERENCE = 'ANALYTIQUE',
               GROUP_NO = 'E',    VALE = -0.707 ,   NOM_CMP = 'X'),
           _F( CHAM_GD = nor_DNOR, REFERENCE = 'ANALYTIQUE',
               GROUP_NO = 'E',    VALE =  0.707 ,   NOM_CMP = 'Y'),
           _F( CHAM_GD = nor_DNOR, REFERENCE = 'ANALYTIQUE',
               GROUP_NO = 'F',    VALE = -0.707 ,   NOM_CMP = 'X'),
           _F( CHAM_GD = nor_DNOR, REFERENCE = 'ANALYTIQUE',
               GROUP_NO = 'F',    VALE =  0.707 ,   NOM_CMP = 'Y'),
                ), ) ;

nor_PRES = CREA_CHAMP( TYPE_CHAM = 'NOEU_GEOM_R',
                      OPERATION = 'NORMALE',
                      MODELE    = MO,
                      GROUP_MA  = 'AE'     );

IMPR_RESU( RESU=_F( CHAM_GD= nor_PRES ), );

TEST_RESU(CHAM_NO=(
           _F( CHAM_GD = nor_PRES, REFERENCE = 'ANALYTIQUE',
               GROUP_NO = 'A',    VALE = -1. ,      NOM_CMP = 'X'),
           _F( CHAM_GD = nor_PRES,   CRITERE = 'ABSOLU',   PRECISION = 1.5E-2,
               GROUP_NO = 'A',    VALE =  0. ,      NOM_CMP = 'Y'),
           _F( CHAM_GD = nor_PRES, REFERENCE = 'ANALYTIQUE',   PRECISION = 1.5E-2,
               GROUP_NO = 'E',    VALE = -0.707 ,   NOM_CMP = 'X'),
           _F( CHAM_GD = nor_PRES, REFERENCE = 'ANALYTIQUE',   PRECISION = 1.5E-2,
               GROUP_NO = 'E',    VALE = -0.707 ,   NOM_CMP = 'Y'),
                ), ) ;

RESU=MECA_STATIQUE(         MODELE=MO,    CHAM_MATER=CM,
                          EXCIT=_F(  CHARGE = CH),
                      )

CALC_ELEM( reuse= RESU ,RESULTAT= RESU ,

                      OPTION=('EPSI_ELNO_DEPL', 'SIGM_ELNO_DEPL',))

CALC_NO( reuse=RESU,                      RESULTAT=RESU,
                     OPTION=('EPSI_NOEU_DEPL', 'SIGM_NOEU_DEPL',))

TEST_RESU(RESU=(
   # DEPLACEMENTS

         _F(    CRITERE = 'RELATIF',   REFERENCE='ANALYTIQUE',   PRECISION = 1.E-2,
         RESULTAT = RESU, NOM_CHAM = 'DEPL',   NUME_ORDRE = 1,
         GROUP_NO = 'A',     NOM_CMP = 'DX',            VALE = 59.E-6),
         _F(    CRITERE = 'ABSOLU',    REFERENCE='ANALYTIQUE',   PRECISION = 1.E-10,
         RESULTAT = RESU, NOM_CHAM = 'DEPL',   NUME_ORDRE = 1,
         GROUP_NO = 'A',     NOM_CMP = 'DY',            VALE = 0.),
         _F(    CRITERE = 'RELATIF',   REFERENCE='ANALYTIQUE',   PRECISION = 1.E-2,
         RESULTAT = RESU, NOM_CHAM = 'DEPL',   NUME_ORDRE = 1,
         GROUP_NO = 'B',     NOM_CMP = 'DX',            VALE = 40.E-6),
         _F(   CRITERE = 'ABSOLU',    REFERENCE='ANALYTIQUE',   PRECISION = 1.E-10,
         RESULTAT = RESU, NOM_CHAM = 'DEPL',   NUME_ORDRE = 1,
         GROUP_NO = 'B',     NOM_CMP = 'DY',            VALE = 0.),
#        ( CHAM_GD : DEPLA  CRITERE:'RELATIF'   PRECISION: 1.E-2
#        GROUP_NO: C     NOM_CMP:'DX'            VALE: 54.5089E-6   )
#        ( CHAM_GD : DEPLA  CRITERE:'RELATIF'   PRECISION: 1.E-2
#        GROUP_NO: C     NOM_CMP:'DY'            VALE: 22.5783E-6   )
         _F(    CRITERE = 'RELATIF',   REFERENCE='ANALYTIQUE',   PRECISION = 1.E-2,
         RESULTAT = RESU, NOM_CHAM = 'DEPL',   NUME_ORDRE = 1,
         GROUP_NO = 'D',     NOM_CMP = 'DX',            VALE = 36.9552E-6),
         _F(   CRITERE = 'RELATIF',   REFERENCE='ANALYTIQUE',   PRECISION = 1.E-2,
         RESULTAT = RESU, NOM_CHAM = 'DEPL',   NUME_ORDRE = 1,
         GROUP_NO = 'D',     NOM_CMP = 'DY',            VALE = 15.3073E-6),
         _F(    CRITERE = 'RELATIF',   REFERENCE='ANALYTIQUE',   PRECISION = 1.E-2,
         RESULTAT = RESU, NOM_CHAM = 'DEPL',   NUME_ORDRE = 1,
         GROUP_NO = 'E',     NOM_CMP = 'DX',            VALE = 41.7193E-6),
         _F(   CRITERE = 'RELATIF',   REFERENCE='ANALYTIQUE',   PRECISION = 1.E-2,
         RESULTAT = RESU, NOM_CHAM = 'DEPL',   NUME_ORDRE = 1,
         GROUP_NO = 'E',     NOM_CMP = 'DY',            VALE = 41.7193E-6),
         _F(    CRITERE = 'RELATIF',   REFERENCE='ANALYTIQUE',   PRECISION = 1.E-2,
         RESULTAT = RESU, NOM_CHAM = 'DEPL',   NUME_ORDRE = 1,
         GROUP_NO = 'F',     NOM_CMP = 'DX',            VALE = 28.2843E-6),
         _F(    CRITERE = 'RELATIF',   REFERENCE='ANALYTIQUE',   PRECISION = 1.E-2,
         RESULTAT = RESU, NOM_CHAM = 'DEPL',   NUME_ORDRE = 1,
         GROUP_NO = 'F',     NOM_CMP = 'DY',            VALE = 28.2843E-6))
           )

#-----------------------------------------------------------------

TEST_RESU(RESU=(

    # DEFORMATIONS


           _F(        CRITERE = 'RELATIF',    REFERENCE='ANALYTIQUE',   PRECISION = 1.E-2,
 RESULTAT = RESU, NOM_CHAM = 'EPSI_NOEU_DEPL',   NUME_ORDRE = 1,
 GROUP_NO = 'A',    VALE = -4.5E-4,      NOM_CMP = 'EPXX'),
           _F(     CRITERE = 'RELATIF',    REFERENCE='ANALYTIQUE',   PRECISION = 1.E-2,
 RESULTAT = RESU, NOM_CHAM = 'EPSI_NOEU_DEPL',   NUME_ORDRE = 1,
 GROUP_NO = 'A',         NOM_CMP = 'EPYY',       VALE = 5.9E-4),
           _F(     CRITERE = 'ABSOLU',     REFERENCE='ANALYTIQUE',   PRECISION = 1.E-4,
 RESULTAT = RESU, NOM_CHAM = 'EPSI_NOEU_DEPL',   NUME_ORDRE = 1,
 GROUP_NO = 'A',         NOM_CMP = 'EPZZ',       VALE = 0.),
           _F(     CRITERE = 'ABSOLU',     REFERENCE='ANALYTIQUE',   PRECISION = 1.E-4,
 RESULTAT = RESU, NOM_CHAM = 'EPSI_NOEU_DEPL',   NUME_ORDRE = 1,
 GROUP_NO = 'A',         NOM_CMP = 'EPXY',       VALE = 0.))
           )

#-----------------------------------------------------------------

TEST_RESU(RESU=(


           _F(   CRITERE = 'RELATIF',    REFERENCE='ANALYTIQUE',   PRECISION = 0.12,
 RESULTAT = RESU, NOM_CHAM = 'EPSI_NOEU_DEPL',   NUME_ORDRE = 1,
 GROUP_NO = 'B',     NOM_CMP = 'EPXX',       VALE = -0.6E-4),
           _F(   CRITERE = 'RELATIF',    REFERENCE='ANALYTIQUE',   PRECISION = 1.E-2,
 RESULTAT = RESU, NOM_CHAM = 'EPSI_NOEU_DEPL',   NUME_ORDRE = 1,
 GROUP_NO = 'B',     NOM_CMP = 'EPYY',       VALE = 2.E-4),
           _F(   CRITERE = 'ABSOLU',     REFERENCE='ANALYTIQUE',   PRECISION = 1.E-4,
 RESULTAT = RESU, NOM_CHAM = 'EPSI_NOEU_DEPL',   NUME_ORDRE = 1,
 GROUP_NO = 'B',     NOM_CMP = 'EPZZ',       VALE = 0.),
           _F(   CRITERE = 'ABSOLU',     REFERENCE='ANALYTIQUE',   PRECISION = 1.E-4,
 RESULTAT = RESU, NOM_CHAM = 'EPSI_NOEU_DEPL',   NUME_ORDRE = 1,
 GROUP_NO = 'B',     NOM_CMP = 'EPXY',       VALE = 0.))
           )

#-----------------------------------------------------------------

TEST_RESU(RESU=(


           _F(    CRITERE = 'RELATIF',    REFERENCE='ANALYTIQUE',   PRECISION = 0.15,
 RESULTAT = RESU, NOM_CHAM = 'EPSI_NOEU_DEPL',   NUME_ORDRE = 1,
 GROUP_NO = 'E',       NOM_CMP = 'EPXX',       VALE = 0.7E-4),
           _F(    CRITERE = 'RELATIF',    REFERENCE='ANALYTIQUE',   PRECISION = 0.15,
 RESULTAT = RESU, NOM_CHAM = 'EPSI_NOEU_DEPL',   NUME_ORDRE = 1,
 GROUP_NO = 'E',     NOM_CMP = 'EPYY',       VALE = 0.7E-4),
           _F(   CRITERE = 'ABSOLU',      REFERENCE='ANALYTIQUE',   PRECISION = 1.E-4,
 RESULTAT = RESU, NOM_CHAM = 'EPSI_NOEU_DEPL',   NUME_ORDRE = 1,
 GROUP_NO = 'E',        NOM_CMP = 'EPZZ',       VALE = 0.),
           _F(    CRITERE = 'RELATIF',    REFERENCE='ANALYTIQUE',   PRECISION = 1.E-2,
 RESULTAT = RESU, NOM_CHAM = 'EPSI_NOEU_DEPL',   NUME_ORDRE = 1,
 GROUP_NO = 'E',       NOM_CMP = 'EPXY',       VALE = -5.2E-4))
           )

#-----------------------------------------------------------------

TEST_RESU(RESU=(


           _F(    CRITERE = 'RELATIF',    REFERENCE='ANALYTIQUE',   PRECISION = 0.05,
 RESULTAT = RESU, NOM_CHAM = 'EPSI_NOEU_DEPL',   NUME_ORDRE = 1,
 GROUP_NO = 'F',       NOM_CMP = 'EPXX',       VALE = 0.7E-4),
           _F(    CRITERE = 'RELATIF',    REFERENCE='ANALYTIQUE',   PRECISION = 0.05,
 RESULTAT = RESU, NOM_CHAM = 'EPSI_NOEU_DEPL',   NUME_ORDRE = 1,
 GROUP_NO = 'F',      NOM_CMP = 'EPYY',       VALE = 0.7E-4),
           _F(    CRITERE = 'ABSOLU',     REFERENCE='ANALYTIQUE',   PRECISION = 1.E-4,
 RESULTAT = RESU, NOM_CHAM = 'EPSI_NOEU_DEPL',   NUME_ORDRE = 1,
 GROUP_NO = 'F',       NOM_CMP = 'EPZZ',       VALE = 0.),
           _F(    CRITERE = 'RELATIF',    REFERENCE='ANALYTIQUE',   PRECISION = 0.07,
 RESULTAT = RESU, NOM_CHAM = 'EPSI_NOEU_DEPL',   NUME_ORDRE = 1,
 GROUP_NO = 'F',      NOM_CMP = 'EPXY',       VALE = -1.3E-4))
           )

#-----------------------------------------------------------------

TEST_RESU(RESU=(
    # CONTRAINTES

           _F(   CRITERE = 'RELATIF',    REFERENCE='ANALYTIQUE',   PRECISION = 2.E-2,
 RESULTAT = RESU, NOM_CHAM = 'SIGM_NOEU_DEPL',   NUME_ORDRE = 1,
 GROUP_NO = 'A',       NOM_CMP = 'SIXX',       VALE = -60.),
           _F(   CRITERE = 'RELATIF',    REFERENCE='ANALYTIQUE',   PRECISION = 1.E-2,
 RESULTAT = RESU, NOM_CHAM = 'SIGM_NOEU_DEPL',   NUME_ORDRE = 1,
 GROUP_NO = 'A',      NOM_CMP = 'SIYY',       VALE = 100.),
           _F(    CRITERE = 'ABSOLU',    REFERENCE='ANALYTIQUE',   PRECISION = 0.00001,
 RESULTAT = RESU, NOM_CHAM = 'SIGM_NOEU_DEPL',   NUME_ORDRE = 1,
 GROUP_NO = 'A',        NOM_CMP = 'SIZZ',       VALE = 0.),
           _F(   CRITERE = 'ABSOLU',     REFERENCE='ANALYTIQUE',   PRECISION = 2.,
 RESULTAT = RESU, NOM_CHAM = 'SIGM_NOEU_DEPL',   NUME_ORDRE = 1,
 GROUP_NO = 'A',        NOM_CMP = 'SIXY',       VALE = 0.))
           )

#-----------------------------------------------------------------

TEST_RESU(RESU=(

           _F(   CRITERE = 'ABSOLU',     REFERENCE='ANALYTIQUE',   PRECISION = 1.5,
 RESULTAT = RESU, NOM_CHAM = 'SIGM_NOEU_DEPL',   NUME_ORDRE = 1,
 GROUP_NO = 'B',    NOM_CMP = 'SIXX',       VALE = 0.),
           _F(   CRITERE = 'RELATIF',    REFERENCE='ANALYTIQUE',   PRECISION = 2.E-2,
 RESULTAT = RESU, NOM_CHAM = 'SIGM_NOEU_DEPL',   NUME_ORDRE = 1,
 GROUP_NO = 'B',     NOM_CMP = 'SIYY',       VALE = 40.),
           _F(    CRITERE = 'ABSOLU',     REFERENCE='ANALYTIQUE',   PRECISION = 0.00001,
 RESULTAT = RESU, NOM_CHAM = 'SIGM_NOEU_DEPL',   NUME_ORDRE = 1,
 GROUP_NO = 'B',     NOM_CMP = 'SIZZ',       VALE = 0.),
           _F(    CRITERE = 'ABSOLU',     REFERENCE='ANALYTIQUE',   PRECISION = 1.,
 RESULTAT = RESU, NOM_CHAM = 'SIGM_NOEU_DEPL',   NUME_ORDRE = 1,
 GROUP_NO = 'B',    NOM_CMP = 'SIXY',       VALE = 0.))
           )

#-----------------------------------------------------------------

TEST_RESU(RESU=(

           _F(    CRITERE = 'RELATIF',    REFERENCE='ANALYTIQUE',   PRECISION = 0.07,
 RESULTAT = RESU, NOM_CHAM = 'SIGM_NOEU_DEPL',   NUME_ORDRE = 1,
 GROUP_NO = 'E',        NOM_CMP = 'SIXX',       VALE = 20.),
           _F(   CRITERE = 'RELATIF',     REFERENCE='ANALYTIQUE',   PRECISION = 0.07,
 RESULTAT = RESU, NOM_CHAM = 'SIGM_NOEU_DEPL',   NUME_ORDRE = 1,
 GROUP_NO = 'E',       NOM_CMP = 'SIYY',       VALE = 20.),
           _F(     CRITERE = 'ABSOLU',    REFERENCE='ANALYTIQUE',   PRECISION = 0.00001,
 RESULTAT = RESU, NOM_CHAM = 'SIGM_NOEU_DEPL',   NUME_ORDRE = 1,
 GROUP_NO = 'E',        NOM_CMP = 'SIZZ',       VALE = 0.),
           _F(    CRITERE = 'RELATIF',    REFERENCE='ANALYTIQUE',   PRECISION = 1.E-2,
 RESULTAT = RESU, NOM_CHAM = 'SIGM_NOEU_DEPL',   NUME_ORDRE = 1,
 GROUP_NO = 'E',      NOM_CMP = 'SIXY',       VALE = -80.))
           )

#-----------------------------------------------------------------

TEST_RESU(RESU=(

           _F(    CRITERE = 'RELATIF',    REFERENCE='ANALYTIQUE',   PRECISION = 0.03,
 RESULTAT = RESU, NOM_CHAM = 'SIGM_NOEU_DEPL',   NUME_ORDRE = 1,
 GROUP_NO = 'F',      NOM_CMP = 'SIXX',       VALE = 20.),
           _F(    CRITERE = 'RELATIF',    REFERENCE='ANALYTIQUE',   PRECISION = 0.02,
 RESULTAT = RESU, NOM_CHAM = 'SIGM_NOEU_DEPL',   NUME_ORDRE = 1,
 GROUP_NO = 'F',    NOM_CMP = 'SIYY',       VALE = 20.),
           _F(    CRITERE = 'ABSOLU',     REFERENCE='ANALYTIQUE',   PRECISION = 0.00001,
 RESULTAT = RESU, NOM_CHAM = 'SIGM_NOEU_DEPL',   NUME_ORDRE = 1,
 GROUP_NO = 'F',      NOM_CMP = 'SIZZ',       VALE = 0.),
           _F(   CRITERE = 'RELATIF',     REFERENCE='ANALYTIQUE',   PRECISION = 0.07,
 RESULTAT = RESU, NOM_CHAM = 'SIGM_NOEU_DEPL',   NUME_ORDRE = 1,
 GROUP_NO = 'F',      NOM_CMP = 'SIXY',       VALE = -20.))
           )

#----------------------------------------------------------------
# VALIDATION DE MODI_REPERE UTILISATEUR

RESU1=MODI_REPERE(
                  RESULTAT    = RESU,
                  NUME_ORDRE  = 1,
                  MODI_CHAM  = (_F(NOM_CHAM   = 'SIGM_ELNO_DEPL',
                      NOM_CMP = ('SIXX','SIYY','SIZZ','SIXY',),
                                   TYPE_CHAM = 'TENS_2D',),
                                 _F(NOM_CHAM   = 'SIGM_NOEU_DEPL',
                      NOM_CMP = ('SIXX','SIYY','SIZZ','SIXY',),
                                   TYPE_CHAM = 'TENS_2D',),
                                _F(NOM_CHAM   = 'DEPL',
                                   NOM_CMP    = ('DX','DY',),
                                   TYPE_CHAM  = 'VECT_2D',),),
                   DEFI_REPERE = _F(
                                   REPERE    = 'UTILISATEUR',
                                   ANGL_NAUT = 0.,
                                  ),
                  INFO=1,
                )
TEST_RESU(RESU=(
   # DEPLACEMENTS

         _F(    CRITERE = 'RELATIF',   REFERENCE='ANALYTIQUE',   PRECISION = 1.E-2,
         RESULTAT = RESU1, NOM_CHAM = 'DEPL',   NUME_ORDRE = 1,
         GROUP_NO = 'A',     NOM_CMP = 'DX',            VALE = 59.E-6),
         _F(    CRITERE = 'ABSOLU',    REFERENCE='ANALYTIQUE',   PRECISION = 1.E-10,
         RESULTAT = RESU1, NOM_CHAM = 'DEPL',   NUME_ORDRE = 1,
         GROUP_NO = 'A',     NOM_CMP = 'DY',            VALE = 0.),
         _F(    CRITERE = 'RELATIF',   REFERENCE='ANALYTIQUE',   PRECISION = 1.E-2,
         RESULTAT = RESU1, NOM_CHAM = 'DEPL',   NUME_ORDRE = 1,
         GROUP_NO = 'B',     NOM_CMP = 'DX',            VALE = 40.E-6),
         _F(   CRITERE = 'ABSOLU',    REFERENCE='ANALYTIQUE',   PRECISION = 1.E-10,
         RESULTAT = RESU1, NOM_CHAM = 'DEPL',   NUME_ORDRE = 1,
         GROUP_NO = 'B',     NOM_CMP = 'DY',            VALE = 0.),
         _F(    CRITERE = 'RELATIF',   REFERENCE='ANALYTIQUE',   PRECISION = 1.E-2,
         RESULTAT = RESU1, NOM_CHAM = 'DEPL',   NUME_ORDRE = 1,
         GROUP_NO = 'D',     NOM_CMP = 'DX',            VALE = 36.9552E-6),
         _F(   CRITERE = 'RELATIF',   REFERENCE='ANALYTIQUE',   PRECISION = 1.E-2,
         RESULTAT = RESU1, NOM_CHAM = 'DEPL',   NUME_ORDRE = 1,
         GROUP_NO = 'D',     NOM_CMP = 'DY',            VALE = 15.3073E-6),
         _F(    CRITERE = 'RELATIF',   REFERENCE='ANALYTIQUE',   PRECISION = 1.E-2,
         RESULTAT = RESU1, NOM_CHAM = 'DEPL',   NUME_ORDRE = 1,
         GROUP_NO = 'E',     NOM_CMP = 'DX',            VALE = 41.7193E-6),
         _F(   CRITERE = 'RELATIF',   REFERENCE='ANALYTIQUE',   PRECISION = 1.E-2,
         RESULTAT = RESU1, NOM_CHAM = 'DEPL',   NUME_ORDRE = 1,
         GROUP_NO = 'E',     NOM_CMP = 'DY',            VALE = 41.7193E-6),
         _F(    CRITERE = 'RELATIF',   REFERENCE='ANALYTIQUE',   PRECISION = 1.E-2,
         RESULTAT = RESU1, NOM_CHAM = 'DEPL',   NUME_ORDRE = 1,
         GROUP_NO = 'F',     NOM_CMP = 'DX',            VALE = 28.2843E-6),
         _F(    CRITERE = 'RELATIF',   REFERENCE='ANALYTIQUE',   PRECISION = 1.E-2,
         RESULTAT = RESU1, NOM_CHAM = 'DEPL',   NUME_ORDRE = 1,
         GROUP_NO = 'F',     NOM_CMP = 'DY',            VALE = 28.2843E-6))
           )
TEST_RESU(RESU=(

           _F(    CRITERE = 'RELATIF',    REFERENCE='ANALYTIQUE',   PRECISION = 0.03,
 RESULTAT = RESU1, NOM_CHAM = 'SIGM_NOEU_DEPL',   NUME_ORDRE = 1,
 GROUP_NO = 'F',      NOM_CMP = 'SIXX',       VALE = 20.),
           _F(    CRITERE = 'RELATIF',    REFERENCE='ANALYTIQUE',   PRECISION = 0.02,
 RESULTAT = RESU1, NOM_CHAM = 'SIGM_NOEU_DEPL',   NUME_ORDRE = 1,
 GROUP_NO = 'F',    NOM_CMP = 'SIYY',       VALE = 20.),
           _F(    CRITERE = 'ABSOLU',     REFERENCE='ANALYTIQUE',   PRECISION = 0.00001,
 RESULTAT = RESU1, NOM_CHAM = 'SIGM_NOEU_DEPL',   NUME_ORDRE = 1,
 GROUP_NO = 'F',      NOM_CMP = 'SIZZ',       VALE = 0.),
           _F(   CRITERE = 'RELATIF',     REFERENCE='ANALYTIQUE',   PRECISION = 0.07,
 RESULTAT = RESU1, NOM_CHAM = 'SIGM_NOEU_DEPL',   NUME_ORDRE = 1,
 GROUP_NO = 'F',      NOM_CMP = 'SIXY',       VALE = -20.))
           )


# VALIDATION DE MODI_REPERE (EN 2D) CYLINRIQUE

RESU2=MODI_REPERE(
                  RESULTAT    = RESU,
                  NUME_ORDRE  = 1,
                  MODI_CHAM  = (_F(NOM_CHAM   = 'SIGM_ELNO_DEPL',
                      NOM_CMP = ('SIXX','SIYY','SIZZ','SIXY',),
                                   TYPE_CHAM = 'TENS_2D',),
                                 _F(NOM_CHAM   = 'SIGM_NOEU_DEPL',
                      NOM_CMP = ('SIXX','SIYY','SIZZ','SIXY',),
                                   TYPE_CHAM = 'TENS_2D',),
                                _F(NOM_CHAM   = 'DEPL',
                                   NOM_CMP    = ('DX','DY',),
                                   TYPE_CHAM  = 'VECT_2D',),),
                   DEFI_REPERE = _F(
#                                   REPERE    = 'UTILISATEUR',
#                                   ANGL_NAUT = 90.,
                                   REPERE     = 'CYLINDRIQUE',
                                   ORIGINE    = (0.0, 0.0,),
                                  ),
                  INFO=1,
                )
TEST_RESU(RESU=(

   # MODI_REPERE
   # -----------

         _F(    CRITERE = 'RELATIF',   PRECISION = 1.E-3,
         REFERENCE = 'NON_REGRESSION',
         RESULTAT = RESU2, NOM_CHAM = 'DEPL',   NUME_ORDRE = 1,
         GROUP_NO = 'A',     NOM_CMP = 'DX',            VALE = 5.89574E-5),
         _F(    CRITERE = 'ABSOLU',   PRECISION = 1.E-10,
         REFERENCE = 'NON_REGRESSION',
         RESULTAT = RESU2, NOM_CHAM = 'DEPL',   NUME_ORDRE = 1,
         GROUP_NO = 'A',     NOM_CMP = 'DY',            VALE = 0.00000E+0),
         _F(    CRITERE = 'RELATIF',   PRECISION = 1.E-3,
         REFERENCE = 'NON_REGRESSION',
         RESULTAT = RESU2, NOM_CHAM = 'SIGM_ELNO_DEPL',   NUME_ORDRE = 1,
         GROUP_NO = 'A',  MAILLE = 'M1', NOM_CMP = 'SIXX',VALE = -5.93645E+1),
         _F(    CRITERE = 'ABSOLU',   PRECISION = 0.,
         REFERENCE = 'NON_REGRESSION',
         RESULTAT = RESU2, NOM_CHAM = 'SIGM_ELNO_DEPL',   NUME_ORDRE = 1,
         GROUP_NO = 'A',   MAILLE= 'M1',NOM_CMP = 'SIYY',VALE = 0.00000E+0),
         _F(    CRITERE = 'RELATIF',   PRECISION = 1.E-3,
         REFERENCE = 'NON_REGRESSION',
         RESULTAT = RESU2, NOM_CHAM = 'SIGM_ELNO_DEPL',   NUME_ORDRE = 1,
         GROUP_NO = 'A', MAILLE = 'M1', NOM_CMP = 'SIZZ',VALE = 1.00265E+2),
         _F(    CRITERE = 'RELATIF',   PRECISION = 1.E-3,
         REFERENCE = 'NON_REGRESSION',
         RESULTAT = RESU2, NOM_CHAM = 'SIGM_ELNO_DEPL',   NUME_ORDRE = 1,
         GROUP_NO = 'A', MAILLE='M1', NOM_CMP = 'SIXY',VALE = -1.04715E+0),
         _F(    CRITERE = 'RELATIF',   PRECISION = 1.E-3,
         REFERENCE = 'NON_REGRESSION',
         RESULTAT = RESU2, NOM_CHAM = 'SIGM_NOEU_DEPL',   NUME_ORDRE = 1,
         GROUP_NO = 'A',  MAILLE = 'M1', NOM_CMP = 'SIXX',VALE = -5.93645E+1),
         _F(    CRITERE = 'ABSOLU',   PRECISION = 0.,
         REFERENCE = 'NON_REGRESSION',
         RESULTAT = RESU2, NOM_CHAM = 'SIGM_NOEU_DEPL',   NUME_ORDRE = 1,
         GROUP_NO = 'A',   MAILLE= 'M1',NOM_CMP = 'SIYY',VALE = 0.00000E+0),
         _F(    CRITERE = 'RELATIF',   PRECISION = 1.E-3,
         REFERENCE = 'NON_REGRESSION',
         RESULTAT = RESU2, NOM_CHAM = 'SIGM_NOEU_DEPL',   NUME_ORDRE = 1,
         GROUP_NO = 'A', MAILLE = 'M1', NOM_CMP = 'SIZZ',VALE = 1.00265E+2),
         _F(    CRITERE = 'RELATIF',   PRECISION = 1.E-3,
         REFERENCE = 'NON_REGRESSION',
         RESULTAT = RESU2, NOM_CHAM = 'SIGM_NOEU_DEPL',   NUME_ORDRE = 1,
         GROUP_NO = 'A', MAILLE='M1', NOM_CMP = 'SIXY',VALE = -1.04715E+0),),
           )
#
FIN()
