# MODIF  DATE 24/09/2012   AUTEUR LEFEBVRE J-P.LEFEBVRE 
# TITRE CYLINDRE EN INCOMPRESSIBLE (TETRA10)
# sslv130b.para = tps_job 500 mem_job 1500Mo ncpus 1 liste_test S
#            CONFIGURATION MANAGEMENT OF EDF VERSION
# ======================================================================
# COPYRIGHT (C) 1991 - 2012  EDF R&D                  WWW.CODE-ASTER.ORG
# THIS PROGRAM IS FREE SOFTWARE; YOU CAN REDISTRIBUTE IT AND/OR MODIFY
# IT UNDER THE TERMS OF THE GNU GENERAL PUBLIC LICENSE AS PUBLISHED BY
# THE FREE SOFTWARE FOUNDATION; EITHER VERSION 2 OF THE LICENSE, OR
# (AT YOUR OPTION) ANY LATER VERSION.
#
# THIS PROGRAM IS DISTRIBUTED IN THE HOPE THAT IT WILL BE USEFUL, BUT
# WITHOUT ANY WARRANTY; WITHOUT EVEN THE IMPLIED WARRANTY OF
# MERCHANTABILITY OR FITNESS FOR A PARTICULAR PURPOSE. SEE THE GNU
# GENERAL PUBLIC LICENSE FOR MORE DETAILS.
#
# YOU SHOULD HAVE RECEIVED A COPY OF THE GNU GENERAL PUBLIC LICENSE
# ALONG WITH THIS PROGRAM; IF NOT, WRITE TO EDF R&D CODE_ASTER,
#    1 AVENUE DU GENERAL DE GAULLE, 92141 CLAMART CEDEX, FRANCE.
# ======================================================================
# CAS_TEST__: SSLV130B
#
# ----------------------------------------------------------------------
#
# CYLINDRE CREUX EN INCOMPRESSIBLE (NU=0.5)
# SOUS PRESSION INTERNE (60 MPA)
#
# MODELISATION : ELEMENTS MECANIQUE 3D INCOMP.(TETRA10)
# MAILLAGE     : ALIBABA > ASTER > SUPERTAB
# ----------------------------------------------------------------------
# GROUPES DE NOEUDS ET MAILLES :
# GRNO: A B C D E F  A2 B2 C2 D2 E2 F2   A3 B3 C3 D3 E3 F3  BORDAB NOEUMI
# GRMA: FACEEF     FACEAE     FACESUP   FACEINF
# ----------------------------------------------------------------------

DEBUT(CODE=_F(NOM='SSLV130B',
              NIV_PUB_WEB='INTERNET',),
      DEBUG=_F(SDVERI='OUI',),);

M=LIRE_MAILLAGE(FORMAT='MED',);

MO=AFFE_MODELE(MAILLAGE=M,
               VERIF='MAILLE',
               AFFE=_F(TOUT='OUI',
                       PHENOMENE='MECANIQUE',
                       MODELISATION='3D_INCO',),);

M=MODI_MAILLAGE(reuse =M,
                MAILLAGE=M,
                ORIE_PEAU_3D=_F(GROUP_MA=('FACEEF','FACEAE',),),);

MA=DEFI_MATERIAU(ELAS=_F(E=200000.,
                         NU=0.4999,
                         ALPHA=0.,),);

CM=AFFE_MATERIAU(MAILLAGE=M,
                 AFFE=_F(TOUT='OUI',
                         MATER=MA,),);

CH=AFFE_CHAR_MECA(MODELE=MO,
                  DDL_IMPO=(_F(GROUP_MA='BORDAB',
                               DY=0.,),
                            _F(GROUP_MA='FACSUP',
                               DZ=0.,),
                            _F(GROUP_MA='FACINF',
                               DZ=0.,),),
                  FACE_IMPO=_F(GROUP_MA='FACEEF',
                               DNOR=0.,),
                  PRES_REP=_F(GROUP_MA='FACEAE',
                              PRES=60.,),);

INSTANTS=DEFI_LIST_REEL(DEBUT=0.,
                        INTERVALLE=_F(JUSQU_A=1.,
                                      NOMBRE=1,),);

RAMPE=DEFI_FONCTION(NOM_PARA='INST',VALE=(0.,0.,
                          1.,1.,
                          ),);

EVOL=STAT_NON_LINE(MODELE=MO,
                   CHAM_MATER=CM,
                   EXCIT=_F(CHARGE=CH,
                            FONC_MULT=RAMPE,),
                   COMP_INCR=_F(RELATION='ELAS',),
                   INCREMENT=_F(LIST_INST=INSTANTS,),
                   NEWTON=_F(REAC_ITER=1,),
                   SOLVEUR=_F(RENUM='MD',),);

EVOL=CALC_CHAMP(reuse=EVOL,RESULTAT=EVOL,CRITERES=('SIEQ_ELNO','EPEQ_ELNO'),DEFORMATION=('EPSI_ELNO'),CONTRAINTE=('SIGM_ELNO'))


EVOL=CALC_CHAMP(reuse =EVOL,
             RESULTAT=EVOL,
             DEFORMATION='EPSI_NOEU',CONTRAINTE='SIGM_NOEU',CRITERES=('EPEQ_NOEU','SIEQ_NOEU'));

#---------------------------------------------------------------
#       TEST DE SOLIDE INCOMPRESSIBLE NU = 0.5
#---------------------------------------------------------------

TEST_RESU(RESU=(_F(RESULTAT=EVOL,
                   INST=1.0,
                   NOM_CHAM='DEPL',
                   NOM_CMP='DY',
                   GROUP_NO='A',
                   VALE=0.0,
                   CRITERE='ABSOLU',
                   PRECISION=1e-05,
                   REFERENCE='ANALYTIQUE',),
                _F(RESULTAT=EVOL,
                   INST=1.0,
                   NOM_CHAM='DEPL',
                   NOM_CMP='DX',
                   GROUP_NO='A',
                   VALE=6e-05,
                   CRITERE='RELATIF',
                   PRECISION=0.005,
                   REFERENCE='ANALYTIQUE',),
                _F(RESULTAT=EVOL,
                   INST=1.0,
                   NOM_CHAM='DEPL',
                   NOM_CMP='DY',
                   GROUP_NO='F',
                   VALE=2.1213203e-05,
                   CRITERE='RELATIF',
                   PRECISION=0.005,
                   REFERENCE='ANALYTIQUE',),
                _F(RESULTAT=EVOL,
                   INST=1.0,
                   NOM_CHAM='DEPL',
                   NOM_CMP='DX',
                   GROUP_NO='F',
                   VALE=2.1213203e-05,
                   CRITERE='RELATIF',
                   PRECISION=0.005,
                   REFERENCE='ANALYTIQUE',),),);

TEST_RESU(RESU=(_F(RESULTAT=EVOL,
                   INST=1.0,
                   NOM_CHAM='EPSI_NOEU',
                   NOM_CMP='EPXX',
                   GROUP_NO='A',
                   VALE=-0.0006,
                   CRITERE='RELATIF',
                   PRECISION=0.005,
                   REFERENCE='ANALYTIQUE',),
                _F(RESULTAT=EVOL,
                   INST=1.0,
                   NOM_CHAM='EPSI_NOEU',
                   NOM_CMP='EPYY',
                   GROUP_NO='A',
                   VALE=0.0006,
                   CRITERE='RELATIF',
                   PRECISION=0.005,
                   REFERENCE='ANALYTIQUE',),
                _F(RESULTAT=EVOL,
                   INST=1.0,
                   NOM_CHAM='EPSI_NOEU',
                   NOM_CMP='EPXY',
                   GROUP_NO='A',
                   VALE=0.0,
                   CRITERE='ABSOLU',
                   PRECISION=3e-05,
                   REFERENCE='ANALYTIQUE',),
                _F(RESULTAT=EVOL,
                   INST=1.0,
                   NOM_CHAM='EPSI_NOEU',
                   NOM_CMP='EPXX',
                   GROUP_NO='F',
                   VALE=0.0,
                   CRITERE='ABSOLU',
                   PRECISION=1e-05,
                   REFERENCE='ANALYTIQUE',),
                _F(RESULTAT=EVOL,
                   INST=1.0,
                   NOM_CHAM='EPSI_NOEU',
                   NOM_CMP='EPYY',
                   GROUP_NO='F',
                   VALE=0.0,
                   CRITERE='ABSOLU',
                   PRECISION=1e-05,
                   REFERENCE='ANALYTIQUE',),
                _F(RESULTAT=EVOL,
                   INST=1.0,
                   NOM_CHAM='EPSI_NOEU',
                   NOM_CMP='EPXY',
                   GROUP_NO='F',
                   VALE=-0.00015,
                   CRITERE='RELATIF',
                   PRECISION=0.005,
                   REFERENCE='ANALYTIQUE',),),);

TEST_RESU(RESU=(_F(RESULTAT=EVOL,
                   INST=1.0,
                   NOM_CHAM='SIGM_NOEU',
                   NOM_CMP='SIYY',
                   GROUP_NO='A',
                   VALE=100.0,
                   CRITERE='RELATIF',
                   PRECISION=0.01,
                   REFERENCE='ANALYTIQUE',),
                _F(RESULTAT=EVOL,
                   INST=1.0,
                   NOM_CHAM='SIGM_NOEU',
                   NOM_CMP='SIXX',
                   GROUP_NO='A',
                   VALE=-60.0,
                   CRITERE='RELATIF',
                   PRECISION=0.01,
                   REFERENCE='ANALYTIQUE',),
                _F(RESULTAT=EVOL,
                   INST=1.0,
                   NOM_CHAM='SIGM_NOEU',
                   NOM_CMP='SIZZ',
                   GROUP_NO='A',
                   VALE=20.0,
                   CRITERE='RELATIF',
                   PRECISION=0.025,
                   REFERENCE='ANALYTIQUE',),
                _F(RESULTAT=EVOL,
                   NUME_ORDRE=1,
                   NOM_CHAM='SIGM_NOEU',
                   NOM_CMP='SIXY',
                   GROUP_NO='A',
                   VALE=0.0,
                   CRITERE='ABSOLU',
                   PRECISION=2.5,
                   REFERENCE='ANALYTIQUE',),
                _F(RESULTAT=EVOL,
                   INST=1.0,
                   NOM_CHAM='SIGM_NOEU',
                   NOM_CMP='SIYY',
                   GROUP_NO='F',
                   VALE=20.0,
                   CRITERE='RELATIF',
                   PRECISION=0.01,
                   REFERENCE='ANALYTIQUE',),
                _F(RESULTAT=EVOL,
                   INST=1.0,
                   NOM_CHAM='SIGM_NOEU',
                   NOM_CMP='SIXX',
                   GROUP_NO='F',
                   VALE=20.0,
                   CRITERE='RELATIF',
                   PRECISION=0.01,
                   REFERENCE='ANALYTIQUE',),
                _F(RESULTAT=EVOL,
                   INST=1.0,
                   NOM_CHAM='SIGM_NOEU',
                   NOM_CMP='SIZZ',
                   GROUP_NO='F',
                   VALE=20.0,
                   CRITERE='RELATIF',
                   PRECISION=0.01,
                   REFERENCE='ANALYTIQUE',),
                _F(RESULTAT=EVOL,
                   INST=1.0,
                   NOM_CHAM='SIGM_NOEU',
                   NOM_CMP='SIXY',
                   GROUP_NO='F',
                   VALE=-20.0,
                   CRITERE='RELATIF',
                   PRECISION=0.01,
                   REFERENCE='ANALYTIQUE',),),);

TEST_RESU(RESU=(_F(RESULTAT=EVOL,
                   INST=1.0,
                   NOM_CHAM='EPEQ_NOEU',
                   NOM_CMP='INVA_2',
                   MAILLE='M1',
                   GROUP_NO='A',
                   VALE=0.00069282,
                   CRITERE='RELATIF',
                   PRECISION=0.005,
                   REFERENCE='ANALYTIQUE',),
                _F(RESULTAT=EVOL,
                   INST=1.0,
                   NOM_CHAM='EPEQ_NOEU',
                   NOM_CMP='PRIN_1',
                   MAILLE='M1',
                   GROUP_NO='A',
                   VALE=-0.0006,
                   CRITERE='RELATIF',
                   PRECISION=0.005,
                   REFERENCE='ANALYTIQUE',),
                _F(RESULTAT=EVOL,
                   INST=1.0,
                   NOM_CHAM='EPEQ_NOEU',
                   NOM_CMP='PRIN_2',
                   MAILLE='M1',
                   GROUP_NO='A',
                   VALE=0.0,
                   CRITERE='ABSOLU',
                   PRECISION=1e-05,
                   REFERENCE='ANALYTIQUE',),
                _F(RESULTAT=EVOL,
                   INST=1.0,
                   NOM_CHAM='EPEQ_NOEU',
                   NOM_CMP='PRIN_3',
                   MAILLE='M1',
                   GROUP_NO='A',
                   VALE=0.0006,
                   CRITERE='RELATIF',
                   PRECISION=0.005,
                   REFERENCE='ANALYTIQUE',),),);

TEST_RESU(RESU=(_F(RESULTAT=EVOL,
                   INST=1.0,
                   NOM_CHAM='SIEQ_NOEU',
                   NOM_CMP='VMIS',
                   MAILLE='M1',
                   GROUP_NO='A',
                   VALE=138.5641,
                   CRITERE='RELATIF',
                   PRECISION=0.01,
                   REFERENCE='ANALYTIQUE',),
                _F(RESULTAT=EVOL,
                   INST=1.0,
                   NOM_CHAM='SIEQ_NOEU',
                   NOM_CMP='TRESCA',
                   MAILLE='M1',
                   GROUP_NO='A',
                   VALE=160.0,
                   CRITERE='RELATIF',
                   PRECISION=0.01,
                   REFERENCE='ANALYTIQUE',),
                _F(RESULTAT=EVOL,
                   INST=1.0,
                   NOM_CHAM='SIEQ_NOEU',
                   NOM_CMP='PRIN_1',
                   MAILLE='M1',
                   GROUP_NO='A',
                   VALE=-60.0,
                   CRITERE='RELATIF',
                   PRECISION=0.03,
                   REFERENCE='ANALYTIQUE',),
                _F(RESULTAT=EVOL,
                   INST=1.0,
                   NOM_CHAM='SIEQ_NOEU',
                   NOM_CMP='PRIN_2',
                   MAILLE='M1',
                   GROUP_NO='A',
                   VALE=20.0,
                   CRITERE='RELATIF',
                   PRECISION=0.03,
                   REFERENCE='ANALYTIQUE',),
                _F(RESULTAT=EVOL,
                   INST=1.0,
                   NOM_CHAM='SIEQ_NOEU',
                   NOM_CMP='PRIN_3',
                   MAILLE='M1',
                   GROUP_NO='A',
                   VALE=100.0,
                   CRITERE='RELATIF',
                   PRECISION=0.01,
                   REFERENCE='ANALYTIQUE',),
                _F(RESULTAT=EVOL,
                   INST=1.0,
                   NOM_CHAM='SIEQ_NOEU',
                   NOM_CMP='VMIS_SG',
                   MAILLE='M1',
                   GROUP_NO='A',
                   VALE=138.5641,
                   CRITERE='RELATIF',
                   PRECISION=0.01,
                   REFERENCE='ANALYTIQUE',),),);

#-----------------------------------------------------------------
#  TEST IDENTIQUE EN IMPOSANT LA CONDITION TR(EPS)=0
#------------------------------------------------------------------

M=DEFI_GROUP(reuse =M,
             MAILLAGE=M,
             CREA_GROUP_NO=_F(GROUP_MA='VOLUME',
                              NOM='MSOMMET',
                              CRIT_NOEUD='SOMMET',),);

CH2=AFFE_CHAR_MECA(MODELE=MO,
                   DDL_IMPO=(_F(GROUP_MA='BORDAB',
                                DY=0.,),
                             _F(GROUP_MA='FACSUP',
                                DZ=0.,),
                             _F(GROUP_MA='FACINF',
                                DZ=0.,),
                             _F(GROUP_NO='MSOMMET',
                                GONF=0.,),),
                   FACE_IMPO=_F(GROUP_MA='FACEEF',
                                DNOR=0.,),
                   PRES_REP=_F(GROUP_MA='FACEAE',
                               PRES=60.,),);

EVOL2=STAT_NON_LINE(MODELE=MO,
                    CHAM_MATER=CM,
                    EXCIT=_F(CHARGE=CH2,
                             FONC_MULT=RAMPE,),
                    COMP_INCR=_F(RELATION='ELAS',),
                    INCREMENT=_F(LIST_INST=INSTANTS,),
                    NEWTON=_F(REAC_ITER=1,),
                    SOLVEUR=_F(RENUM='MD',),);

EVOL2=CALC_CHAMP(reuse=EVOL2,RESULTAT=EVOL2,CRITERES=('SIEQ_ELNO','EPEQ_ELNO'),DEFORMATION=('EPSI_ELNO'),CONTRAINTE=('SIGM_ELNO'))


EVOL2=CALC_CHAMP(reuse =EVOL2,
              RESULTAT=EVOL2,
              DEFORMATION='EPSI_NOEU',CONTRAINTE='SIGM_NOEU',CRITERES=('EPEQ_NOEU','SIEQ_NOEU'));

TEST_RESU(RESU=(_F(RESULTAT=EVOL2,
                   INST=1.0,
                   NOM_CHAM='DEPL',
                   NOM_CMP='DY',
                   GROUP_NO='A',
                   VALE=0.0,
                   CRITERE='ABSOLU',
                   PRECISION=1e-05,
                   REFERENCE='ANALYTIQUE',),
                _F(RESULTAT=EVOL2,
                   INST=1.0,
                   NOM_CHAM='DEPL',
                   NOM_CMP='DX',
                   GROUP_NO='A',
                   VALE=6e-05,
                   CRITERE='RELATIF',
                   PRECISION=0.005,
                   REFERENCE='ANALYTIQUE',),
                _F(RESULTAT=EVOL2,
                   INST=1.0,
                   NOM_CHAM='DEPL',
                   NOM_CMP='DY',
                   GROUP_NO='F',
                   VALE=2.1213203e-05,
                   CRITERE='RELATIF',
                   PRECISION=0.005,
                   REFERENCE='ANALYTIQUE',),
                _F(RESULTAT=EVOL2,
                   INST=1.0,
                   NOM_CHAM='DEPL',
                   NOM_CMP='DX',
                   GROUP_NO='F',
                   VALE=2.1213203e-05,
                   CRITERE='RELATIF',
                   PRECISION=0.005,
                   REFERENCE='ANALYTIQUE',),),);

TEST_RESU(RESU=(_F(RESULTAT=EVOL2,
                   INST=1.0,
                   NOM_CHAM='EPSI_NOEU',
                   NOM_CMP='EPXX',
                   GROUP_NO='A',
                   VALE=-0.0006,
                   CRITERE='RELATIF',
                   PRECISION=0.005,
                   REFERENCE='ANALYTIQUE',),
                _F(RESULTAT=EVOL2,
                   INST=1.0,
                   NOM_CHAM='EPSI_NOEU',
                   NOM_CMP='EPYY',
                   GROUP_NO='A',
                   VALE=0.0006,
                   CRITERE='RELATIF',
                   PRECISION=0.005,
                   REFERENCE='ANALYTIQUE',),
                _F(RESULTAT=EVOL2,
                   INST=1.0,
                   NOM_CHAM='EPSI_NOEU',
                   NOM_CMP='EPXY',
                   GROUP_NO='A',
                   VALE=0.0,
                   CRITERE='ABSOLU',
                   PRECISION=3e-05,
                   REFERENCE='ANALYTIQUE',),
                _F(RESULTAT=EVOL2,
                   INST=1.0,
                   NOM_CHAM='EPSI_NOEU',
                   NOM_CMP='EPXX',
                   GROUP_NO='F',
                   VALE=0.0,
                   CRITERE='ABSOLU',
                   PRECISION=1e-05,
                   REFERENCE='ANALYTIQUE',),
                _F(RESULTAT=EVOL2,
                   INST=1.0,
                   NOM_CHAM='EPSI_NOEU',
                   NOM_CMP='EPYY',
                   GROUP_NO='F',
                   VALE=0.0,
                   CRITERE='ABSOLU',
                   PRECISION=1e-05,
                   REFERENCE='ANALYTIQUE',),
                _F(RESULTAT=EVOL2,
                   INST=1.0,
                   NOM_CHAM='EPSI_NOEU',
                   NOM_CMP='EPXY',
                   GROUP_NO='F',
                   VALE=-0.00015,
                   CRITERE='RELATIF',
                   PRECISION=0.005,
                   REFERENCE='ANALYTIQUE',),),);

TEST_RESU(RESU=(_F(RESULTAT=EVOL2,
                   INST=1.0,
                   NOM_CHAM='SIGM_NOEU',
                   NOM_CMP='SIYY',
                   GROUP_NO='A',
                   VALE=100.0,
                   CRITERE='RELATIF',
                   PRECISION=0.01,
                   REFERENCE='ANALYTIQUE',),
                _F(RESULTAT=EVOL2,
                   INST=1.0,
                   NOM_CHAM='SIGM_NOEU',
                   NOM_CMP='SIXX',
                   GROUP_NO='A',
                   VALE=-60.0,
                   CRITERE='RELATIF',
                   PRECISION=0.01,
                   REFERENCE='ANALYTIQUE',),
                _F(RESULTAT=EVOL2,
                   INST=1.0,
                   NOM_CHAM='SIGM_NOEU',
                   NOM_CMP='SIZZ',
                   GROUP_NO='A',
                   VALE=20.0,
                   CRITERE='RELATIF',
                   PRECISION=0.025,
                   REFERENCE='ANALYTIQUE',),
                _F(RESULTAT=EVOL2,
                   NUME_ORDRE=1,
                   NOM_CHAM='SIGM_NOEU',
                   NOM_CMP='SIXY',
                   GROUP_NO='A',
                   VALE=0.0,
                   CRITERE='ABSOLU',
                   PRECISION=2.5,
                   REFERENCE='ANALYTIQUE',),
                _F(RESULTAT=EVOL2,
                   INST=1.0,
                   NOM_CHAM='SIGM_NOEU',
                   NOM_CMP='SIYY',
                   GROUP_NO='F',
                   VALE=20.0,
                   CRITERE='RELATIF',
                   PRECISION=0.01,
                   REFERENCE='ANALYTIQUE',),
                _F(RESULTAT=EVOL2,
                   INST=1.0,
                   NOM_CHAM='SIGM_NOEU',
                   NOM_CMP='SIXX',
                   GROUP_NO='F',
                   VALE=20.0,
                   CRITERE='RELATIF',
                   PRECISION=0.01,
                   REFERENCE='ANALYTIQUE',),
                _F(RESULTAT=EVOL2,
                   INST=1.0,
                   NOM_CHAM='SIGM_NOEU',
                   NOM_CMP='SIZZ',
                   GROUP_NO='F',
                   VALE=20.0,
                   CRITERE='RELATIF',
                   PRECISION=0.01,
                   REFERENCE='ANALYTIQUE',),
                _F(RESULTAT=EVOL2,
                   INST=1.0,
                   NOM_CHAM='SIGM_NOEU',
                   NOM_CMP='SIXY',
                   GROUP_NO='F',
                   VALE=-20.0,
                   CRITERE='RELATIF',
                   PRECISION=0.01,
                   REFERENCE='ANALYTIQUE',),),);

TEST_RESU(RESU=(_F(RESULTAT=EVOL2,
                   INST=1.0,
                   NOM_CHAM='EPEQ_NOEU',
                   NOM_CMP='INVA_2',
                   MAILLE='M1',
                   GROUP_NO='A',
                   VALE=0.00069282,
                   CRITERE='RELATIF',
                   PRECISION=0.005,
                   REFERENCE='ANALYTIQUE',),
                _F(RESULTAT=EVOL2,
                   INST=1.0,
                   NOM_CHAM='EPEQ_NOEU',
                   NOM_CMP='PRIN_1',
                   MAILLE='M1',
                   GROUP_NO='A',
                   VALE=-0.0006,
                   CRITERE='RELATIF',
                   PRECISION=0.005,
                   REFERENCE='ANALYTIQUE',),
                _F(RESULTAT=EVOL2,
                   INST=1.0,
                   NOM_CHAM='EPEQ_NOEU',
                   NOM_CMP='PRIN_2',
                   MAILLE='M1',
                   GROUP_NO='A',
                   VALE=0.0,
                   CRITERE='ABSOLU',
                   PRECISION=1e-05,
                   REFERENCE='ANALYTIQUE',),
                _F(RESULTAT=EVOL2,
                   INST=1.0,
                   NOM_CHAM='EPEQ_NOEU',
                   NOM_CMP='PRIN_3',
                   MAILLE='M1',
                   GROUP_NO='A',
                   VALE=0.0006,
                   CRITERE='RELATIF',
                   PRECISION=0.005,
                   REFERENCE='ANALYTIQUE',),),);

TEST_RESU(RESU=(_F(RESULTAT=EVOL2,
                   INST=1.0,
                   NOM_CHAM='SIEQ_NOEU',
                   NOM_CMP='VMIS',
                   MAILLE='M1',
                   GROUP_NO='A',
                   VALE=138.5641,
                   CRITERE='RELATIF',
                   PRECISION=0.01,
                   REFERENCE='ANALYTIQUE',),
                _F(RESULTAT=EVOL2,
                   INST=1.0,
                   NOM_CHAM='SIEQ_NOEU',
                   NOM_CMP='TRESCA',
                   MAILLE='M1',
                   GROUP_NO='A',
                   VALE=160.0,
                   CRITERE='RELATIF',
                   PRECISION=0.01,
                   REFERENCE='ANALYTIQUE',),
                _F(RESULTAT=EVOL2,
                   INST=1.0,
                   NOM_CHAM='SIEQ_NOEU',
                   NOM_CMP='PRIN_1',
                   MAILLE='M1',
                   GROUP_NO='A',
                   VALE=-60.0,
                   CRITERE='RELATIF',
                   PRECISION=0.03,
                   REFERENCE='ANALYTIQUE',),
                _F(RESULTAT=EVOL2,
                   INST=1.0,
                   NOM_CHAM='SIEQ_NOEU',
                   NOM_CMP='PRIN_2',
                   MAILLE='M1',
                   GROUP_NO='A',
                   VALE=20.0,
                   CRITERE='RELATIF',
                   PRECISION=0.03,
                   REFERENCE='ANALYTIQUE',),
                _F(RESULTAT=EVOL2,
                   INST=1.0,
                   NOM_CHAM='SIEQ_NOEU',
                   NOM_CMP='PRIN_3',
                   MAILLE='M1',
                   GROUP_NO='A',
                   VALE=100.0,
                   CRITERE='RELATIF',
                   PRECISION=0.01,
                   REFERENCE='ANALYTIQUE',),
                _F(RESULTAT=EVOL2,
                   INST=1.0,
                   NOM_CHAM='SIEQ_NOEU',
                   NOM_CMP='VMIS_SG',
                   MAILLE='M1',
                   GROUP_NO='A',
                   VALE=138.5641,
                   CRITERE='RELATIF',
                   PRECISION=0.01,
                   REFERENCE='ANALYTIQUE',),),);

#----------------------------------------------------------------------
 #TEST DU CALCUL AUX NOEUDS MILIEUX
 #TEST SUR UN NOEUD SITUE EN MILIEU DE MAILLE POUR TESTER LE PASSAGE AUX NOEUDS MILIEUX
 #NOEUMI = A + (0 0 1/2 pas )

TEST_RESU(RESU=(_F(RESULTAT=EVOL2,
                   INST=1.0,
                   NOM_CHAM='EPSI_NOEU',
                   NOM_CMP='EPXX',
                   GROUP_NO='NOEUMI',
                   VALE=-0.0006,
                   CRITERE='RELATIF',
                   PRECISION=0.005,
                   REFERENCE='ANALYTIQUE',),
                _F(RESULTAT=EVOL2,
                   INST=1.0,
                   NOM_CHAM='EPSI_NOEU',
                   NOM_CMP='EPYY',
                   GROUP_NO='NOEUMI',
                   VALE=0.0006,
                   CRITERE='RELATIF',
                   PRECISION=0.005,
                   REFERENCE='ANALYTIQUE',),
                _F(RESULTAT=EVOL2,
                   INST=1.0,
                   NOM_CHAM='SIGM_NOEU',
                   NOM_CMP='SIXX',
                   GROUP_NO='NOEUMI',
                   VALE=-60.0,
                   CRITERE='RELATIF',
                   PRECISION=0.017,
                   REFERENCE='ANALYTIQUE',),
                _F(RESULTAT=EVOL2,
                   INST=1.0,
                   NOM_CHAM='SIGM_NOEU',
                   NOM_CMP='SIYY',
                   GROUP_NO='NOEUMI',
                   VALE=100.0,
                   CRITERE='RELATIF',
                   PRECISION=0.006,
                   REFERENCE='ANALYTIQUE',),
                _F(RESULTAT=EVOL2,
                   INST=1.0,
                   NOM_CHAM='SIGM_NOEU',
                   NOM_CMP='SIZZ',
                   GROUP_NO='NOEUMI',
                   VALE=20.0,
                   CRITERE='RELATIF',
                   PRECISION=0.035,
                   REFERENCE='ANALYTIQUE',),),);

#--------------------------------------------------------------------------------

MOUP=AFFE_MODELE(MAILLAGE=M,
                 VERIF='MAILLE',
                 AFFE=_F(TOUT='OUI',
                         PHENOMENE='MECANIQUE',
                         MODELISATION='3D_INCO_UP',),);

CHUP=AFFE_CHAR_MECA(MODELE=MOUP,
                  DDL_IMPO=(_F(GROUP_MA='BORDAB',
                               DY=0.,),
                            _F(GROUP_MA='FACSUP',
                               DZ=0.,),
                            _F(GROUP_MA='FACINF',
                               DZ=0.,),),
                  FACE_IMPO=_F(GROUP_MA='FACEEF',
                               DNOR=0.,),
                  PRES_REP=_F(GROUP_MA='FACEAE',
                              PRES=60.,),);

EVOLUP=STAT_NON_LINE(MODELE=MOUP,
                     CHAM_MATER=CM,
                     EXCIT=_F(CHARGE=CHUP,
                              FONC_MULT=RAMPE,),
                     COMP_INCR=_F(RELATION='ELAS',),
                     INCREMENT=_F(LIST_INST=INSTANTS,),
                     NEWTON=_F(REAC_ITER=1,),
                     SOLVEUR=_F(RENUM='MD',),);

EVOLUP=CALC_CHAMP(reuse=EVOLUP,RESULTAT=EVOLUP,CRITERES=('SIEQ_ELNO','EPEQ_ELNO'),DEFORMATION=('EPSI_ELNO'),CONTRAINTE=('SIGM_ELNO'))


EVOLUP=CALC_CHAMP(reuse =EVOLUP,
               RESULTAT=EVOLUP,
               DEFORMATION='EPSI_NOEU',CONTRAINTE='SIGM_NOEU',CRITERES=('EPEQ_NOEU','SIEQ_NOEU'));

#--------------------------------------------------------------
#       COMPARAISON DES RESULTATS A LA SOLUTION ANALYTIQUE
#       POUR UN  SOLIDE INCOMPRESSIBLE NU = 0.5
#       3D_INCO_UP ET TETRA10
#---------------------------------------------------------------

TEST_RESU(RESU=(_F(RESULTAT=EVOLUP,
                   INST=1.0,
                   NOM_CHAM='DEPL',
                   NOM_CMP='DY',
                   GROUP_NO='A',
                   VALE=0.0,
                   CRITERE='ABSOLU',
                   PRECISION=1e-05,
                   REFERENCE='ANALYTIQUE',),
                _F(RESULTAT=EVOLUP,
                   INST=1.0,
                   NOM_CHAM='DEPL',
                   NOM_CMP='DX',
                   GROUP_NO='A',
                   VALE=6e-05,
                   CRITERE='RELATIF',
                   PRECISION=0.005,
                   REFERENCE='ANALYTIQUE',),
                _F(RESULTAT=EVOLUP,
                   INST=1.0,
                   NOM_CHAM='DEPL',
                   NOM_CMP='DY',
                   GROUP_NO='F',
                   VALE=2.1213203e-05,
                   CRITERE='RELATIF',
                   PRECISION=0.005,
                   REFERENCE='ANALYTIQUE',),
                _F(RESULTAT=EVOLUP,
                   INST=1.0,
                   NOM_CHAM='DEPL',
                   NOM_CMP='DX',
                   GROUP_NO='F',
                   VALE=2.1213203e-05,
                   CRITERE='RELATIF',
                   PRECISION=0.005,
                   REFERENCE='ANALYTIQUE',),),);

TEST_RESU(RESU=(_F(RESULTAT=EVOLUP,
                   INST=1.0,
                   NOM_CHAM='EPSI_NOEU',
                   NOM_CMP='EPXX',
                   GROUP_NO='A',
                   VALE=-0.0006,
                   CRITERE='RELATIF',
                   PRECISION=0.005,
                   REFERENCE='ANALYTIQUE',),
                _F(RESULTAT=EVOLUP,
                   INST=1.0,
                   NOM_CHAM='EPSI_NOEU',
                   NOM_CMP='EPYY',
                   GROUP_NO='A',
                   VALE=0.0006,
                   CRITERE='RELATIF',
                   PRECISION=0.005,
                   REFERENCE='ANALYTIQUE',),
                _F(RESULTAT=EVOLUP,
                   INST=1.0,
                   NOM_CHAM='EPSI_NOEU',
                   NOM_CMP='EPXY',
                   GROUP_NO='A',
                   VALE=0.0,
                   CRITERE='ABSOLU',
                   PRECISION=3e-05,
                   REFERENCE='ANALYTIQUE',),
                _F(RESULTAT=EVOLUP,
                   INST=1.0,
                   NOM_CHAM='EPSI_NOEU',
                   NOM_CMP='EPXX',
                   GROUP_NO='F',
                   VALE=0.0,
                   CRITERE='ABSOLU',
                   PRECISION=1e-05,
                   REFERENCE='ANALYTIQUE',),
                _F(RESULTAT=EVOLUP,
                   INST=1.0,
                   NOM_CHAM='EPSI_NOEU',
                   NOM_CMP='EPYY',
                   GROUP_NO='F',
                   VALE=0.0,
                   CRITERE='ABSOLU',
                   PRECISION=1e-05,
                   REFERENCE='ANALYTIQUE',),
                _F(RESULTAT=EVOLUP,
                   INST=1.0,
                   NOM_CHAM='EPSI_NOEU',
                   NOM_CMP='EPXY',
                   GROUP_NO='F',
                   VALE=-0.00015,
                   CRITERE='RELATIF',
                   PRECISION=0.005,
                   REFERENCE='ANALYTIQUE',),),);

TEST_RESU(RESU=(_F(RESULTAT=EVOLUP,
                   INST=1.0,
                   NOM_CHAM='SIGM_NOEU',
                   NOM_CMP='SIYY',
                   GROUP_NO='A',
                   VALE=100.0,
                   CRITERE='RELATIF',
                   PRECISION=0.01,
                   REFERENCE='ANALYTIQUE',),
                _F(RESULTAT=EVOLUP,
                   INST=1.0,
                   NOM_CHAM='SIGM_NOEU',
                   NOM_CMP='SIXX',
                   GROUP_NO='A',
                   VALE=-60.0,
                   CRITERE='RELATIF',
                   PRECISION=0.01,
                   REFERENCE='ANALYTIQUE',),
                _F(RESULTAT=EVOLUP,
                   INST=1.0,
                   NOM_CHAM='SIGM_NOEU',
                   NOM_CMP='SIZZ',
                   GROUP_NO='A',
                   VALE=20.0,
                   CRITERE='RELATIF',
                   PRECISION=0.025,
                   REFERENCE='ANALYTIQUE',),
                _F(RESULTAT=EVOLUP,
                   NUME_ORDRE=1,
                   NOM_CHAM='SIGM_NOEU',
                   NOM_CMP='SIXY',
                   GROUP_NO='A',
                   VALE=0.0,
                   CRITERE='ABSOLU',
                   PRECISION=2.5,
                   REFERENCE='ANALYTIQUE',),
                _F(RESULTAT=EVOLUP,
                   INST=1.0,
                   NOM_CHAM='SIGM_NOEU',
                   NOM_CMP='SIYY',
                   GROUP_NO='F',
                   VALE=20.0,
                   CRITERE='RELATIF',
                   PRECISION=0.01,
                   REFERENCE='ANALYTIQUE',),
                _F(RESULTAT=EVOLUP,
                   INST=1.0,
                   NOM_CHAM='SIGM_NOEU',
                   NOM_CMP='SIXX',
                   GROUP_NO='F',
                   VALE=20.0,
                   CRITERE='RELATIF',
                   PRECISION=0.01,
                   REFERENCE='ANALYTIQUE',),
                _F(RESULTAT=EVOLUP,
                   INST=1.0,
                   NOM_CHAM='SIGM_NOEU',
                   NOM_CMP='SIZZ',
                   GROUP_NO='F',
                   VALE=20.0,
                   CRITERE='RELATIF',
                   PRECISION=0.01,
                   REFERENCE='ANALYTIQUE',),
                _F(RESULTAT=EVOLUP,
                   INST=1.0,
                   NOM_CHAM='SIGM_NOEU',
                   NOM_CMP='SIXY',
                   GROUP_NO='F',
                   VALE=-20.0,
                   CRITERE='RELATIF',
                   PRECISION=0.01,
                   REFERENCE='ANALYTIQUE',),),);

TEST_RESU(RESU=(_F(RESULTAT=EVOLUP,
                   INST=1.0,
                   NOM_CHAM='EPEQ_NOEU',
                   NOM_CMP='INVA_2',
                   MAILLE='M1',
                   GROUP_NO='A',
                   VALE=0.00069282,
                   CRITERE='RELATIF',
                   PRECISION=0.005,
                   REFERENCE='ANALYTIQUE',),
                _F(RESULTAT=EVOLUP,
                   INST=1.0,
                   NOM_CHAM='EPEQ_NOEU',
                   NOM_CMP='PRIN_1',
                   MAILLE='M1',
                   GROUP_NO='A',
                   VALE=-0.0006,
                   CRITERE='RELATIF',
                   PRECISION=0.005,
                   REFERENCE='ANALYTIQUE',),
                _F(RESULTAT=EVOLUP,
                   INST=1.0,
                   NOM_CHAM='EPEQ_NOEU',
                   NOM_CMP='PRIN_2',
                   MAILLE='M1',
                   GROUP_NO='A',
                   VALE=0.0,
                   CRITERE='ABSOLU',
                   PRECISION=1e-05,
                   REFERENCE='ANALYTIQUE',),
                _F(RESULTAT=EVOLUP,
                   INST=1.0,
                   NOM_CHAM='EPEQ_NOEU',
                   NOM_CMP='PRIN_3',
                   MAILLE='M1',
                   GROUP_NO='A',
                   VALE=0.0006,
                   CRITERE='RELATIF',
                   PRECISION=0.005,
                   REFERENCE='ANALYTIQUE',),),);

TEST_RESU(RESU=(_F(RESULTAT=EVOLUP,
                   INST=1.0,
                   NOM_CHAM='SIEQ_NOEU',
                   NOM_CMP='VMIS',
                   MAILLE='M1',
                   GROUP_NO='A',
                   VALE=138.5641,
                   CRITERE='RELATIF',
                   PRECISION=0.01,
                   REFERENCE='ANALYTIQUE',),
                _F(RESULTAT=EVOLUP,
                   INST=1.0,
                   NOM_CHAM='SIEQ_NOEU',
                   NOM_CMP='TRESCA',
                   MAILLE='M1',
                   GROUP_NO='A',
                   VALE=160.0,
                   CRITERE='RELATIF',
                   PRECISION=0.01,
                   REFERENCE='ANALYTIQUE',),
                _F(RESULTAT=EVOLUP,
                   INST=1.0,
                   NOM_CHAM='SIEQ_NOEU',
                   NOM_CMP='PRIN_1',
                   MAILLE='M1',
                   GROUP_NO='A',
                   VALE=-60.0,
                   CRITERE='RELATIF',
                   PRECISION=0.03,
                   REFERENCE='ANALYTIQUE',),
                _F(RESULTAT=EVOLUP,
                   INST=1.0,
                   NOM_CHAM='SIEQ_NOEU',
                   NOM_CMP='PRIN_2',
                   MAILLE='M1',
                   GROUP_NO='A',
                   VALE=20.0,
                   CRITERE='RELATIF',
                   PRECISION=0.03,
                   REFERENCE='ANALYTIQUE',),
                _F(RESULTAT=EVOLUP,
                   INST=1.0,
                   NOM_CHAM='SIEQ_NOEU',
                   NOM_CMP='PRIN_3',
                   MAILLE='M1',
                   GROUP_NO='A',
                   VALE=100.0,
                   CRITERE='RELATIF',
                   PRECISION=0.01,
                   REFERENCE='ANALYTIQUE',),
                _F(RESULTAT=EVOLUP,
                   INST=1.0,
                   NOM_CHAM='SIEQ_NOEU',
                   NOM_CMP='VMIS_SG',
                   MAILLE='M1',
                   GROUP_NO='A',
                   VALE=138.5641,
                   CRITERE='RELATIF',
                   PRECISION=0.01,
                   REFERENCE='ANALYTIQUE',),),);

#--------------------------------------------------------------------------------

M0=CREA_MAILLAGE(MAILLAGE=M,
                 QUAD_LINE=_F(TOUT='OUI',),);

MACR_ADAP_MAIL(MAILLAGE_N=M0,
               MAILLAGE_NP1=CO('M1'),
               ADAPTATION='RAFFINEMENT_UNIFORME',
               GROUP_MA=('AA','FF',),);

MACR_ADAP_MAIL(MAILLAGE_N=M1,
               MAILLAGE_NP1=CO('ML'),
               ADAPTATION='RAFFINEMENT_UNIFORME',);

MOUPL=AFFE_MODELE(MAILLAGE=ML,
                  VERIF='MAILLE',
                  AFFE=_F(TOUT='OUI',
                          PHENOMENE='MECANIQUE',
                          MODELISATION='3D_INCO_UP',),);

CMUPL=AFFE_MATERIAU(MAILLAGE=ML,
                 AFFE=_F(TOUT='OUI',
                         MATER=MA,),);

CHUPL=AFFE_CHAR_MECA(MODELE=MOUPL,
                  DDL_IMPO=(_F(GROUP_MA='BORDAB',
                               DY=0.,),
                            _F(GROUP_MA='FACSUP',
                               DZ=0.,),
                            _F(GROUP_MA='FACINF',
                               DZ=0.,),),
                  FACE_IMPO=_F(GROUP_MA='FACEEF',
                               DNOR=0.,),
                  PRES_REP=_F(GROUP_MA='FACEAE',
                              PRES=60.,),);

EVOLUPL=STAT_NON_LINE(MODELE=MOUPL,
                      CHAM_MATER=CMUPL,
                      EXCIT=_F(CHARGE=CHUPL,
                               FONC_MULT=RAMPE,),
                      COMP_INCR=_F(RELATION='ELAS',),
                      INCREMENT=_F(LIST_INST=INSTANTS,),
                      NEWTON=_F(REAC_ITER=1,),
                      SOLVEUR=_F(RENUM='MD',),);

EVOLUPL=CALC_CHAMP(reuse=EVOLUPL,RESULTAT=EVOLUPL,CRITERES=('SIEQ_ELNO','EPEQ_ELNO'),DEFORMATION=('EPSI_ELNO'),CONTRAINTE=('SIGM_ELNO'))


EVOLUPL=CALC_CHAMP(reuse =EVOLUPL,
                RESULTAT=EVOLUPL,
                DEFORMATION='EPSI_NOEU',CONTRAINTE='SIGM_NOEU',CRITERES=('EPEQ_NOEU','SIEQ_NOEU'));

#--------------------------------------------------------------
#       COMPARAISON DES RESULTATS A LA SOLUTION ANALYTIQUE
#       POUR UN  SOLIDE INCOMPRESSIBLE NU = 0.5
#       3D_INCO_UP ET TETRA4
#---------------------------------------------------------------

TEST_RESU(RESU=(_F(RESULTAT=EVOLUPL,
                   INST=1.0,
                   NOM_CHAM='DEPL',
                   NOM_CMP='DY',
                   GROUP_NO='A',
                   VALE=0.0,
                   CRITERE='ABSOLU',
                   PRECISION=1e-05,
                   REFERENCE='ANALYTIQUE',),
                _F(RESULTAT=EVOLUPL,
                   INST=1.0,
                   NOM_CHAM='DEPL',
                   NOM_CMP='DX',
                   GROUP_NO='A',
                   VALE=6e-05,
                   CRITERE='RELATIF',
                   PRECISION=0.005,
                   REFERENCE='ANALYTIQUE',),
                _F(RESULTAT=EVOLUPL,
                   INST=1.0,
                   NOM_CHAM='DEPL',
                   NOM_CMP='DY',
                   GROUP_NO='F',
                   VALE=2.1213203e-05,
                   CRITERE='RELATIF',
                   PRECISION=0.005,
                   REFERENCE='ANALYTIQUE',),
                _F(RESULTAT=EVOLUPL,
                   INST=1.0,
                   NOM_CHAM='DEPL',
                   NOM_CMP='DX',
                   GROUP_NO='F',
                   VALE=2.1213203e-05,
                   CRITERE='RELATIF',
                   PRECISION=0.005,
                   REFERENCE='ANALYTIQUE',),),);

TEST_RESU(RESU=(_F(RESULTAT=EVOLUPL,
                   INST=1.0,
                   NOM_CHAM='EPSI_NOEU',
                   NOM_CMP='EPXX',
                   GROUP_NO='A',
                   VALE=-0.0006,
                   CRITERE='RELATIF',
                   PRECISION=0.015,
                   REFERENCE='ANALYTIQUE',),
                _F(RESULTAT=EVOLUPL,
                   INST=1.0,
                   NOM_CHAM='EPSI_NOEU',
                   NOM_CMP='EPYY',
                   GROUP_NO='A',
                   VALE=0.0006,
                   CRITERE='RELATIF',
                   PRECISION=0.01,
                   REFERENCE='ANALYTIQUE',),
                _F(RESULTAT=EVOLUPL,
                   INST=1.0,
                   NOM_CHAM='EPSI_NOEU',
                   NOM_CMP='EPXY',
                   GROUP_NO='A',
                   VALE=0.0,
                   CRITERE='ABSOLU',
                   PRECISION=3e-05,
                   REFERENCE='ANALYTIQUE',),
                _F(RESULTAT=EVOLUPL,
                   INST=1.0,
                   NOM_CHAM='EPSI_NOEU',
                   NOM_CMP='EPXX',
                   GROUP_NO='F',
                   VALE=0.0,
                   CRITERE='ABSOLU',
                   PRECISION=1e-05,
                   REFERENCE='ANALYTIQUE',),
                _F(RESULTAT=EVOLUPL,
                   INST=1.0,
                   NOM_CHAM='EPSI_NOEU',
                   NOM_CMP='EPYY',
                   GROUP_NO='F',
                   VALE=0.0,
                   CRITERE='ABSOLU',
                   PRECISION=1e-05,
                   REFERENCE='ANALYTIQUE',),
                _F(RESULTAT=EVOLUPL,
                   INST=1.0,
                   NOM_CHAM='EPSI_NOEU',
                   NOM_CMP='EPXY',
                   GROUP_NO='F',
                   VALE=-0.00015,
                   CRITERE='RELATIF',
                   PRECISION=0.01,
                   REFERENCE='ANALYTIQUE',),),);

TEST_RESU(RESU=(_F(RESULTAT=EVOLUPL,
                   INST=1.0,
                   NOM_CHAM='SIGM_NOEU',
                   NOM_CMP='SIYY',
                   GROUP_NO='A',
                   VALE=100.0,
                   CRITERE='RELATIF',
                   PRECISION=0.01,
                   REFERENCE='ANALYTIQUE',),
                _F(RESULTAT=EVOLUPL,
                   INST=1.0,
                   NOM_CHAM='SIGM_NOEU',
                   NOM_CMP='SIXX',
                   GROUP_NO='A',
                   VALE=-60.0,
                   CRITERE='RELATIF',
                   PRECISION=0.03,
                   REFERENCE='ANALYTIQUE',),
                _F(RESULTAT=EVOLUPL,
                   INST=1.0,
                   NOM_CHAM='SIGM_NOEU',
                   NOM_CMP='SIZZ',
                   GROUP_NO='A',
                   VALE=20.0,
                   CRITERE='RELATIF',
                   PRECISION=0.03,
                   REFERENCE='ANALYTIQUE',),
                _F(RESULTAT=EVOLUPL,
                   NUME_ORDRE=1,
                   NOM_CHAM='SIGM_NOEU',
                   NOM_CMP='SIXY',
                   GROUP_NO='A',
                   VALE=0.0,
                   CRITERE='ABSOLU',
                   PRECISION=2.5,
                   REFERENCE='ANALYTIQUE',),
                _F(RESULTAT=EVOLUPL,
                   INST=1.0,
                   NOM_CHAM='SIGM_NOEU',
                   NOM_CMP='SIYY',
                   GROUP_NO='F',
                   VALE=20.0,
                   CRITERE='RELATIF',
                   PRECISION=0.01,
                   REFERENCE='ANALYTIQUE',),
                _F(RESULTAT=EVOLUPL,
                   INST=1.0,
                   NOM_CHAM='SIGM_NOEU',
                   NOM_CMP='SIXX',
                   GROUP_NO='F',
                   VALE=20.0,
                   CRITERE='RELATIF',
                   PRECISION=0.015,
                   REFERENCE='ANALYTIQUE',),
                _F(RESULTAT=EVOLUPL,
                   INST=1.0,
                   NOM_CHAM='SIGM_NOEU',
                   NOM_CMP='SIZZ',
                   GROUP_NO='F',
                   VALE=20.0,
                   CRITERE='RELATIF',
                   PRECISION=0.01,
                   REFERENCE='ANALYTIQUE',),
                _F(RESULTAT=EVOLUPL,
                   INST=1.0,
                   NOM_CHAM='SIGM_NOEU',
                   NOM_CMP='SIXY',
                   GROUP_NO='F',
                   VALE=-20.0,
                   CRITERE='RELATIF',
                   PRECISION=0.01,
                   REFERENCE='ANALYTIQUE',),),);

TEST_RESU(RESU=(_F(RESULTAT=EVOLUPL,
                   INST=1.0,
                   NOM_CHAM='EPEQ_NOEU',
                   NOM_CMP='INVA_2',
                   MAILLE='M1',
                   GROUP_NO='A',
                   VALE=0.00069282,
                   CRITERE='RELATIF',
                   PRECISION=0.01,
                   REFERENCE='ANALYTIQUE',),
                _F(RESULTAT=EVOLUPL,
                   INST=1.0,
                   NOM_CHAM='EPEQ_NOEU',
                   NOM_CMP='PRIN_1',
                   MAILLE='M1',
                   GROUP_NO='A',
                   VALE=-0.0006,
                   CRITERE='RELATIF',
                   PRECISION=0.015,
                   REFERENCE='ANALYTIQUE',),
                _F(RESULTAT=EVOLUPL,
                   INST=1.0,
                   NOM_CHAM='EPEQ_NOEU',
                   NOM_CMP='PRIN_2',
                   MAILLE='M1',
                   GROUP_NO='A',
                   VALE=0.0,
                   CRITERE='ABSOLU',
                   PRECISION=1e-05,
                   REFERENCE='ANALYTIQUE',),
                _F(RESULTAT=EVOLUPL,
                   INST=1.0,
                   NOM_CHAM='EPEQ_NOEU',
                   NOM_CMP='PRIN_3',
                   MAILLE='M1',
                   GROUP_NO='A',
                   VALE=0.0006,
                   CRITERE='RELATIF',
                   PRECISION=0.01,
                   REFERENCE='ANALYTIQUE',),),);

TEST_RESU(RESU=(_F(RESULTAT=EVOLUPL,
                   INST=1.0,
                   NOM_CHAM='SIEQ_NOEU',
                   NOM_CMP='VMIS',
                   MAILLE='M1',
                   GROUP_NO='A',
                   VALE=138.5641,
                   CRITERE='RELATIF',
                   PRECISION=0.01,
                   REFERENCE='ANALYTIQUE',),
                _F(RESULTAT=EVOLUPL,
                   INST=1.0,
                   NOM_CHAM='SIEQ_NOEU',
                   NOM_CMP='TRESCA',
                   MAILLE='M1',
                   GROUP_NO='A',
                   VALE=160.0,
                   CRITERE='RELATIF',
                   PRECISION=0.01,
                   REFERENCE='ANALYTIQUE',),
                _F(RESULTAT=EVOLUPL,
                   INST=1.0,
                   NOM_CHAM='SIEQ_NOEU',
                   NOM_CMP='PRIN_1',
                   MAILLE='M1',
                   GROUP_NO='A',
                   VALE=-60.0,
                   CRITERE='RELATIF',
                   PRECISION=0.03,
                   REFERENCE='ANALYTIQUE',),
                _F(RESULTAT=EVOLUPL,
                   INST=1.0,
                   NOM_CHAM='SIEQ_NOEU',
                   NOM_CMP='PRIN_2',
                   MAILLE='M1',
                   GROUP_NO='A',
                   VALE=20.0,
                   CRITERE='RELATIF',
                   PRECISION=0.03,
                   REFERENCE='ANALYTIQUE',),
                _F(RESULTAT=EVOLUPL,
                   INST=1.0,
                   NOM_CHAM='SIEQ_NOEU',
                   NOM_CMP='PRIN_3',
                   MAILLE='M1',
                   GROUP_NO='A',
                   VALE=100.0,
                   CRITERE='RELATIF',
                   PRECISION=0.01,
                   REFERENCE='ANALYTIQUE',),
                _F(RESULTAT=EVOLUPL,
                   INST=1.0,
                   NOM_CHAM='SIEQ_NOEU',
                   NOM_CMP='VMIS_SG',
                   MAILLE='M1',
                   GROUP_NO='A',
                   VALE=138.5641,
                   CRITERE='RELATIF',
                   PRECISION=0.01,
                   REFERENCE='ANALYTIQUE',),),);
#--------------------------------------------------------------------------------

MOOS=AFFE_MODELE(MAILLAGE=ML,
                  VERIF='MAILLE',
                  AFFE=_F(TOUT='OUI',
                          PHENOMENE='MECANIQUE',
                          MODELISATION='3D_INCO_OSGS',),);

CMOS=AFFE_MATERIAU(MAILLAGE=ML,
                 AFFE=_F(TOUT='OUI',
                         MATER=MA,),);

CHOS=AFFE_CHAR_MECA(MODELE=MOOS,
                  DDL_IMPO=(_F(GROUP_MA='BORDAB',
                               DY=0.,),
                            _F(GROUP_MA='FACSUP',
                               DZ=0.,),
                            _F(GROUP_MA='FACINF',
                               DZ=0.,),),
                  FACE_IMPO=_F(GROUP_MA='FACEEF',
                               DNOR=0.,),
                  PRES_REP=_F(GROUP_MA='FACEAE',
                              PRES=60.,),);

EVOLOS=STAT_NON_LINE(MODELE=MOOS,
                      CHAM_MATER=CMOS,
                      EXCIT=_F(CHARGE=CHOS,
                               FONC_MULT=RAMPE,),
                      COMP_INCR=_F(RELATION='ELAS',),
                      INCREMENT=_F(LIST_INST=INSTANTS,),
                      NEWTON=_F(REAC_ITER=1,),
                      SOLVEUR=_F(RENUM='MD',),);

EVOLOS=CALC_CHAMP(reuse=EVOLOS,RESULTAT=EVOLOS,CRITERES=('SIEQ_ELNO','EPEQ_ELNO'),DEFORMATION=('EPSI_ELNO'),CONTRAINTE=('SIGM_ELNO'))


EVOLOS=CALC_CHAMP(reuse =EVOLOS,
                RESULTAT=EVOLOS,
                DEFORMATION='EPSI_NOEU',CONTRAINTE='SIGM_NOEU',CRITERES=('EPEQ_NOEU','SIEQ_NOEU'));

#--------------------------------------------------------------
#       COMPARAISON DES RESULTATS A LA SOLUTION ANALYTIQUE
#       POUR UN  SOLIDE INCOMPRESSIBLE NU = 0.5
#       3D_INCO_OSGS ET TETRA4
#---------------------------------------------------------------

TEST_RESU(RESU=(_F(RESULTAT=EVOLOS,
                   INST=1.0,
                   NOM_CHAM='DEPL',
                   NOM_CMP='DY',
                   GROUP_NO='A',
                   VALE=0.0,
                   CRITERE='ABSOLU',
                   PRECISION=1e-05,
                   REFERENCE='ANALYTIQUE',),
                _F(RESULTAT=EVOLOS,
                   INST=1.0,
                   NOM_CHAM='DEPL',
                   NOM_CMP='DX',
                   GROUP_NO='A',
                   VALE=6e-05,
                   CRITERE='RELATIF',
                   PRECISION=0.005,
                   REFERENCE='ANALYTIQUE',),
                _F(RESULTAT=EVOLOS,
                   INST=1.0,
                   NOM_CHAM='DEPL',
                   NOM_CMP='DY',
                   GROUP_NO='F',
                   VALE=2.1213203e-05,
                   CRITERE='RELATIF',
                   PRECISION=0.005,
                   REFERENCE='ANALYTIQUE',),
                _F(RESULTAT=EVOLOS,
                   INST=1.0,
                   NOM_CHAM='DEPL',
                   NOM_CMP='DX',
                   GROUP_NO='F',
                   VALE=2.1213203e-05,
                   CRITERE='RELATIF',
                   PRECISION=0.005,
                   REFERENCE='ANALYTIQUE',),),);

TEST_RESU(RESU=(_F(RESULTAT=EVOLOS,
                   INST=1.0,
                   NOM_CHAM='EPSI_NOEU',
                   NOM_CMP='EPXX',
                   GROUP_NO='A',
                   VALE=-0.0006,
                   CRITERE='RELATIF',
                   PRECISION=0.02,
                   REFERENCE='ANALYTIQUE',),
                _F(RESULTAT=EVOLOS,
                   INST=1.0,
                   NOM_CHAM='EPSI_NOEU',
                   NOM_CMP='EPYY',
                   GROUP_NO='A',
                   VALE=0.0006,
                   CRITERE='RELATIF',
                   PRECISION=0.01,
                   REFERENCE='ANALYTIQUE',),
                _F(RESULTAT=EVOLOS,
                   INST=1.0,
                   NOM_CHAM='EPSI_NOEU',
                   NOM_CMP='EPXY',
                   GROUP_NO='A',
                   VALE=0.0,
                   CRITERE='ABSOLU',
                   PRECISION=3e-05,
                   REFERENCE='ANALYTIQUE',),
                _F(RESULTAT=EVOLOS,
                   INST=1.0,
                   NOM_CHAM='EPSI_NOEU',
                   NOM_CMP='EPXX',
                   GROUP_NO='F',
                   VALE=0.0,
                   CRITERE='ABSOLU',
                   PRECISION=1e-05,
                   REFERENCE='ANALYTIQUE',),
                _F(RESULTAT=EVOLOS,
                   INST=1.0,
                   NOM_CHAM='EPSI_NOEU',
                   NOM_CMP='EPYY',
                   GROUP_NO='F',
                   VALE=0.0,
                   CRITERE='ABSOLU',
                   PRECISION=1e-05,
                   REFERENCE='ANALYTIQUE',),
                _F(RESULTAT=EVOLOS,
                   INST=1.0,
                   NOM_CHAM='EPSI_NOEU',
                   NOM_CMP='EPXY',
                   GROUP_NO='F',
                   VALE=-0.00015,
                   CRITERE='RELATIF',
                   PRECISION=0.01,
                   REFERENCE='ANALYTIQUE',),),);

TEST_RESU(RESU=(_F(RESULTAT=EVOLOS,
                   INST=1.0,
                   NOM_CHAM='SIGM_NOEU',
                   NOM_CMP='SIYY',
                   GROUP_NO='A',
                   VALE=100.0,
                   CRITERE='RELATIF',
                   PRECISION=0.01,
                   REFERENCE='ANALYTIQUE',),
                _F(RESULTAT=EVOLOS,
                   INST=1.0,
                   NOM_CHAM='SIGM_NOEU',
                   NOM_CMP='SIXX',
                   GROUP_NO='A',
                   VALE=-60.0,
                   CRITERE='RELATIF',
                   PRECISION=0.03,
                   REFERENCE='ANALYTIQUE',),
                _F(RESULTAT=EVOLOS,
                   INST=1.0,
                   NOM_CHAM='SIGM_NOEU',
                   NOM_CMP='SIZZ',
                   GROUP_NO='A',
                   VALE=20.0,
                   CRITERE='RELATIF',
                   PRECISION=0.03,
                   REFERENCE='ANALYTIQUE',),
                _F(RESULTAT=EVOLOS,
                   NUME_ORDRE=1,
                   NOM_CHAM='SIGM_NOEU',
                   NOM_CMP='SIXY',
                   GROUP_NO='A',
                   VALE=0.0,
                   CRITERE='ABSOLU',
                   PRECISION=2.5,
                   REFERENCE='ANALYTIQUE',),
                _F(RESULTAT=EVOLOS,
                   INST=1.0,
                   NOM_CHAM='SIGM_NOEU',
                   NOM_CMP='SIYY',
                   GROUP_NO='F',
                   VALE=20.0,
                   CRITERE='RELATIF',
                   PRECISION=0.01,
                   REFERENCE='ANALYTIQUE',),
                _F(RESULTAT=EVOLOS,
                   INST=1.0,
                   NOM_CHAM='SIGM_NOEU',
                   NOM_CMP='SIXX',
                   GROUP_NO='F',
                   VALE=20.0,
                   CRITERE='RELATIF',
                   PRECISION=0.015,
                   REFERENCE='ANALYTIQUE',),
                _F(RESULTAT=EVOLOS,
                   INST=1.0,
                   NOM_CHAM='SIGM_NOEU',
                   NOM_CMP='SIZZ',
                   GROUP_NO='F',
                   VALE=20.0,
                   CRITERE='RELATIF',
                   PRECISION=0.01,
                   REFERENCE='ANALYTIQUE',),
                _F(RESULTAT=EVOLOS,
                   INST=1.0,
                   NOM_CHAM='SIGM_NOEU',
                   NOM_CMP='SIXY',
                   GROUP_NO='F',
                   VALE=-20.0,
                   CRITERE='RELATIF',
                   PRECISION=0.01,
                   REFERENCE='ANALYTIQUE',),),);

TEST_RESU(RESU=(_F(RESULTAT=EVOLOS,
                   INST=1.0,
                   NOM_CHAM='EPEQ_NOEU',
                   NOM_CMP='INVA_2',
                   MAILLE='M1',
                   GROUP_NO='A',
                   VALE=0.00069282,
                   CRITERE='RELATIF',
                   PRECISION=0.015,
                   REFERENCE='ANALYTIQUE',),
                _F(RESULTAT=EVOLOS,
                   INST=1.0,
                   NOM_CHAM='EPEQ_NOEU',
                   NOM_CMP='PRIN_1',
                   MAILLE='M1',
                   GROUP_NO='A',
                   VALE=-0.0006,
                   CRITERE='RELATIF',
                   PRECISION=0.02,
                   REFERENCE='ANALYTIQUE',),
                _F(RESULTAT=EVOLOS,
                   INST=1.0,
                   NOM_CHAM='EPEQ_NOEU',
                   NOM_CMP='PRIN_2',
                   MAILLE='M1',
                   GROUP_NO='A',
                   VALE=0.0,
                   CRITERE='ABSOLU',
                   PRECISION=1e-05,
                   REFERENCE='ANALYTIQUE',),
                _F(RESULTAT=EVOLOS,
                   INST=1.0,
                   NOM_CHAM='EPEQ_NOEU',
                   NOM_CMP='PRIN_3',
                   MAILLE='M1',
                   GROUP_NO='A',
                   VALE=0.0006,
                   CRITERE='RELATIF',
                   PRECISION=0.01,
                   REFERENCE='ANALYTIQUE',),),);

TEST_RESU(RESU=(_F(RESULTAT=EVOLOS,
                   INST=1.0,
                   NOM_CHAM='SIEQ_NOEU',
                   NOM_CMP='VMIS',
                   MAILLE='M1',
                   GROUP_NO='A',
                   VALE=138.5641,
                   CRITERE='RELATIF',
                   PRECISION=0.015,
                   REFERENCE='ANALYTIQUE',),
                _F(RESULTAT=EVOLOS,
                   INST=1.0,
                   NOM_CHAM='SIEQ_NOEU',
                   NOM_CMP='TRESCA',
                   MAILLE='M1',
                   GROUP_NO='A',
                   VALE=160.0,
                   CRITERE='RELATIF',
                   PRECISION=0.015,
                   REFERENCE='ANALYTIQUE',),
                _F(RESULTAT=EVOLOS,
                   INST=1.0,
                   NOM_CHAM='SIEQ_NOEU',
                   NOM_CMP='PRIN_1',
                   MAILLE='M1',
                   GROUP_NO='A',
                   VALE=-60.0,
                   CRITERE='RELATIF',
                   PRECISION=0.03,
                   REFERENCE='ANALYTIQUE',),
                _F(RESULTAT=EVOLOS,
                   INST=1.0,
                   NOM_CHAM='SIEQ_NOEU',
                   NOM_CMP='PRIN_2',
                   MAILLE='M1',
                   GROUP_NO='A',
                   VALE=20.0,
                   CRITERE='RELATIF',
                   PRECISION=0.03,
                   REFERENCE='ANALYTIQUE',),
                _F(RESULTAT=EVOLOS,
                   INST=1.0,
                   NOM_CHAM='SIEQ_NOEU',
                   NOM_CMP='PRIN_3',
                   MAILLE='M1',
                   GROUP_NO='A',
                   VALE=100.0,
                   CRITERE='RELATIF',
                   PRECISION=0.01,
                   REFERENCE='ANALYTIQUE',),
                _F(RESULTAT=EVOLOS,
                   INST=1.0,
                   NOM_CHAM='SIEQ_NOEU',
                   NOM_CMP='VMIS_SG',
                   MAILLE='M1',
                   GROUP_NO='A',
                   VALE=138.5641,
                   CRITERE='RELATIF',
                   PRECISION=0.015,
                   REFERENCE='ANALYTIQUE',),),);
FIN();

#

