# TITRE CYLINDRE EN C.P. (QUAD9)
# ======================================================================
# COPYRIGHT (C) 1991 - 2012  EDF R&D                  WWW.CODE-ASTER.ORG
# THIS PROGRAM IS FREE SOFTWARE; YOU CAN REDISTRIBUTE IT AND/OR MODIFY
# IT UNDER THE TERMS OF THE GNU GENERAL PUBLIC LICENSE AS PUBLISHED BY
# THE FREE SOFTWARE FOUNDATION; EITHER VERSION 2 OF THE LICENSE, OR
# (AT YOUR OPTION) ANY LATER VERSION.
#
# THIS PROGRAM IS DISTRIBUTED IN THE HOPE THAT IT WILL BE USEFUL, BUT
# WITHOUT ANY WARRANTY; WITHOUT EVEN THE IMPLIED WARRANTY OF
# MERCHANTABILITY OR FITNESS FOR A PARTICULAR PURPOSE. SEE THE GNU
# GENERAL PUBLIC LICENSE FOR MORE DETAILS.
#
# YOU SHOULD HAVE RECEIVED A COPY OF THE GNU GENERAL PUBLIC LICENSE
# ALONG WITH THIS PROGRAM; IF NOT, WRITE TO EDF R&D CODE_ASTER,
#    1 AVENUE DU GENERAL DE GAULLE, 92141 CLAMART CEDEX, FRANCE.
# ======================================================================
#
# ----------------------------------------------------------------------
# SSLV04 G                  COMMANDES                           22/08/91
# CYLINDRE CREUX EN CONTRAINTES PLANES
#
# MODELISATION : ELEMENTS MECANIQUE C_PLAN (QUAD9)
# MAILLAGE     : ALIBABA > ASTER
# ----------------------------------------------------------------------
# GROUPES DE NOEUDS ET MAILLES: A B C D E F
#             BORDAB=GRNM11     FACEEF=GRMA12     FACEAE=GRMA13
# ----------------------------------------------------------------------
#

DEBUT(CODE=_F(NIV_PUB_WEB='INTERNET'), DEBUG=_F(SDVERI='OUI'))

MQ8=LIRE_MAILLAGE(VERI_MAIL=_F(VERIF='OUI'),FORMAT='MED',   )

M=CREA_MAILLAGE(     MAILLAGE=MQ8,
                       MODI_MAILLE=_F(  OPTION = 'QUAD8_9', TOUT = 'OUI')
                     )

M=DEFI_GROUP(reuse=M,   MAILLAGE=M,
                    CREA_GROUP_NO=_F(  GROUP_MA = 'GRNM11')   )

MO=AFFE_MODELE(            MAILLAGE=M,
                                  AFFE=_F(  TOUT = 'OUI',
                                         PHENOMENE = 'MECANIQUE',
                                         MODELISATION = 'C_PLAN'))

MA=DEFI_MATERIAU(            ELAS=_F(  E = 200000.,
                                         NU = 0.3,
                                         ALPHA = 0.) )

CM=AFFE_MATERIAU(        MAILLAGE=M,
                                  AFFE=_F(  TOUT = 'OUI',
                                         MATER = MA))

CH=AFFE_CHAR_MECA(         MODELE=MO,
                              DDL_IMPO=_F(  GROUP_NO = 'GRNM11',  DY = 0.),
                             FACE_IMPO=_F(  GROUP_MA = 'GRMA12',  DNOR = 0.),
                              PRES_REP=_F(  GROUP_MA = 'GRMA13',  PRES = 60.)
                       )


RESU=MECA_STATIQUE(MODELE=MO,
                   CHAM_MATER=CM,
                   EXCIT=_F(CHARGE=CH,),
                   );

RESU=CALC_CHAMP(reuse=RESU,RESULTAT=RESU,NUME_ORDRE=1,DEFORMATION=('EPSI_ELNO'))


RESU=CALC_CHAMP(reuse=RESU,RESULTAT=RESU,NUME_ORDRE=1,CONTRAINTE=('SIGM_ELNO'))


TEST_RESU(RESU=(_F(NUME_ORDRE=1,
                   GROUP_NO='A',
                   RESULTAT=RESU,
                   NOM_CHAM='DEPL',
                   NOM_CMP='DX',
                   VALE_CALC=5.900015587315E-05,
                   CRITERE='RELATIF',
                   ),
                _F(NUME_ORDRE=1,
                   GROUP_NO='A',
                   RESULTAT=RESU,
                   NOM_CHAM='DEPL',
                   NOM_CMP='DY',
                   VALE_CALC=0.0,
                   CRITERE='ABSOLU',
                   ),
                _F(NUME_ORDRE=1,
                   GROUP_NO='B',
                   RESULTAT=RESU,
                   NOM_CHAM='DEPL',
                   NOM_CMP='DX',
                   VALE_CALC=3.999965564827E-05,
                   CRITERE='RELATIF',
                   ),
                _F(NUME_ORDRE=1,
                   GROUP_NO='B',
                   RESULTAT=RESU,
                   NOM_CHAM='DEPL',
                   NOM_CMP='DY',
                   VALE_CALC=0.0,
                   CRITERE='ABSOLU',
                   ),
                _F(NUME_ORDRE=1,
                   GROUP_NO='E',
                   RESULTAT=RESU,
                   NOM_CHAM='DEPL',
                   NOM_CMP='DX',
                   VALE_CALC=4.1719410310578E-05,
                   CRITERE='RELATIF',
                   ),
                _F(NUME_ORDRE=1,
                   GROUP_NO='E',
                   RESULTAT=RESU,
                   NOM_CHAM='DEPL',
                   NOM_CMP='DY',
                   VALE_CALC= 4.17194103E-05,
                   VALE_REFE=4.1719299999999999E-05,
                   REFERENCE='NON_DEFINI',
                   CRITERE='RELATIF',
                   PRECISION=1.E-2,),
                _F(NUME_ORDRE=1,
                   GROUP_NO='F',
                   RESULTAT=RESU,
                   NOM_CHAM='DEPL',
                   NOM_CMP='DX',
                   VALE_CALC=2.8284027752642E-05,
                   CRITERE='RELATIF',
                   ),
                _F(NUME_ORDRE=1,
                   GROUP_NO='F',
                   RESULTAT=RESU,
                   NOM_CHAM='DEPL',
                   NOM_CMP='DY',
                   VALE_CALC=2.8284027752642E-05,
                   CRITERE='RELATIF',
                   ),
                _F(NUME_ORDRE=1,
                   GROUP_NO='A',
                   RESULTAT=RESU,
                   NOM_CHAM='EPSI_ELNO',
                   NOM_CMP='EPXX',
                   VALE_CALC=-4.48699565E-04,
                   VALE_REFE=-4.4999999999999999E-4,
                   REFERENCE='NON_DEFINI',
                   CRITERE='RELATIF',
                   PRECISION=1.E-2,
                   MAILLE='M1',),
                _F(NUME_ORDRE=1,
                   GROUP_NO='A',
                   RESULTAT=RESU,
                   NOM_CHAM='EPSI_ELNO',
                   NOM_CMP='EPYY',
                   VALE_CALC= 5.88980662E-04,
                   VALE_REFE=5.9000000000000003E-4,
                   REFERENCE='NON_DEFINI',
                   CRITERE='RELATIF',
                   PRECISION=1.E-2,
                   MAILLE='M1',),
                _F(NUME_ORDRE=1,
                   GROUP_NO='A',
                   RESULTAT=RESU,
                   NOM_CHAM='EPSI_ELNO',
                   NOM_CMP='EPZZ',
                   VALE_CALC=-6.01204701E-05,
                   VALE_REFE=0.0,
                   REFERENCE='NON_DEFINI',
                   CRITERE='ABSOLU',
                   PRECISION=1.E-2,
                   MAILLE='M1',),
                _F(NUME_ORDRE=1,
                   GROUP_NO='A',
                   RESULTAT=RESU,
                   NOM_CHAM='EPSI_ELNO',
                   NOM_CMP='EPXY',
                   VALE_CALC=-1.37501911E-07,
                   VALE_REFE=0.0,
                   REFERENCE='NON_DEFINI',
                   CRITERE='ABSOLU',
                   PRECISION=1.E-2,
                   MAILLE='M1',),
                _F(NUME_ORDRE=1,
                   GROUP_NO='B',
                   RESULTAT=RESU,
                   NOM_CHAM='EPSI_ELNO',
                   NOM_CMP='EPXX',
                   VALE_CALC=-6.00624157E-05,
                   VALE_REFE=-6.0000000000000002E-05,
                   REFERENCE='NON_DEFINI',
                   CRITERE='RELATIF',
                   PRECISION=1.E-2,
                   MAILLE='M10',),
                _F(NUME_ORDRE=1,
                   GROUP_NO='B',
                   RESULTAT=RESU,
                   NOM_CHAM='EPSI_ELNO',
                   NOM_CMP='EPYY',
                   VALE_CALC= 2.00077726E-04,
                   VALE_REFE=2.0000000000000001E-4,
                   REFERENCE='NON_DEFINI',
                   CRITERE='RELATIF',
                   PRECISION=1.E-2,
                   MAILLE='M10',),
                _F(NUME_ORDRE=1,
                   GROUP_NO='B',
                   RESULTAT=RESU,
                   NOM_CHAM='EPSI_ELNO',
                   NOM_CMP='EPZZ',
                   VALE_CALC=-6.00065617E-05,
                   VALE_REFE=0.0,
                   REFERENCE='NON_DEFINI',
                   CRITERE='ABSOLU',
                   PRECISION=1.E-2,
                   MAILLE='M10',),
                _F(NUME_ORDRE=1,
                   GROUP_NO='B',
                   RESULTAT=RESU,
                   NOM_CHAM='EPSI_ELNO',
                   NOM_CMP='EPXY',
                   VALE_CALC= 1.15809927E-08,
                   VALE_REFE=0.0,
                   REFERENCE='NON_DEFINI',
                   CRITERE='ABSOLU',
                   PRECISION=1.E-2,
                   MAILLE='M10',),
                _F(NUME_ORDRE=1,
                   GROUP_NO='E',
                   RESULTAT=RESU,
                   NOM_CHAM='EPSI_ELNO',
                   NOM_CMP='EPXX',
                   VALE_CALC= 7.00030434E-05,
                   VALE_REFE=6.9999999999999994E-05,
                   REFERENCE='NON_DEFINI',
                   CRITERE='RELATIF',
                   PRECISION=1.E-2,
                   MAILLE='M91',),
                _F(NUME_ORDRE=1,
                   GROUP_NO='E',
                   RESULTAT=RESU,
                   NOM_CHAM='EPSI_ELNO',
                   NOM_CMP='EPYY',
                   VALE_CALC= 7.02780513E-05,
                   VALE_REFE=6.9999999999999994E-05,
                   REFERENCE='NON_DEFINI',
                   CRITERE='RELATIF',
                   PRECISION=1.E-2,
                   MAILLE='M91',),
                _F(NUME_ORDRE=1,
                   GROUP_NO='E',
                   RESULTAT=RESU,
                   NOM_CHAM='EPSI_ELNO',
                   NOM_CMP='EPZZ',
                   VALE_CALC=-6.01204692E-05,
                   VALE_REFE=0.0,
                   REFERENCE='NON_DEFINI',
                   CRITERE='ABSOLU',
                   PRECISION=1.E-2,
                   MAILLE='M91',),
                _F(NUME_ORDRE=1,
                   GROUP_NO='E',
                   RESULTAT=RESU,
                   NOM_CHAM='EPSI_ELNO',
                   NOM_CMP='EPXY',
                   VALE_CALC=-5.18840119E-04,
                   VALE_REFE=-5.1999999999999995E-4,
                   REFERENCE='NON_DEFINI',
                   CRITERE='RELATIF',
                   PRECISION=1.E-2,
                   MAILLE='M91',),
                _F(NUME_ORDRE=1,
                   GROUP_NO='F',
                   RESULTAT=RESU,
                   NOM_CHAM='EPSI_ELNO',
                   NOM_CMP='EPXX',
                   VALE_CALC= 7.00192367E-05,
                   VALE_REFE=6.9999999999999994E-05,
                   REFERENCE='NON_DEFINI',
                   CRITERE='RELATIF',
                   PRECISION=1.E-2,
                   MAILLE='M100',),
                _F(NUME_ORDRE=1,
                   GROUP_NO='F',
                   RESULTAT=RESU,
                   NOM_CHAM='EPSI_ELNO',
                   NOM_CMP='EPYY',
                   VALE_CALC= 6.99960736E-05,
                   VALE_REFE=6.9999999999999994E-05,
                   REFERENCE='NON_DEFINI',
                   CRITERE='RELATIF',
                   PRECISION=1.E-2,
                   MAILLE='M100',),
                _F(NUME_ORDRE=1,
                   GROUP_NO='F',
                   RESULTAT=RESU,
                   NOM_CHAM='EPSI_ELNO',
                   NOM_CMP='EPZZ',
                   VALE_CALC=-6.00065616E-05,
                   VALE_REFE=0.0,
                   REFERENCE='NON_DEFINI',
                   CRITERE='ABSOLU',
                   PRECISION=1.E-2,
                   MAILLE='M100',),
                _F(NUME_ORDRE=1,
                   GROUP_NO='F',
                   RESULTAT=RESU,
                   NOM_CHAM='EPSI_ELNO',
                   NOM_CMP='EPXY',
                   VALE_CALC=-1.30070071E-04,
                   VALE_REFE=-1.2999999999999999E-4,
                   REFERENCE='NON_DEFINI',
                   CRITERE='RELATIF',
                   PRECISION=1.E-2,
                   MAILLE='M100',),
                ),
          )

#-----------------------------------------------------------------

TEST_RESU(RESU=(_F(NUME_ORDRE=1,
                   GROUP_NO='A',
                   RESULTAT=RESU,
                   NOM_CHAM='SIGM_ELNO',
                   NOM_CMP='SIXX',
                   VALE_CALC=-59.781399265,
                   VALE_REFE=-60.0,
                   REFERENCE='NON_DEFINI',
                   CRITERE='RELATIF',
                   PRECISION=1.E-2,
                   MAILLE='M1',),
                _F(NUME_ORDRE=1,
                   GROUP_NO='A',
                   RESULTAT=RESU,
                   NOM_CHAM='SIGM_ELNO',
                   NOM_CMP='SIYY',
                   VALE_CALC=99.861712636,
                   VALE_REFE=100.0,
                   REFERENCE='NON_DEFINI',
                   CRITERE='RELATIF',
                   PRECISION=1.E-2,
                   MAILLE='M1',),
                _F(NUME_ORDRE=1,
                   GROUP_NO='A',
                   RESULTAT=RESU,
                   NOM_CHAM='SIGM_ELNO',
                   NOM_CMP='SIZZ',
                   VALE_CALC=0.0,
                   CRITERE='ABSOLU',
                   MAILLE='M1',),
                _F(NUME_ORDRE=1,
                   GROUP_NO='A',
                   RESULTAT=RESU,
                   NOM_CHAM='SIGM_ELNO',
                   NOM_CMP='SIXY',
                   VALE_CALC=-0.021154140,
                   VALE_REFE=0.0,
                   REFERENCE='NON_DEFINI',
                   CRITERE='ABSOLU',
                   PRECISION=0.050000000000000003,
                   MAILLE='M1',),
                ),
          )

#-----------------------------------------------------------------

TEST_RESU(RESU=(_F(NUME_ORDRE=1,
                   GROUP_NO='B',
                   RESULTAT=RESU,
                   NOM_CHAM='SIGM_ELNO',
                   NOM_CMP='SIXX',
                   VALE_CALC=-8.59291711E-03,
                   VALE_REFE=0.0,
                   REFERENCE='NON_DEFINI',
                   CRITERE='ABSOLU',
                   PRECISION=0.10000000000000001,
                   MAILLE='M10',),
                _F(NUME_ORDRE=1,
                   GROUP_NO='B',
                   RESULTAT=RESU,
                   NOM_CHAM='SIGM_ELNO',
                   NOM_CMP='SIYY',
                   VALE_CALC=40.012967416,
                   VALE_REFE=40.0,
                   REFERENCE='NON_DEFINI',
                   CRITERE='RELATIF',
                   PRECISION=1.E-2,
                   MAILLE='M10',),
                _F(NUME_ORDRE=1,
                   GROUP_NO='B',
                   RESULTAT=RESU,
                   NOM_CHAM='SIGM_ELNO',
                   NOM_CMP='SIZZ',
                   VALE_CALC=0.0,
                   CRITERE='ABSOLU',
                   MAILLE='M10',),
                _F(NUME_ORDRE=1,
                   GROUP_NO='B',
                   RESULTAT=RESU,
                   NOM_CHAM='SIGM_ELNO',
                   NOM_CMP='SIXY',
                   VALE_CALC= 1.78169118E-03,
                   VALE_REFE=0.0,
                   REFERENCE='NON_DEFINI',
                   CRITERE='ABSOLU',
                   PRECISION=1.E-2,
                   MAILLE='M10',),
                ),
          )

#-----------------------------------------------------------------

TEST_RESU(RESU=(_F(NUME_ORDRE=1,
                   GROUP_NO='E',
                   RESULTAT=RESU,
                   NOM_CHAM='SIGM_ELNO',
                   NOM_CMP='SIXX',
                   VALE_CALC=20.019001925,
                   VALE_REFE=20.0,
                   REFERENCE='NON_DEFINI',
                   CRITERE='RELATIF',
                   PRECISION=0.050000000000000003,
                   MAILLE='M91',),
                _F(NUME_ORDRE=1,
                   GROUP_NO='E',
                   RESULTAT=RESU,
                   NOM_CHAM='SIGM_ELNO',
                   NOM_CMP='SIYY',
                   VALE_CALC=20.061310845,
                   VALE_REFE=20.0,
                   REFERENCE='NON_DEFINI',
                   CRITERE='RELATIF',
                   PRECISION=0.050000000000000003,
                   MAILLE='M91',),
                _F(NUME_ORDRE=1,
                   GROUP_NO='E',
                   RESULTAT=RESU,
                   NOM_CHAM='SIGM_ELNO',
                   NOM_CMP='SIZZ',
                   VALE_CALC=0.0,
                   CRITERE='ABSOLU',
                   MAILLE='M91',),
                _F(NUME_ORDRE=1,
                   GROUP_NO='E',
                   RESULTAT=RESU,
                   NOM_CHAM='SIGM_ELNO',
                   NOM_CMP='SIXY',
                   VALE_CALC=-79.821556830,
                   VALE_REFE=-80.0,
                   REFERENCE='NON_DEFINI',
                   CRITERE='RELATIF',
                   PRECISION=1.E-2,
                   MAILLE='M91',),
                ),
          )

#-----------------------------------------------------------------

TEST_RESU(RESU=(_F(NUME_ORDRE=1,
                   GROUP_NO='F',
                   RESULTAT=RESU,
                   NOM_CHAM='SIGM_ELNO',
                   NOM_CMP='SIXX',
                   VALE_CALC=20.003968959695,
                   VALE_REFE=20.0,
                   REFERENCE='NON_DEFINI',
                   CRITERE='RELATIF',
                   PRECISION=1.E-2,
                   MAILLE='M100',),
                _F(NUME_ORDRE=1,
                   GROUP_NO='F',
                   RESULTAT=RESU,
                   NOM_CHAM='SIGM_ELNO',
                   NOM_CMP='SIYY',
                   VALE_CALC=20.000405407453,
                   VALE_REFE=20.0,
                   REFERENCE='NON_DEFINI',
                   CRITERE='RELATIF',
                   PRECISION=1.E-2,
                   MAILLE='M100',),
                _F(NUME_ORDRE=1,
                   GROUP_NO='F',
                   RESULTAT=RESU,
                   NOM_CHAM='SIGM_ELNO',
                   NOM_CMP='SIZZ',
                   VALE_CALC=0.0,
                   CRITERE='ABSOLU',
                   MAILLE='M100',),
                _F(NUME_ORDRE=1,
                   GROUP_NO='F',
                   RESULTAT=RESU,
                   NOM_CHAM='SIGM_ELNO',
                   NOM_CMP='SIXY',
                   VALE_CALC=-20.010780213972,
                   CRITERE='RELATIF',
                   MAILLE='M100',),
                ),
          )

#-----------------------------------------------------------------

FIN( )
#
