# MODIF  DATE 13/01/2011   AUTEUR PELLET J.PELLET 
# TITRE CYLINDRE EN C.P. (TRIA6 QUAD8) TEST ORIE_PRES_2D
#            CONFIGURATION MANAGEMENT OF EDF VERSION
# ======================================================================
# COPYRIGHT (C) 1991 - 2011  EDF R&D                  WWW.CODE-ASTER.ORG
# THIS PROGRAM IS FREE SOFTWARE; YOU CAN REDISTRIBUTE IT AND/OR MODIFY
# IT UNDER THE TERMS OF THE GNU GENERAL PUBLIC LICENSE AS PUBLISHED BY
# THE FREE SOFTWARE FOUNDATION; EITHER VERSION 2 OF THE LICENSE, OR
# (AT YOUR OPTION) ANY LATER VERSION.
#
# THIS PROGRAM IS DISTRIBUTED IN THE HOPE THAT IT WILL BE USEFUL, BUT
# WITHOUT ANY WARRANTY; WITHOUT EVEN THE IMPLIED WARRANTY OF
# MERCHANTABILITY OR FITNESS FOR A PARTICULAR PURPOSE. SEE THE GNU
# GENERAL PUBLIC LICENSE FOR MORE DETAILS.
#
# YOU SHOULD HAVE RECEIVED A COPY OF THE GNU GENERAL PUBLIC LICENSE
# ALONG WITH THIS PROGRAM; IF NOT, WRITE TO EDF R&D CODE_ASTER,
#    1 AVENUE DU GENERAL DE GAULLE, 92141 CLAMART CEDEX, FRANCE.
# ======================================================================
#

DEBUT(CODE=_F(NOM='SSLV04O',NIV_PUB_WEB='INTERNET'),DEBUG=_F(SDVERI='OUI'))

PRE_GIBI()

M=LIRE_MAILLAGE()

MO=AFFE_MODELE(            MAILLAGE=M,
                                   VERIF='MAILLE',
                                  AFFE=_F(  TOUT = 'OUI',
                                         PHENOMENE = 'MECANIQUE',
                                         MODELISATION = 'C_PLAN'))

MA=DEFI_MATERIAU(            ELAS=_F(  E = 200000.,
                                         NU = 0.3,
                                         ALPHA = 0.) )

CM=AFFE_MATERIAU(        MAILLAGE=M,
                                  AFFE=_F(  TOUT = 'OUI',
                                         MATER = MA))

DEFI_GROUP(reuse=M,       MAILLAGE=M,
                  CREA_GROUP_NO=_F( NOM = 'AB', GROUP_MA = 'AB')
                )

TA=POST_ELEM(    MODELE=MO,
                     AIRE_INTERNE=_F(  GROUP_MA_BORD = 'AE7')
                 )

MODI_MAILLAGE(  reuse=M,
        INFO=2,
               MAILLAGE=M,
           ORIE_PEAU_2D=_F(  GROUP_MA = ( 'AE7', ))
                  )

CH=AFFE_CHAR_MECA(         MODELE=MO,DDL_IMPO=(
                              _F(  GROUP_NO = 'AB',  DY = 0.),
                              _F(  GROUP_NO = ('PY1', 'PY2',),  DX = 0.)),
                              PRES_REP=_F(  GROUP_MA = 'AE7',  PRES = 60.))


RESU=MECA_STATIQUE(         MODELE=MO,    CHAM_MATER=CM,
                          EXCIT=_F(  CHARGE = CH),

                    )

CALC_ELEM( reuse= RESU ,RESULTAT= RESU ,

                      OPTION=( 'EPSI_ELNO_DEPL', 'SIGM_ELNO_DEPL',)
                    )

CALC_NO( reuse=RESU,                      RESULTAT=RESU,
                     OPTION=('EPSI_NOEU', 'SIGM_NOEU_DEPL',))

TEST_RESU(RESU=(
   # DEPLACEMENTS

_F(  RESULTAT = RESU, NOM_CHAM = 'DEPL',  CRITERE = 'RELATIF',   PRECISION = 1.E-2,
  NUME_ORDRE = 1, GROUP_NO = 'A',     NOM_CMP = 'DX',            VALE = 59.E-6),
_F(  RESULTAT = RESU, NOM_CHAM = 'DEPL',  CRITERE = 'ABSOLU',  PRECISION = 1.E-9,
  NUME_ORDRE = 1, GROUP_NO = 'A',     NOM_CMP = 'DY',            VALE = 0.),
_F(  RESULTAT = RESU, NOM_CHAM = 'DEPL',  CRITERE = 'RELATIF', PRECISION = 1.E-2,
  NUME_ORDRE = 1, GROUP_NO = 'B',     NOM_CMP = 'DX',            VALE = 40.E-6),
_F(  RESULTAT = RESU, NOM_CHAM = 'DEPL',  CRITERE = 'ABSOLU',   PRECISION = 1.E-9,
  NUME_ORDRE = 1, GROUP_NO = 'B',     NOM_CMP = 'DY',            VALE = 0.),
_F(  RESULTAT = RESU, NOM_CHAM = 'DEPL',  CRITERE = 'RELATIF', PRECISION = 1.E-2,
  NUME_ORDRE = 1, GROUP_NO = 'E',     NOM_CMP = 'DY',            VALE = 41.7193E-6),
_F(  RESULTAT = RESU, NOM_CHAM = 'DEPL',  CRITERE = 'RELATIF', PRECISION = 1.E-2,
  NUME_ORDRE = 1, GROUP_NO = 'E',     NOM_CMP = 'DX',            VALE = 41.7193E-6),
_F(  RESULTAT = RESU, NOM_CHAM = 'DEPL',  CRITERE = 'RELATIF', PRECISION = 1.E-2,
  NUME_ORDRE = 1, GROUP_NO = 'F',     NOM_CMP = 'DY',            VALE = 28.2843E-6),
_F(  RESULTAT = RESU, NOM_CHAM = 'DEPL',  CRITERE = 'RELATIF', PRECISION = 1.E-2,
  NUME_ORDRE = 1, GROUP_NO = 'F',     NOM_CMP = 'DX',            VALE = 28.2843E-6))
             )

TEST_RESU(RESU=(

           _F(  RESULTAT = RESU, NOM_CHAM = 'SIGM_NOEU_DEPL', NUME_ORDRE = 1,
  CRITERE = 'RELATIF',    PRECISION = 1.E-2,
 GROUP_NO = 'A',       NOM_CMP = 'SIXX',      VALE = -60.),
           _F(  RESULTAT = RESU, NOM_CHAM = 'SIGM_NOEU_DEPL', NUME_ORDRE = 1,
  CRITERE = 'RELATIF',    PRECISION = 1.E-2,
 GROUP_NO = 'A',       NOM_CMP = 'SIYY',      VALE = 100.),
           _F(  RESULTAT = RESU, NOM_CHAM = 'SIGM_NOEU_DEPL', NUME_ORDRE = 1,
  CRITERE = 'ABSOLU',     PRECISION = 0.001,
 GROUP_NO = 'A',        NOM_CMP = 'SIZZ',      VALE = 0.),
           _F(  RESULTAT = RESU, NOM_CHAM = 'SIGM_NOEU_DEPL', NUME_ORDRE = 1,
  CRITERE = 'ABSOLU',     PRECISION = 0.3,
 GROUP_NO = 'A',        NOM_CMP = 'SIXY',      VALE = 0.))
           )

TEST_RESU(RESU=(

           _F(  RESULTAT = RESU, NOM_CHAM = 'SIGM_NOEU_DEPL', NUME_ORDRE = 1,
  CRITERE = 'ABSOLU',     PRECISION = 0.1,
 GROUP_NO = 'B',        NOM_CMP = 'SIXX',      VALE = 0.),
           _F(  RESULTAT = RESU, NOM_CHAM = 'SIGM_NOEU_DEPL', NUME_ORDRE = 1,
  CRITERE = 'RELATIF',    PRECISION = 5.E-3,
 GROUP_NO = 'B',       NOM_CMP = 'SIYY',      VALE = 40.),
           _F(  RESULTAT = RESU, NOM_CHAM = 'SIGM_NOEU_DEPL', NUME_ORDRE = 1,
  CRITERE = 'ABSOLU',     PRECISION = 0.015,
 GROUP_NO = 'B',      NOM_CMP = 'SIZZ',      VALE = 0.),
           _F(  RESULTAT = RESU, NOM_CHAM = 'SIGM_NOEU_DEPL', NUME_ORDRE = 1,
  CRITERE = 'ABSOLU',     PRECISION = 0.1,
 GROUP_NO = 'B',        NOM_CMP = 'SIXY',      VALE = 0.))
           )

TEST_RESU(RESU=(

           _F(  RESULTAT = RESU, NOM_CHAM = 'SIGM_NOEU_DEPL', NUME_ORDRE = 1,
  CRITERE = 'RELATIF',    PRECISION = 5.E-2,
 GROUP_NO = 'E',   NOM_CMP = 'SIXX',      VALE = 20.),
           _F(  RESULTAT = RESU, NOM_CHAM = 'SIGM_NOEU_DEPL', NUME_ORDRE = 1,
  CRITERE = 'RELATIF',    PRECISION = 5.E-2,
 GROUP_NO = 'E',   NOM_CMP = 'SIYY',      VALE = 20.),
           _F(  RESULTAT = RESU, NOM_CHAM = 'SIGM_NOEU_DEPL', NUME_ORDRE = 1,
  CRITERE = 'ABSOLU',     PRECISION = 0.001,
 GROUP_NO = 'E',   NOM_CMP = 'SIZZ',      VALE = 0.),
           _F(  RESULTAT = RESU, NOM_CHAM = 'SIGM_NOEU_DEPL', NUME_ORDRE = 1,
  CRITERE = 'RELATIF',    PRECISION = 1.E-2,
 GROUP_NO = 'E',   NOM_CMP = 'SIXY',      VALE = -80.))
           )

TEST_RESU(RESU=(

           _F(  RESULTAT = RESU, NOM_CHAM = 'SIGM_NOEU_DEPL', NUME_ORDRE = 1,
  CRITERE = 'RELATIF',    PRECISION = 1.E-2,
 GROUP_NO = 'F',  NOM_CMP = 'SIXX',      VALE = 20.),
           _F(  RESULTAT = RESU, NOM_CHAM = 'SIGM_NOEU_DEPL', NUME_ORDRE = 1,
  CRITERE = 'RELATIF',    PRECISION = 1.E-2,
 GROUP_NO = 'F',  NOM_CMP = 'SIYY',      VALE = 20.),
           _F(  RESULTAT = RESU, NOM_CHAM = 'SIGM_NOEU_DEPL', NUME_ORDRE = 1,
  CRITERE = 'ABSOLU',     PRECISION = 0.001,
 GROUP_NO = 'F',  NOM_CMP = 'SIZZ',      VALE = 0.),
           _F(  RESULTAT = RESU, NOM_CHAM = 'SIGM_NOEU_DEPL', NUME_ORDRE = 1,
  CRITERE = 'RELATIF',    PRECISION = 1.E-3,
 GROUP_NO = 'F',  NOM_CMP = 'SIXY',      VALE = -20.))
           )

FIN()
#
