# MODIF  DATE 10/10/2012   AUTEUR COURTOIS M.COURTOIS 
# TITRE CYLINDRE SOUMIS A UNE PRESSION EN MODE 1 FOURIER (TRIA6)
# sslv109a.para = tps_job 60 mem_job 512Mo ncpus 1 liste_test R
#            CONFIGURATION MANAGEMENT OF EDF VERSION
# ======================================================================
# COPYRIGHT (C) 1991 - 2012  EDF R&D                  WWW.CODE-ASTER.ORG
# THIS PROGRAM IS FREE SOFTWARE; YOU CAN REDISTRIBUTE IT AND/OR MODIFY
# IT UNDER THE TERMS OF THE GNU GENERAL PUBLIC LICENSE AS PUBLISHED BY
# THE FREE SOFTWARE FOUNDATION; EITHER VERSION 2 OF THE LICENSE, OR
# (AT YOUR OPTION) ANY LATER VERSION.
#
# THIS PROGRAM IS DISTRIBUTED IN THE HOPE THAT IT WILL BE USEFUL, BUT
# WITHOUT ANY WARRANTY; WITHOUT EVEN THE IMPLIED WARRANTY OF
# MERCHANTABILITY OR FITNESS FOR A PARTICULAR PURPOSE. SEE THE GNU
# GENERAL PUBLIC LICENSE FOR MORE DETAILS.
#
# YOU SHOULD HAVE RECEIVED A COPY OF THE GNU GENERAL PUBLIC LICENSE
# ALONG WITH THIS PROGRAM; IF NOT, WRITE TO EDF R&D CODE_ASTER,
#    1 AVENUE DU GENERAL DE GAULLE, 92141 CLAMART CEDEX, FRANCE.
# ======================================================================
# CAS TEST SSLV109A
# CYLINDRE EN FLEXION FOURIER MODE_FOURIER 1
#
# MODELISATION : ELEMENTS MECANIQUE AXIS_FOURIER (TRIA6)
# MAILLAGE     : ALIBABA ==> ASTER
#
# ----------------------------------------------------------------------
# GROUPES DE MAILLES:           PRES_REP : BOUT
# ----------------------------------------------------------------------
#

DEBUT(CODE=_F(NOM='SSLV109A', NIV_PUB_WEB='INTERNET'), DEBUG=_F(SDVERI='OUI'))

NUM_HARM=1

M=LIRE_MAILLAGE( )

MO=AFFE_MODELE(  MAILLAGE=M,
                         AFFE=_F(  TOUT = 'OUI',
                                PHENOMENE = 'MECANIQUE',
                                MODELISATION = 'AXIS_FOURIER',  ) )

MA=DEFI_MATERIAU( ELAS=_F(  E = 72.,   NU = 0.3,   RHO = 0.,  ) )

P=DEFI_FONCTION(      NOM_PARA='X',
           VALE=(0.,0., .5, .5, 1., 1.,) )

U0=DEFI_CONSTANTE(  VALE=0. )

CM=AFFE_MATERIAU(  MAILLAGE=M,
                           AFFE=_F(  TOUT = 'OUI',   MATER = MA,  ) )

BLOQU=AFFE_CHAR_MECA_F(       MODELE=MO,DDL_IMPO=(
               _F(  NOEUD = 'N1',           DX = U0,   DY = U0,    DZ = U0,   ),
                        _F(  NOEUD = 'N2',           DY = U0,   ),
                        _F(  NOEUD = 'N3',           DY = U0,   ))   )

CH=AFFE_CHAR_MECA_F(       MODELE=MO,
               PRES_REP=_F(  GROUP_MA = 'BOUT',       PRES = P,  )  )

FO_ELAS1=MACRO_ELAS_MULT(            MODELE=MO,
                                   CHAM_MATER=CM,
                             CHAR_MECA_GLOBAL=BLOQU,
                            CAS_CHARGE=_F(
                                 MODE_FOURIER = 1,

                                 TYPE_MODE = 'SYME',
                                 CHAR_MECA = CH,
                                 SOUS_TITRE = 'MODE FOURIER 1 SYME')
                          )

DEPLA=CREA_CHAMP( OPERATION='EXTR', TYPE_CHAM='NOEU_DEPL_R',
                    RESULTAT=FO_ELAS1, NUME_MODE=1,
                    NOM_CHAM='DEPL' ),

T_ENER=POST_ELEM(  MODELE       = MO,
                   CHAM_MATER   = CM,
                   MODE_FOURIER = NUM_HARM,
                   CHAM_GD      = DEPLA,
                   ENER_POT     = _F(  TOUT = 'OUI',  )
                   )

TEST_TABLE(VALE_CALC=0.020833333329999999,
           TOLE_MACHINE=1.E-3,
           NOM_PARA='TOTALE',
           TABLE=T_ENER,
           FILTRE=_F(NOM_PARA='LIEU',
                     VALE_K='M',),
           )

# ----------------------------------------------------------------------
#                     OPERATEUR COMB_FOURIER
# ----------------------------------------------------------------------

FO_ELAS1=CALC_CHAMP(reuse=FO_ELAS1,RESULTAT=FO_ELAS1,CONTRAINTE=('SIGM_ELNO'))


FO_ELAS1=CALC_CHAMP(reuse=FO_ELAS1,   RESULTAT=FO_ELAS1,
                       FORCE='FORC_NODA',
                         )

FO_ELAS1=CALC_CHAMP(reuse=FO_ELAS1,   RESULTAT=FO_ELAS1,
                       FORCE='REAC_NODA',
                         )

SIGMA=CREA_CHAMP( OPERATION='EXTR', TYPE_CHAM='ELNO_SIEF_R',
                    RESULTAT=FO_ELAS1, NUME_MODE=1,
                    NOM_CHAM='SIGM_ELNO' ),

TEST_RESU(RESU=(_F(NUME_MODE=1,
                   RESULTAT=FO_ELAS1,
                   NOM_CHAM='REAC_NODA',
                   NOEUD='N1',
                   NOM_CMP='DY',
                   VALE_CALC=-0.018468200000000001,
                   TOLE_MACHINE=1.E-3,),
                _F(NUME_MODE=1,
                   RESULTAT=FO_ELAS1,
                   NOM_CHAM='REAC_NODA',
                   NOEUD='N2',
                   NOM_CMP='DY',
                   VALE_CALC=0.203706,
                   TOLE_MACHINE=1.E-3,),
                _F(NUME_MODE=1,
                   RESULTAT=FO_ELAS1,
                   NOM_CHAM='REAC_NODA',
                   NOEUD='N3',
                   NOM_CMP='DY',
                   VALE_CALC=0.148146,
                   TOLE_MACHINE=1.E-3,),
                ),
          )

TEST_RESU(RESU=(_F(NUME_MODE=1,
                   RESULTAT=FO_ELAS1,
                   NOM_CHAM='DEPL',
                   NOEUD='N3',
                   NOM_CMP='DX',
                   VALE_CALC=2.0833333330000001E-3,
                   TOLE_MACHINE=1.E-3,),
                _F(NUME_MODE=1,
                   RESULTAT=FO_ELAS1,
                   NOM_CHAM='DEPL',
                   NOEUD='N3',
                   NOM_CMP='DY',
                   VALE_CALC=0.0,
                   TOLE_MACHINE=1.E-3,
                   CRITERE='ABSOLU',),
                _F(NUME_MODE=1,
                   RESULTAT=FO_ELAS1,
                   NOM_CHAM='DEPL',
                   NOEUD='N3',
                   NOM_CMP='DZ',
                   VALE_CALC=-2.0833333330000001E-3,
                   TOLE_MACHINE=1.E-3,),
                _F(NUME_MODE=1,
                   RESULTAT=FO_ELAS1,
                   NOM_CHAM='DEPL',
                   NOEUD='N7',
                   NOM_CMP='DX',
                   VALE_CALC=0.25,
                   TOLE_MACHINE=1.E-3,),
                _F(NUME_MODE=1,
                   RESULTAT=FO_ELAS1,
                   NOM_CHAM='DEPL',
                   NOEUD='N7',
                   NOM_CMP='DY',
                   VALE_CALC=0.0,
                   TOLE_MACHINE=1.E-3,
                   CRITERE='ABSOLU',),
                _F(NUME_MODE=1,
                   RESULTAT=FO_ELAS1,
                   NOM_CHAM='DEPL',
                   NOEUD='N7',
                   NOM_CMP='DZ',
                   VALE_CALC=0.25,
                   TOLE_MACHINE=1.E-3,),
                _F(NUME_MODE=1,
                   RESULTAT=FO_ELAS1,
                   NOM_CHAM='DEPL',
                   NOEUD='N8',
                   NOM_CMP='DX',
                   VALE_CALC=0.25052083333300001,
                   TOLE_MACHINE=1.E-3,),
                _F(NUME_MODE=1,
                   RESULTAT=FO_ELAS1,
                   NOM_CHAM='DEPL',
                   NOEUD='N8',
                   NOM_CMP='DY',
                   VALE_CALC=-0.041666666666000003,
                   TOLE_MACHINE=1.E-3,),
                _F(NUME_MODE=1,
                   RESULTAT=FO_ELAS1,
                   NOM_CHAM='DEPL',
                   NOEUD='N8',
                   NOM_CMP='DZ',
                   VALE_CALC=0.24947916666600001,
                   TOLE_MACHINE=1.E-3,),
                _F(NUME_MODE=1,
                   RESULTAT=FO_ELAS1,
                   NOM_CHAM='DEPL',
                   NOEUD='N9',
                   NOM_CMP='DX',
                   VALE_CALC=0.25208333333299998,
                   TOLE_MACHINE=1.E-3,),
                _F(NUME_MODE=1,
                   RESULTAT=FO_ELAS1,
                   NOM_CHAM='DEPL',
                   NOEUD='N9',
                   NOM_CMP='DY',
                   VALE_CALC=-0.083333333332999998,
                   TOLE_MACHINE=1.E-3,),
                _F(NUME_MODE=1,
                   RESULTAT=FO_ELAS1,
                   NOM_CHAM='DEPL',
                   NOEUD='N9',
                   NOM_CMP='DZ',
                   VALE_CALC=0.24791666666600001,
                   TOLE_MACHINE=1.E-3,),
                _F(NUME_MODE=1,
                   RESULTAT=FO_ELAS1,
                   NOM_CHAM='DEPL',
                   NOEUD='N13',
                   NOM_CMP='DX',
                   VALE_CALC=1.0,
                   TOLE_MACHINE=1.E-3,),
                _F(NUME_MODE=1,
                   RESULTAT=FO_ELAS1,
                   NOM_CHAM='DEPL',
                   NOEUD='N13',
                   NOM_CMP='DY',
                   VALE_CALC=0.0,
                   TOLE_MACHINE=1.E-3,
                   CRITERE='ABSOLU',),
                _F(NUME_MODE=1,
                   RESULTAT=FO_ELAS1,
                   NOM_CHAM='DEPL',
                   NOEUD='N13',
                   NOM_CMP='DZ',
                   VALE_CALC=1.0,
                   TOLE_MACHINE=1.E-3,),
                _F(NUME_MODE=1,
                   RESULTAT=FO_ELAS1,
                   NOM_CHAM='DEPL',
                   NOEUD='N15',
                   NOM_CMP='DX',
                   VALE_CALC=1.0020833333332999,
                   TOLE_MACHINE=1.E-3,),
                _F(NUME_MODE=1,
                   RESULTAT=FO_ELAS1,
                   NOM_CHAM='DEPL',
                   NOEUD='N15',
                   NOM_CMP='DY',
                   VALE_CALC=-0.16666666666659999,
                   TOLE_MACHINE=1.E-3,),
                _F(NUME_MODE=1,
                   RESULTAT=FO_ELAS1,
                   NOM_CHAM='DEPL',
                   NOEUD='N15',
                   NOM_CMP='DZ',
                   VALE_CALC=0.99779166666660002,
                   TOLE_MACHINE=1.E-3,),
                ),
          )

TEST_RESU(RESU=(_F(NUME_MODE=1,
                   RESULTAT=FO_ELAS1,
                   NOM_CHAM='SIGM_ELNO',
                   NOEUD='N3',
                   NOM_CMP='SIYY',
                   VALE_CALC=-1.0,
                   TOLE_MACHINE=1.E-3,
                   MAILLE='M1',),
                _F(NUME_MODE=1,
                   RESULTAT=FO_ELAS1,
                   NOM_CHAM='SIGM_ELNO',
                   NOEUD='N7',
                   NOM_CMP='SIYY',
                   VALE_CALC=0.0,
                   TOLE_MACHINE=1.E-3,
                   CRITERE='ABSOLU',
                   MAILLE='M2',),
                _F(NUME_MODE=1,
                   RESULTAT=FO_ELAS1,
                   NOM_CHAM='SIGM_ELNO',
                   NOEUD='N7',
                   NOM_CMP='SIYY',
                   VALE_CALC=0.0,
                   TOLE_MACHINE=1.E-3,
                   CRITERE='ABSOLU',
                   MAILLE='M3',),
                _F(NUME_MODE=1,
                   RESULTAT=FO_ELAS1,
                   NOM_CHAM='SIGM_ELNO',
                   NOEUD='N7',
                   NOM_CMP='SIYY',
                   VALE_CALC=0.0,
                   TOLE_MACHINE=1.E-3,
                   CRITERE='ABSOLU',
                   MAILLE='M4',),
                _F(NUME_MODE=1,
                   RESULTAT=FO_ELAS1,
                   NOM_CHAM='SIGM_ELNO',
                   NOEUD='N8',
                   NOM_CMP='SIYY',
                   VALE_CALC=-0.5,
                   TOLE_MACHINE=1.E-3,
                   MAILLE='M2',),
                _F(NUME_MODE=1,
                   RESULTAT=FO_ELAS1,
                   NOM_CHAM='SIGM_ELNO',
                   NOEUD='N8',
                   NOM_CMP='SIYY',
                   VALE_CALC=-0.5,
                   TOLE_MACHINE=1.E-3,
                   MAILLE='M3',),
                _F(NUME_MODE=1,
                   RESULTAT=FO_ELAS1,
                   NOM_CHAM='SIGM_ELNO',
                   NOEUD='N9',
                   NOM_CMP='SIYY',
                   VALE_CALC=-1.0,
                   TOLE_MACHINE=1.E-3,
                   MAILLE='M1',),
                _F(NUME_MODE=1,
                   RESULTAT=FO_ELAS1,
                   NOM_CHAM='SIGM_ELNO',
                   NOEUD='N9',
                   NOM_CMP='SIYY',
                   VALE_CALC=-1.0,
                   TOLE_MACHINE=1.E-3,
                   MAILLE='M2',),
                _F(NUME_MODE=1,
                   RESULTAT=FO_ELAS1,
                   NOM_CHAM='SIGM_ELNO',
                   NOEUD='N9',
                   NOM_CMP='SIYY',
                   VALE_CALC=-1.0,
                   TOLE_MACHINE=1.E-3,
                   MAILLE='M3',),
                _F(NUME_MODE=1,
                   RESULTAT=FO_ELAS1,
                   NOM_CHAM='SIGM_ELNO',
                   NOEUD='N13',
                   NOM_CMP='SIYY',
                   VALE_CALC=-1.16087586E-03,
                   VALE_REFE=0.0,
                   REFERENCE='NON_DEFINI',
                   CRITERE='ABSOLU',
                   PRECISION=2.E-3,
                   MAILLE='M4',),
                _F(NUME_MODE=1,
                   RESULTAT=FO_ELAS1,
                   NOM_CHAM='SIGM_ELNO',
                   NOEUD='N15',
                   NOM_CMP='SIYY',
                   VALE_CALC=-1.0,
                   TOLE_MACHINE=1.E-3,
                   MAILLE='M3',),
                _F(NUME_MODE=1,
                   RESULTAT=FO_ELAS1,
                   NOM_CHAM='SIGM_ELNO',
                   NOEUD='N15',
                   NOM_CMP='SIYY',
                   VALE_CALC=-0.998425228,
                   VALE_REFE=-1.0,
                   REFERENCE='NON_DEFINI',
                   PRECISION=2.E-3,
                   MAILLE='M4',),
                ),
          )

ANGL1=45.

ANGL2=135.

CO_FOUR1=COMB_FOURIER(   RESULTAT=FO_ELAS1,
                            NOM_CHAM=( 'DEPL',  'REAC_NODA',
                      'SIEF_ELGA', 'SIGM_ELNO', ),
                                ANGL=( ANGL1,  ANGL2,  )
                        )

CO_FOUR1=CALC_CHAMP(reuse=CO_FOUR1,RESULTAT=CO_FOUR1,CRITERES=('SIEQ_ELGA','SIEQ_ELNO'))


TEST_RESU(RESU=(_F(RESULTAT=CO_FOUR1,
                   NOM_CHAM='DEPL',
                   NOEUD='N7',
                   NOM_CMP='DX',
                   VALE_CALC=0.17677660000000001,
                   TOLE_MACHINE=1.E-3,
                   ANGL=45.0,),
                _F(RESULTAT=CO_FOUR1,
                   NOM_CHAM='DEPL',
                   NOEUD='N7',
                   NOM_CMP='DY',
                   VALE_CALC=0.0,
                   TOLE_MACHINE=1.E-3,
                   CRITERE='ABSOLU',
                   ANGL=45.0,),
                _F(RESULTAT=CO_FOUR1,
                   NOM_CHAM='DEPL',
                   NOEUD='N7',
                   NOM_CMP='DZ',
                   VALE_CALC=-0.17677660000000001,
                   TOLE_MACHINE=1.E-3,
                   ANGL=45.0,),
                _F(RESULTAT=CO_FOUR1,
                   NOM_CHAM='DEPL',
                   NOEUD='N13',
                   NOM_CMP='DX',
                   VALE_CALC=0.70710669999999998,
                   TOLE_MACHINE=1.E-3,
                   ANGL=45.0,),
                _F(RESULTAT=CO_FOUR1,
                   NOM_CHAM='DEPL',
                   NOEUD='N13',
                   NOM_CMP='DY',
                   VALE_CALC=0.0,
                   TOLE_MACHINE=1.E-3,
                   CRITERE='ABSOLU',
                   ANGL=45.0,),
                _F(RESULTAT=CO_FOUR1,
                   NOM_CHAM='DEPL',
                   NOEUD='N13',
                   NOM_CMP='DZ',
                   VALE_CALC=-0.70710669999999998,
                   TOLE_MACHINE=1.E-3,
                   ANGL=45.0,),
                ),
          )

TEST_RESU(RESU=(_F(RESULTAT=CO_FOUR1,
                   NOM_CHAM='SIGM_ELNO',
                   NOEUD='N3',
                   NOM_CMP='SIYY',
                   VALE_CALC=-0.70710680000000004,
                   TOLE_MACHINE=1.E-3,
                   ANGL=45.0,
                   MAILLE='M1',),
                _F(RESULTAT=CO_FOUR1,
                   NOM_CHAM='SIGM_ELNO',
                   NOEUD='N7',
                   NOM_CMP='SIYY',
                   VALE_CALC=0.0,
                   TOLE_MACHINE=1.E-3,
                   CRITERE='ABSOLU',
                   ANGL=45.0,
                   MAILLE='M2',),
                _F(RESULTAT=CO_FOUR1,
                   NOM_CHAM='SIGM_ELNO',
                   NOEUD='N7',
                   NOM_CMP='SIYY',
                   VALE_CALC=0.0,
                   TOLE_MACHINE=1.E-3,
                   CRITERE='ABSOLU',
                   ANGL=45.0,
                   MAILLE='M3',),
                _F(RESULTAT=CO_FOUR1,
                   NOM_CHAM='SIGM_ELNO',
                   NOEUD='N7',
                   NOM_CMP='SIYY',
                   VALE_CALC=0.0,
                   TOLE_MACHINE=1.E-3,
                   CRITERE='ABSOLU',
                   ANGL=45.0,
                   MAILLE='M4',),
                _F(RESULTAT=CO_FOUR1,
                   NOM_CHAM='SIGM_ELNO',
                   NOEUD='N8',
                   NOM_CMP='SIYY',
                   VALE_CALC=-0.35355340000000002,
                   TOLE_MACHINE=1.E-3,
                   ANGL=45.0,
                   MAILLE='M2',),
                _F(RESULTAT=CO_FOUR1,
                   NOM_CHAM='SIGM_ELNO',
                   NOEUD='N8',
                   NOM_CMP='SIYY',
                   VALE_CALC=-0.35355340000000002,
                   TOLE_MACHINE=1.E-3,
                   ANGL=45.0,
                   MAILLE='M3',),
                _F(RESULTAT=CO_FOUR1,
                   NOM_CHAM='SIGM_ELNO',
                   NOEUD='N9',
                   NOM_CMP='SIYY',
                   VALE_CALC=-0.70710680000000004,
                   TOLE_MACHINE=1.E-3,
                   ANGL=45.0,
                   MAILLE='M1',),
                _F(RESULTAT=CO_FOUR1,
                   NOM_CHAM='SIGM_ELNO',
                   NOEUD='N9',
                   NOM_CMP='SIYY',
                   VALE_CALC=-0.70710680000000004,
                   TOLE_MACHINE=1.E-3,
                   ANGL=45.0,
                   MAILLE='M2',),
                _F(RESULTAT=CO_FOUR1,
                   NOM_CHAM='SIGM_ELNO',
                   NOEUD='N9',
                   NOM_CMP='SIYY',
                   VALE_CALC=-0.70710680000000004,
                   TOLE_MACHINE=1.E-3,
                   ANGL=45.0,
                   MAILLE='M3',),
                _F(RESULTAT=CO_FOUR1,
                   NOM_CHAM='SIGM_ELNO',
                   NOEUD='N13',
                   NOM_CMP='SIYY',
                   VALE_CALC=0.0,
                   TOLE_MACHINE=1.E-3,
                   CRITERE='ABSOLU',
                   ANGL=45.0,
                   MAILLE='M4',),
                _F(RESULTAT=CO_FOUR1,
                   NOM_CHAM='SIGM_ELNO',
                   NOEUD='N15',
                   NOM_CMP='SIYY',
                   VALE_CALC=-0.70710680000000004,
                   TOLE_MACHINE=1.E-3,
                   ANGL=45.0,
                   MAILLE='M3',),
                _F(RESULTAT=CO_FOUR1,
                   NOM_CHAM='SIGM_ELNO',
                   NOEUD='N15',
                   NOM_CMP='SIYY',
                   VALE_CALC=-0.705993249,
                   VALE_REFE=-0.70710680000000004,
                   REFERENCE='NON_DEFINI',
                   ANGL=45.0,
                   PRECISION=2.E-3,
                   MAILLE='M4',),
                _F(RESULTAT=CO_FOUR1,
                   NOM_CHAM='SIGM_ELNO',
                   NOEUD='N3',
                   NOM_CMP='SIYY',
                   VALE_CALC=0.70710680000000004,
                   TOLE_MACHINE=1.E-3,
                   ANGL=135.0,
                   MAILLE='M1',),
                _F(RESULTAT=CO_FOUR1,
                   NOM_CHAM='SIGM_ELNO',
                   NOEUD='N7',
                   NOM_CMP='SIYY',
                   VALE_CALC=0.0,
                   TOLE_MACHINE=1.E-3,
                   CRITERE='ABSOLU',
                   ANGL=135.0,
                   MAILLE='M2',),
                _F(RESULTAT=CO_FOUR1,
                   NOM_CHAM='SIGM_ELNO',
                   NOEUD='N7',
                   NOM_CMP='SIYY',
                   VALE_CALC=0.0,
                   TOLE_MACHINE=1.E-3,
                   CRITERE='ABSOLU',
                   ANGL=135.0,
                   MAILLE='M3',),
                _F(RESULTAT=CO_FOUR1,
                   NOM_CHAM='SIGM_ELNO',
                   NOEUD='N7',
                   NOM_CMP='SIYY',
                   VALE_CALC=0.0,
                   TOLE_MACHINE=1.E-3,
                   CRITERE='ABSOLU',
                   ANGL=135.0,
                   MAILLE='M4',),
                _F(RESULTAT=CO_FOUR1,
                   NOM_CHAM='SIGM_ELNO',
                   NOEUD='N8',
                   NOM_CMP='SIYY',
                   VALE_CALC=0.35355340000000002,
                   TOLE_MACHINE=1.E-3,
                   ANGL=135.0,
                   MAILLE='M2',),
                _F(RESULTAT=CO_FOUR1,
                   NOM_CHAM='SIGM_ELNO',
                   NOEUD='N8',
                   NOM_CMP='SIYY',
                   VALE_CALC=0.35355340000000002,
                   TOLE_MACHINE=1.E-3,
                   ANGL=135.0,
                   MAILLE='M3',),
                _F(RESULTAT=CO_FOUR1,
                   NOM_CHAM='SIGM_ELNO',
                   NOEUD='N9',
                   NOM_CMP='SIYY',
                   VALE_CALC=0.70710680000000004,
                   TOLE_MACHINE=1.E-3,
                   ANGL=135.0,
                   MAILLE='M1',),
                _F(RESULTAT=CO_FOUR1,
                   NOM_CHAM='SIGM_ELNO',
                   NOEUD='N9',
                   NOM_CMP='SIYY',
                   VALE_CALC=0.70710680000000004,
                   TOLE_MACHINE=1.E-3,
                   ANGL=135.0,
                   MAILLE='M2',),
                _F(RESULTAT=CO_FOUR1,
                   NOM_CHAM='SIGM_ELNO',
                   NOEUD='N9',
                   NOM_CMP='SIYY',
                   VALE_CALC=0.70710680000000004,
                   TOLE_MACHINE=1.E-3,
                   ANGL=135.0,
                   MAILLE='M3',),
                _F(RESULTAT=CO_FOUR1,
                   NOM_CHAM='SIGM_ELNO',
                   NOEUD='N13',
                   NOM_CMP='SIYY',
                   VALE_CALC=0.0,
                   TOLE_MACHINE=1.E-3,
                   CRITERE='ABSOLU',
                   ANGL=135.0,
                   MAILLE='M4',),
                _F(RESULTAT=CO_FOUR1,
                   NOM_CHAM='SIGM_ELNO',
                   NOEUD='N15',
                   NOM_CMP='SIYY',
                   VALE_CALC=0.70710680000000004,
                   TOLE_MACHINE=1.E-3,
                   ANGL=135.0,
                   MAILLE='M3',),
                _F(RESULTAT=CO_FOUR1,
                   NOM_CHAM='SIGM_ELNO',
                   NOEUD='N15',
                   NOM_CMP='SIYY',
                   VALE_CALC=0.705993249,
                   VALE_REFE=0.70710680000000004,
                   REFERENCE='NON_DEFINI',
                   ANGL=135.0,
                   PRECISION=2.E-3,
                   MAILLE='M4',),
                ),
          )

TEST_RESU(RESU=(_F(
                   RESULTAT=CO_FOUR1,
                   NOM_CHAM='SIEQ_ELNO',
                   NOEUD='N3',
                   NOM_CMP='VMIS',
                   VALE_CALC=0.70711000000000002,
                   TOLE_MACHINE=1.E-3,
                   ANGL=45.0,
                   MAILLE='M1',),
                _F(
                   RESULTAT=CO_FOUR1,
                   NOM_CHAM='SIEQ_ELNO',
                   NOEUD='N6',
                   NOM_CMP='TRESCA',
                   VALE_CALC=0.70711000000000002,
                   TOLE_MACHINE=1.E-3,
                   ANGL=45.0,
                   MAILLE='M1',),
                ),
          )

# ----------------------------------------------------------------------
#                     COMBINAISON DE CHAMPS
# ----------------------------------------------------------------------
DEP45=CREA_CHAMP(  OPERATION='EXTR', TYPE_CHAM='NOEU_DEPL_R',
                   NOM_CHAM='DEPL', RESULTAT=CO_FOUR1,
                   ANGL=ANGL1    )


SIG45=CREA_CHAMP(OPERATION='EXTR',TYPE_CHAM='ELNO_SIEF_R',
                  RESULTAT=CO_FOUR1,ANGL=ANGL1,
                  NOM_CHAM='SIGM_ELNO'),


DEP135=CREA_CHAMP(OPERATION='EXTR',TYPE_CHAM='NOEU_DEPL_R',
                  RESULTAT=CO_FOUR1,ANGL=ANGL2,
                  NOM_CHAM='DEPL'),

SIG135=CREA_CHAMP(OPERATION='EXTR',TYPE_CHAM='ELNO_SIEF_R',
                  RESULTAT=CO_FOUR1,ANGL=ANGL2,
                  NOM_CHAM='SIGM_ELNO'),


DEPRZ = CREA_CHAMP(OPERATION='ASSE',MODELE=MO,TYPE_CHAM='NOEU_DEPL_R',
                   OPTION='DEPL',
                   ASSE=(_F( CHAM_GD=DEP45,TOUT='OUI',CUMUL='OUI',COEF_R=1.),
                         _F( CHAM_GD=DEP135,TOUT='OUI',CUMUL='OUI',COEF_R=1.),),)

TEST_RESU(CHAM_NO=(_F(NOEUD='N7',
                      CRITERE='ABSOLU',
                      NOM_CMP='DX',
                      CHAM_GD=DEPRZ,
                      VALE_CALC=0.0,
                      TOLE_MACHINE=1.E-3,),
                   _F(NOEUD='N7',
                      CRITERE='ABSOLU',
                      NOM_CMP='DY',
                      CHAM_GD=DEPRZ,
                      VALE_CALC=0.0,
                      TOLE_MACHINE=1.E-3,),
                   _F(NOEUD='N13',
                      CRITERE='ABSOLU',
                      NOM_CMP='DX',
                      CHAM_GD=DEPRZ,
                      VALE_CALC=0.0,
                      TOLE_MACHINE=1.E-3,),
                   _F(NOEUD='N13',
                      CRITERE='ABSOLU',
                      NOM_CMP='DY',
                      CHAM_GD=DEPRZ,
                      VALE_CALC=0.0,
                      TOLE_MACHINE=1.E-3,),
                   ),
          )

DEPTH = CREA_CHAMP(OPERATION='ASSE',MODELE=MO,TYPE_CHAM='NOEU_DEPL_R',
                   OPTION='DEPL',
                   ASSE=(_F( CHAM_GD=DEP45,TOUT='OUI',CUMUL='OUI',COEF_R=1.),
                         _F( CHAM_GD=DEP135,TOUT='OUI',CUMUL='OUI',COEF_R=-1.),),)

TEST_RESU(CHAM_NO=(_F(NOEUD='N7',
                      CRITERE='ABSOLU',
                      NOM_CMP='DZ',
                      CHAM_GD=DEPTH,
                      VALE_CALC=0.0,
                      TOLE_MACHINE=1.E-3,),
                   _F(NOEUD='N13',
                      CRITERE='ABSOLU',
                      NOM_CMP='DZ',
                      CHAM_GD=DEPTH,
                      VALE_CALC=0.0,
                      TOLE_MACHINE=1.E-3,),
                   ),
          )

SIGRZ = CREA_CHAMP(OPERATION='ASSE',MODELE=MO,TYPE_CHAM='ELNO_SIEF_R',
                   OPTION='SIGM_ELNO',
                   ASSE=(_F( CHAM_GD=SIG45,TOUT='OUI',CUMUL='OUI',COEF_R=1.),
                         _F( CHAM_GD=SIG135,TOUT='OUI',CUMUL='OUI',COEF_R=1.),),)

TEST_RESU(CHAM_ELEM=(_F(NOEUD='N3',
                        CRITERE='ABSOLU',
                        NOM_CMP='SIXX',
                        MAILLE='M1',
                        CHAM_GD=SIGRZ,
                        VALE_CALC=0.0,
                        TOLE_MACHINE=1.E-3,),
                     _F(NOEUD='N7',
                        CRITERE='ABSOLU',
                        NOM_CMP='SIXX',
                        MAILLE='M2',
                        CHAM_GD=SIGRZ,
                        VALE_CALC=0.0,
                        TOLE_MACHINE=1.E-3,),
                     _F(NOEUD='N7',
                        CRITERE='ABSOLU',
                        NOM_CMP='SIXX',
                        MAILLE='M3',
                        CHAM_GD=SIGRZ,
                        VALE_CALC=0.0,
                        TOLE_MACHINE=1.E-3,),
                     _F(NOEUD='N7',
                        CRITERE='ABSOLU',
                        NOM_CMP='SIXX',
                        MAILLE='M4',
                        CHAM_GD=SIGRZ,
                        VALE_CALC=0.0,
                        TOLE_MACHINE=1.E-3,),
                     _F(NOEUD='N8',
                        CRITERE='ABSOLU',
                        NOM_CMP='SIXX',
                        MAILLE='M2',
                        CHAM_GD=SIGRZ,
                        VALE_CALC=0.0,
                        TOLE_MACHINE=1.E-3,),
                     _F(NOEUD='N8',
                        CRITERE='ABSOLU',
                        NOM_CMP='SIXX',
                        MAILLE='M3',
                        CHAM_GD=SIGRZ,
                        VALE_CALC=0.0,
                        TOLE_MACHINE=1.E-3,),
                     _F(NOEUD='N9',
                        CRITERE='ABSOLU',
                        NOM_CMP='SIXX',
                        MAILLE='M1',
                        CHAM_GD=SIGRZ,
                        VALE_CALC=0.0,
                        TOLE_MACHINE=1.E-3,),
                     _F(NOEUD='N9',
                        CRITERE='ABSOLU',
                        NOM_CMP='SIXX',
                        MAILLE='M2',
                        CHAM_GD=SIGRZ,
                        VALE_CALC=0.0,
                        TOLE_MACHINE=1.E-3,),
                     _F(NOEUD='N9',
                        CRITERE='ABSOLU',
                        NOM_CMP='SIXX',
                        MAILLE='M3',
                        CHAM_GD=SIGRZ,
                        VALE_CALC=0.0,
                        TOLE_MACHINE=1.E-3,),
                     _F(NOEUD='N13',
                        CRITERE='ABSOLU',
                        NOM_CMP='SIXX',
                        MAILLE='M4',
                        CHAM_GD=SIGRZ,
                        VALE_CALC=0.0,
                        TOLE_MACHINE=1.E-3,),
                     _F(NOEUD='N15',
                        CRITERE='ABSOLU',
                        NOM_CMP='SIXX',
                        MAILLE='M3',
                        CHAM_GD=SIGRZ,
                        VALE_CALC=0.0,
                        TOLE_MACHINE=1.E-3,),
                     _F(NOEUD='N15',
                        CRITERE='ABSOLU',
                        NOM_CMP='SIXX',
                        MAILLE='M4',
                        CHAM_GD=SIGRZ,
                        VALE_CALC=0.0,
                        TOLE_MACHINE=1.E-3,),
                     _F(NOEUD='N3',
                        CRITERE='ABSOLU',
                        NOM_CMP='SIYY',
                        MAILLE='M1',
                        CHAM_GD=SIGRZ,
                        VALE_CALC=0.0,
                        TOLE_MACHINE=1.E-3,),
                     _F(NOEUD='N7',
                        CRITERE='ABSOLU',
                        NOM_CMP='SIYY',
                        MAILLE='M2',
                        CHAM_GD=SIGRZ,
                        VALE_CALC=0.0,
                        TOLE_MACHINE=1.E-3,),
                     _F(NOEUD='N7',
                        CRITERE='ABSOLU',
                        NOM_CMP='SIYY',
                        MAILLE='M3',
                        CHAM_GD=SIGRZ,
                        VALE_CALC=0.0,
                        TOLE_MACHINE=1.E-3,),
                     _F(NOEUD='N7',
                        CRITERE='ABSOLU',
                        NOM_CMP='SIYY',
                        MAILLE='M4',
                        CHAM_GD=SIGRZ,
                        VALE_CALC=0.0,
                        TOLE_MACHINE=1.E-3,),
                     _F(NOEUD='N8',
                        CRITERE='ABSOLU',
                        NOM_CMP='SIYY',
                        MAILLE='M2',
                        CHAM_GD=SIGRZ,
                        VALE_CALC=0.0,
                        TOLE_MACHINE=1.E-3,),
                     _F(NOEUD='N8',
                        CRITERE='ABSOLU',
                        NOM_CMP='SIYY',
                        MAILLE='M3',
                        CHAM_GD=SIGRZ,
                        VALE_CALC=0.0,
                        TOLE_MACHINE=1.E-3,),
                     _F(NOEUD='N9',
                        CRITERE='ABSOLU',
                        NOM_CMP='SIYY',
                        MAILLE='M1',
                        CHAM_GD=SIGRZ,
                        VALE_CALC=0.0,
                        TOLE_MACHINE=1.E-3,),
                     _F(NOEUD='N9',
                        CRITERE='ABSOLU',
                        NOM_CMP='SIYY',
                        MAILLE='M2',
                        CHAM_GD=SIGRZ,
                        VALE_CALC=0.0,
                        TOLE_MACHINE=1.E-3,),
                     _F(NOEUD='N9',
                        CRITERE='ABSOLU',
                        NOM_CMP='SIYY',
                        MAILLE='M3',
                        CHAM_GD=SIGRZ,
                        VALE_CALC=0.0,
                        TOLE_MACHINE=1.E-3,),
                     _F(NOEUD='N13',
                        CRITERE='ABSOLU',
                        NOM_CMP='SIYY',
                        MAILLE='M4',
                        CHAM_GD=SIGRZ,
                        VALE_CALC=0.0,
                        TOLE_MACHINE=1.E-3,),
                     _F(NOEUD='N15',
                        CRITERE='ABSOLU',
                        NOM_CMP='SIYY',
                        MAILLE='M3',
                        CHAM_GD=SIGRZ,
                        VALE_CALC=0.0,
                        TOLE_MACHINE=1.E-3,),
                     _F(NOEUD='N15',
                        CRITERE='ABSOLU',
                        NOM_CMP='SIYY',
                        MAILLE='M4',
                        CHAM_GD=SIGRZ,
                        VALE_CALC=0.0,
                        TOLE_MACHINE=1.E-3,),
                     _F(NOEUD='N3',
                        CRITERE='ABSOLU',
                        NOM_CMP='SIZZ',
                        MAILLE='M1',
                        CHAM_GD=SIGRZ,
                        VALE_CALC=0.0,
                        TOLE_MACHINE=1.E-3,),
                     _F(NOEUD='N7',
                        CRITERE='ABSOLU',
                        NOM_CMP='SIZZ',
                        MAILLE='M2',
                        CHAM_GD=SIGRZ,
                        VALE_CALC=0.0,
                        TOLE_MACHINE=1.E-3,),
                     _F(NOEUD='N7',
                        CRITERE='ABSOLU',
                        NOM_CMP='SIZZ',
                        MAILLE='M3',
                        CHAM_GD=SIGRZ,
                        VALE_CALC=0.0,
                        TOLE_MACHINE=1.E-3,),
                     _F(NOEUD='N7',
                        CRITERE='ABSOLU',
                        NOM_CMP='SIZZ',
                        MAILLE='M4',
                        CHAM_GD=SIGRZ,
                        VALE_CALC=0.0,
                        TOLE_MACHINE=1.E-3,),
                     _F(NOEUD='N8',
                        CRITERE='ABSOLU',
                        NOM_CMP='SIZZ',
                        MAILLE='M2',
                        CHAM_GD=SIGRZ,
                        VALE_CALC=0.0,
                        TOLE_MACHINE=1.E-3,),
                     _F(NOEUD='N8',
                        CRITERE='ABSOLU',
                        NOM_CMP='SIZZ',
                        MAILLE='M3',
                        CHAM_GD=SIGRZ,
                        VALE_CALC=0.0,
                        TOLE_MACHINE=1.E-3,),
                     _F(NOEUD='N9',
                        CRITERE='ABSOLU',
                        NOM_CMP='SIZZ',
                        MAILLE='M1',
                        CHAM_GD=SIGRZ,
                        VALE_CALC=0.0,
                        TOLE_MACHINE=1.E-3,),
                     _F(NOEUD='N9',
                        CRITERE='ABSOLU',
                        NOM_CMP='SIZZ',
                        MAILLE='M2',
                        CHAM_GD=SIGRZ,
                        VALE_CALC=0.0,
                        TOLE_MACHINE=1.E-3,),
                     _F(NOEUD='N9',
                        CRITERE='ABSOLU',
                        NOM_CMP='SIZZ',
                        MAILLE='M3',
                        CHAM_GD=SIGRZ,
                        VALE_CALC=0.0,
                        TOLE_MACHINE=1.E-3,),
                     _F(NOEUD='N13',
                        CRITERE='ABSOLU',
                        NOM_CMP='SIZZ',
                        MAILLE='M4',
                        CHAM_GD=SIGRZ,
                        VALE_CALC=0.0,
                        TOLE_MACHINE=1.E-3,),
                     _F(NOEUD='N15',
                        CRITERE='ABSOLU',
                        NOM_CMP='SIZZ',
                        MAILLE='M3',
                        CHAM_GD=SIGRZ,
                        VALE_CALC=0.0,
                        TOLE_MACHINE=1.E-3,),
                     _F(NOEUD='N15',
                        CRITERE='ABSOLU',
                        NOM_CMP='SIZZ',
                        MAILLE='M4',
                        CHAM_GD=SIGRZ,
                        VALE_CALC=0.0,
                        TOLE_MACHINE=1.E-3,),
                     _F(NOEUD='N3',
                        CRITERE='ABSOLU',
                        NOM_CMP='SIXY',
                        MAILLE='M1',
                        CHAM_GD=SIGRZ,
                        VALE_CALC=0.0,
                        TOLE_MACHINE=1.E-3,),
                     _F(NOEUD='N7',
                        CRITERE='ABSOLU',
                        NOM_CMP='SIXY',
                        MAILLE='M2',
                        CHAM_GD=SIGRZ,
                        VALE_CALC=0.0,
                        TOLE_MACHINE=1.E-3,),
                     _F(NOEUD='N7',
                        CRITERE='ABSOLU',
                        NOM_CMP='SIXY',
                        MAILLE='M3',
                        CHAM_GD=SIGRZ,
                        VALE_CALC=0.0,
                        TOLE_MACHINE=1.E-3,),
                     _F(NOEUD='N7',
                        CRITERE='ABSOLU',
                        NOM_CMP='SIXY',
                        MAILLE='M4',
                        CHAM_GD=SIGRZ,
                        VALE_CALC=0.0,
                        TOLE_MACHINE=1.E-3,),
                     _F(NOEUD='N8',
                        CRITERE='ABSOLU',
                        NOM_CMP='SIXY',
                        MAILLE='M2',
                        CHAM_GD=SIGRZ,
                        VALE_CALC=0.0,
                        TOLE_MACHINE=1.E-3,),
                     _F(NOEUD='N8',
                        CRITERE='ABSOLU',
                        NOM_CMP='SIXY',
                        MAILLE='M3',
                        CHAM_GD=SIGRZ,
                        VALE_CALC=0.0,
                        TOLE_MACHINE=1.E-3,),
                     _F(NOEUD='N9',
                        CRITERE='ABSOLU',
                        NOM_CMP='SIXY',
                        MAILLE='M1',
                        CHAM_GD=SIGRZ,
                        VALE_CALC=0.0,
                        TOLE_MACHINE=1.E-3,),
                     _F(NOEUD='N9',
                        CRITERE='ABSOLU',
                        NOM_CMP='SIXY',
                        MAILLE='M2',
                        CHAM_GD=SIGRZ,
                        VALE_CALC=0.0,
                        TOLE_MACHINE=1.E-3,),
                     _F(NOEUD='N9',
                        CRITERE='ABSOLU',
                        NOM_CMP='SIXY',
                        MAILLE='M3',
                        CHAM_GD=SIGRZ,
                        VALE_CALC=0.0,
                        TOLE_MACHINE=1.E-3,),
                     _F(NOEUD='N13',
                        CRITERE='ABSOLU',
                        NOM_CMP='SIXY',
                        MAILLE='M4',
                        CHAM_GD=SIGRZ,
                        VALE_CALC=0.0,
                        TOLE_MACHINE=1.E-3,),
                     _F(NOEUD='N15',
                        CRITERE='ABSOLU',
                        NOM_CMP='SIXY',
                        MAILLE='M3',
                        CHAM_GD=SIGRZ,
                        VALE_CALC=0.0,
                        TOLE_MACHINE=1.E-3,),
                     _F(NOEUD='N15',
                        CRITERE='ABSOLU',
                        NOM_CMP='SIXY',
                        MAILLE='M4',
                        CHAM_GD=SIGRZ,
                        VALE_CALC=0.0,
                        TOLE_MACHINE=1.E-3,),
                     ),
          )

SIGTH = CREA_CHAMP(OPERATION='ASSE',MODELE=MO,TYPE_CHAM='ELNO_SIEF_R',
                   OPTION='SIGM_ELNO',
                   ASSE=(_F( CHAM_GD=SIG45,TOUT='OUI',CUMUL='OUI',COEF_R=1.),
                         _F( CHAM_GD=SIG135,TOUT='OUI',CUMUL='OUI',COEF_R=-1.),),)

TEST_RESU(CHAM_ELEM=(_F(NOEUD='N3',
                        NOM_CMP='SIYY',
                        MAILLE='M1',
                        CHAM_GD=SIGTH,
                        VALE_CALC=-1.4142135,
                        TOLE_MACHINE=1.E-3,),
                     _F(NOEUD='N9',
                        NOM_CMP='SIYY',
                        MAILLE='M1',
                        CHAM_GD=SIGTH,
                        VALE_CALC=-1.4142135,
                        TOLE_MACHINE=1.E-3,),
                     _F(NOEUD='N9',
                        NOM_CMP='SIYY',
                        MAILLE='M3',
                        CHAM_GD=SIGTH,
                        VALE_CALC=-1.4142135,
                        TOLE_MACHINE=1.E-3,),
                     _F(NOEUD='N15',
                        NOM_CMP='SIYY',
                        MAILLE='M3',
                        CHAM_GD=SIGTH,
                        VALE_CALC=-1.4142135,
                        TOLE_MACHINE=1.E-3,),
                     _F(NOEUD='N15',
                        NOM_CMP='SIYY',
                        PRECISION=2.E-3,
                        MAILLE='M4',
                        CHAM_GD=SIGTH,
                        VALE_CALC=-1.411986498,
                        VALE_REFE=-1.4142135,
                        REFERENCE='NON_DEFINI',),
                     _F(NOEUD='N3',
                        CRITERE='ABSOLU',
                        NOM_CMP='SIXZ',
                        MAILLE='M1',
                        CHAM_GD=SIGTH,
                        VALE_CALC=0.0,
                        TOLE_MACHINE=1.E-3,),
                     _F(NOEUD='N7',
                        CRITERE='ABSOLU',
                        NOM_CMP='SIXZ',
                        MAILLE='M2',
                        CHAM_GD=SIGTH,
                        VALE_CALC=0.0,
                        TOLE_MACHINE=1.E-3,),
                     _F(NOEUD='N7',
                        CRITERE='ABSOLU',
                        NOM_CMP='SIXZ',
                        MAILLE='M3',
                        CHAM_GD=SIGTH,
                        VALE_CALC=0.0,
                        TOLE_MACHINE=1.E-3,),
                     _F(NOEUD='N7',
                        CRITERE='ABSOLU',
                        NOM_CMP='SIXZ',
                        MAILLE='M4',
                        CHAM_GD=SIGTH,
                        VALE_CALC=0.0,
                        TOLE_MACHINE=1.E-3,),
                     _F(NOEUD='N8',
                        CRITERE='ABSOLU',
                        NOM_CMP='SIXZ',
                        MAILLE='M2',
                        CHAM_GD=SIGTH,
                        VALE_CALC=0.0,
                        TOLE_MACHINE=1.E-3,),
                     _F(NOEUD='N8',
                        CRITERE='ABSOLU',
                        NOM_CMP='SIXZ',
                        MAILLE='M3',
                        CHAM_GD=SIGTH,
                        VALE_CALC=0.0,
                        TOLE_MACHINE=1.E-3,),
                     _F(NOEUD='N9',
                        CRITERE='ABSOLU',
                        NOM_CMP='SIXZ',
                        MAILLE='M1',
                        CHAM_GD=SIGTH,
                        VALE_CALC=0.0,
                        TOLE_MACHINE=1.E-3,),
                     _F(NOEUD='N9',
                        CRITERE='ABSOLU',
                        NOM_CMP='SIXZ',
                        MAILLE='M2',
                        CHAM_GD=SIGTH,
                        VALE_CALC=0.0,
                        TOLE_MACHINE=1.E-3,),
                     _F(NOEUD='N9',
                        CRITERE='ABSOLU',
                        NOM_CMP='SIXZ',
                        MAILLE='M3',
                        CHAM_GD=SIGTH,
                        VALE_CALC=0.0,
                        TOLE_MACHINE=1.E-3,),
                     _F(NOEUD='N13',
                        CRITERE='ABSOLU',
                        NOM_CMP='SIXZ',
                        MAILLE='M4',
                        CHAM_GD=SIGTH,
                        VALE_CALC=0.0,
                        TOLE_MACHINE=1.E-3,),
                     _F(NOEUD='N15',
                        CRITERE='ABSOLU',
                        NOM_CMP='SIXZ',
                        MAILLE='M3',
                        CHAM_GD=SIGTH,
                        VALE_CALC=0.0,
                        TOLE_MACHINE=1.E-3,),
                     _F(NOEUD='N15',
                        CRITERE='ABSOLU',
                        NOM_CMP='SIXZ',
                        MAILLE='M4',
                        CHAM_GD=SIGTH,
                        VALE_CALC=0.0,
                        TOLE_MACHINE=1.E-3,),
                     _F(NOEUD='N3',
                        CRITERE='ABSOLU',
                        NOM_CMP='SIYZ',
                        MAILLE='M1',
                        CHAM_GD=SIGTH,
                        VALE_CALC=0.0,
                        TOLE_MACHINE=1.E-3,),
                     _F(NOEUD='N7',
                        CRITERE='ABSOLU',
                        NOM_CMP='SIYZ',
                        MAILLE='M2',
                        CHAM_GD=SIGTH,
                        VALE_CALC=0.0,
                        TOLE_MACHINE=1.E-3,),
                     _F(NOEUD='N7',
                        CRITERE='ABSOLU',
                        NOM_CMP='SIYZ',
                        MAILLE='M3',
                        CHAM_GD=SIGTH,
                        VALE_CALC=0.0,
                        TOLE_MACHINE=1.E-3,),
                     _F(NOEUD='N7',
                        CRITERE='ABSOLU',
                        NOM_CMP='SIYZ',
                        MAILLE='M4',
                        CHAM_GD=SIGTH,
                        VALE_CALC=0.0,
                        TOLE_MACHINE=1.E-3,),
                     _F(NOEUD='N8',
                        CRITERE='ABSOLU',
                        NOM_CMP='SIYZ',
                        MAILLE='M2',
                        CHAM_GD=SIGTH,
                        VALE_CALC=0.0,
                        TOLE_MACHINE=1.E-3,),
                     _F(NOEUD='N8',
                        CRITERE='ABSOLU',
                        NOM_CMP='SIYZ',
                        MAILLE='M3',
                        CHAM_GD=SIGTH,
                        VALE_CALC=0.0,
                        TOLE_MACHINE=1.E-3,),
                     _F(NOEUD='N9',
                        CRITERE='ABSOLU',
                        NOM_CMP='SIYZ',
                        MAILLE='M1',
                        CHAM_GD=SIGTH,
                        VALE_CALC=0.0,
                        TOLE_MACHINE=1.E-3,),
                     _F(NOEUD='N9',
                        CRITERE='ABSOLU',
                        NOM_CMP='SIYZ',
                        MAILLE='M2',
                        CHAM_GD=SIGTH,
                        VALE_CALC=0.0,
                        TOLE_MACHINE=1.E-3,),
                     _F(NOEUD='N9',
                        CRITERE='ABSOLU',
                        NOM_CMP='SIYZ',
                        MAILLE='M3',
                        CHAM_GD=SIGTH,
                        VALE_CALC=0.0,
                        TOLE_MACHINE=1.E-3,),
                     _F(NOEUD='N13',
                        CRITERE='ABSOLU',
                        NOM_CMP='SIYZ',
                        MAILLE='M4',
                        CHAM_GD=SIGTH,
                        VALE_CALC=0.0,
                        TOLE_MACHINE=1.E-3,),
                     _F(NOEUD='N15',
                        CRITERE='ABSOLU',
                        NOM_CMP='SIYZ',
                        MAILLE='M3',
                        CHAM_GD=SIGTH,
                        VALE_CALC=0.0,
                        TOLE_MACHINE=1.E-3,),
                     _F(NOEUD='N15',
                        CRITERE='ABSOLU',
                        NOM_CMP='SIYZ',
                        MAILLE='M4',
                        CHAM_GD=SIGTH,
                        VALE_CALC=0.0,
                        TOLE_MACHINE=1.E-3,),
                     ),
          )

FIN( )
#
