# MODIF  DATE 07/02/2012   AUTEUR PELLET J.PELLET 
#
# TITRE FATIGUE, AMPLITUDE CONSTANTE, TEST DU CRITERE EN FORMULE
#            CONFIGURATION MANAGEMENT OF EDF VERSION
# ======================================================================
# COPYRIGHT (C) 1991 - 2012  EDF R&D                  WWW.CODE-ASTER.ORG
# THIS PROGRAM IS FREE SOFTWARE; YOU CAN REDISTRIBUTE IT AND/OR MODIFY
# IT UNDER THE TERMS OF THE GNU GENERAL PUBLIC LICENSE AS PUBLISHED BY
# THE FREE SOFTWARE FOUNDATION; EITHER VERSION 2 OF THE LICENSE, OR
# (AT YOUR OPTION) ANY LATER VERSION.
#
# THIS PROGRAM IS DISTRIBUTED IN THE HOPE THAT IT WILL BE USEFUL, BUT
# WITHOUT ANY WARRANTY; WITHOUT EVEN THE IMPLIED WARRANTY OF
# MERCHANTABILITY OR FITNESS FOR A PARTICULAR PURPOSE. SEE THE GNU
# GENERAL PUBLIC LICENSE FOR MORE DETAILS.
#
# YOU SHOULD HAVE RECEIVED A COPY OF THE GNU GENERAL PUBLIC LICENSE
# ALONG WITH THIS PROGRAM; IF NOT, WRITE TO EDF R&D CODE_ASTER,
#    1 AVENUE DU GENERAL DE GAULLE, 92141 CLAMART CEDEX, FRANCE.
# ======================================================================
# QUI VA RETROUVER LE CRITERE MATAKE_MODI_AC
#
# sslv135i.para = tps_job 60 mem_job 800Mo ncpus 1 liste_test S
#
#----------------------------------------------------------------------
#    Cas test sslv135i : cube 3D
#                        Essai de chargement cyclique bi-axial
#                        critere en formule
#----------------------------------------------------------------------
#        Unites : Newton , Millimetre , Seconde (N,MM,S,->Mpa)
#----------------------------------------------------------------------
#
#               y       a
#               I<------------->                     a = 10 mm
#                     Face1                                    2
#                   (dessus)                         S = 100 mm
#               P1              P2
#               o--------------o
#              /I             /I
#        P5   / I        P6  / I
#            o--+-----------o  I
#            I  I   Face5   I  I  Face4
#  Face3     I  I (derri.)  I  I (cote d.)
# (cote g.)  I  I           I  I
#            I  I  P3       I  I P4
#            I  o-----------I--o      - x
#            I /            I /
#         P7 I/          P8 I/
#            o--------------o
#
#          /       Face2
#         z      (dessous)
#
#
#    CHARGEMENT     FX(T) <=> +      FY(T) <=> x
#
#            I
#            I                 x
#            I
#   1.0E+4 N I     +        x     x
#            I  +     +        3s     4s
#           -I-----I-----I-----I-----I-----> T
#            I    1s    2s  +     +
#            I  x     x        +
#            I
#  -2.0E+4 N I     x
#            I
#
#
# L'AMPLITUDE DE FX(T) = 2.0E+4 N, SA VALEUR MOYENNE = 0.0
# L'AMPLITUDE DE FY(T) = 4.0E+4 N, SA VALEUR MOYENNE = 0.0
# A L'INSTANT 0S, FX(T) = 0.0 N  ET  FY(T) = 0.0 N
# A L'INSTANT 1S, FX(T) = 1.0E+4 N  ET  FY(T) = -2.0E+4 N
# A L'INSTANT 2S, FX(T) = 0.0 N  ET  FY(T) = 0.0 N
# A L'INSTANT 3S, FX(T) = -1.0E+4 N  ET  FY(T) = 2.0E+4 N
# A L'INSTANT 4S, FX(T) = 0.0 N  ET  FY(T) = 0.0 N
#
#----------------------------------------------------------------------
#
# DANS CE CAS TEST NOUS TESTONS LE CRITERE EN FORMULE AUX POINTS DE GAUSS
# ET AUX NOEUDS
#----------------------------------------------------------------------
#
#
#
DEBUT(CODE=_F(NOM='sslv135i',NIV_PUB_WEB='INTERNET'),DEBUG=_F(SDVERI='OUI'))

CUBE = LIRE_MAILLAGE(FORMAT='MED', )

CUBE=DEFI_GROUP(reuse = CUBE,
                ALARME='OUI',
                CREA_GROUP_NO=(_F(GROUP_MA='FACE1',
                                  CRIT_NOEUD='TOUS'),
                               _F(GROUP_MA='FACE2',
                                  CRIT_NOEUD='TOUS'),
                               _F(GROUP_MA='FACE3',
                                  CRIT_NOEUD='TOUS'),
                               _F(GROUP_MA='FACE4',
                                CRIT_NOEUD='TOUS'),
                               _F(GROUP_MA='FACE5',
                                  CRIT_NOEUD='TOUS'),
                               _F(GROUP_MA='FACE6',
                                  CRIT_NOEUD='TOUS')),
                MAILLAGE=CUBE,
               );

CUBE=DEFI_GROUP(reuse = CUBE,
                ALARME='OUI',
                CREA_GROUP_MA=(_F(OPTION='APPUI',
                                  TYPE_APPUI='AU_MOINS_UN',
                                  GROUP_NO='FACE1',
                                  NOM='FACE1_3D'),
                               _F(OPTION='APPUI',
                                  TYPE_APPUI='AU_MOINS_UN',
                                  GROUP_NO='FACE2',
                                  NOM='FACE2_3D'),
                               _F(OPTION='APPUI',
                                  TYPE_APPUI='AU_MOINS_UN',
                                  GROUP_NO='FACE3',
                                  NOM='FACE3_3D'),
                               _F(OPTION='APPUI',
                                  TYPE_APPUI='AU_MOINS_UN',
                                  GROUP_NO='FACE4',
                                  NOM='FACE4_3D'),
                               _F(OPTION='APPUI',
                                  TYPE_APPUI='AU_MOINS_UN',
                                  GROUP_NO='FACE5',
                                  NOM='FACE5_3D'),
                               _F(OPTION='APPUI',
                                  TYPE_APPUI='AU_MOINS_UN',
                                  GROUP_NO='FACE6',
                                  NOM='FACE6_3D')),
                MAILLAGE=CUBE,
               );

WHOL=DEFI_FONCTION(       NOM_PARA='SIGM',
                            INTERPOL='LOG',
                          PROL_DROITE='LINEAIRE',
                         PROL_GAUCHE='LINEAIRE',
                         VALE=(  138.,    1000000.,
                                 152.,     500000.,
                                 165.,     200000.,
                                 180.,     100000.,
                                 200.,      50000.,
                                 250.,      20000.,
                                 295.,      12000.,
                                 305.,      10000.,
                                 340.,       5000.,
                                 430.,       2000.,
                                 540.,       1000.,
                                 690.,        500.,
                                 930.,        200.,
                                1210.,        100.,
                                1590.,         50.,
                                2210.,         20.,
                                2900.,         10.,  )  )

#               _____________________________
#              I                             I
#              I     AMPLITUDE CONSTANTE     I
#              I_____________________________I
#

COEF   = DEFI_FONCTION ( NOM_PARA    ='INST',
                          PROL_DROITE  ='LINEAIRE',
                          PROL_GAUCHE ='LINEAIRE',
                          VALE        =( 0.,    0.,
                                         1.,  100.,
                                         2.,    0.,
                                         3., -100.,
                                         4.,    0.,
                                        )
                       )

ACIER   = DEFI_MATERIAU   ( ELAS           =_F( E         = 200000.,
                                                NU        = .3,
                                                ALPHA     = 0. ),
                            FATIGUE        =_F( WOHLER    = WHOL, ),

                          )

LINST = DEFI_LIST_REEL   ( DEBUT      =  0.,
                           INTERVALLE =_F (JUSQU_A= 4.0, NOMBRE = 8  )
                                         );

TROISD   = AFFE_MODELE    ( MAILLAGE   =    CUBE,
                            AFFE       =_F ( PHENOMENE    = 'MECANIQUE',
                                             MODELISATION = '3D',
                                             TOUT         = 'OUI'    ))

MAT   = AFFE_MATERIAU    ( MAILLAGE    =   CUBE,
                           AFFE        =_F ( TOUT       = 'OUI',
                                             MATER      = ACIER,
                                             ))



# POUR RETROUVER LE CRITERE MATAKE
CRIT_FAT =   FORMULE(
           NOM_PARA=('DTAUMA','NORMAX'),
           VALE=''' 1.5*( DTAUMA + max(0,NORMAX) ) '''
           )

WHOL_F =   FORMULE(
           NOM_PARA=('NBRUP'),
           VALE=''' 4098.3*(NBRUP**(-0.2693)) '''
           )

# CHARGEMENT SELON LES 2 AXES X ET Y
# ----------------------------------

TR_CS  = AFFE_CHAR_MECA (
           MODELE       =  TROISD,
           FACE_IMPO    =(_F( GROUP_MA= 'FACE3' ,DX=0.),
                          _F( GROUP_MA= 'FACE2' ,DY=0.) ),
           DDL_IMPO     =(_F( GROUP_NO= 'P3' , DZ=0.) ),
           FORCE_FACE   =(_F( GROUP_MA= 'FACE4', FX=1.),
                          _F( GROUP_MA= 'FACE1', FY=-2.) )
                         );

# CALCUL AVEC STAT_NON_LINE
# -------------------------

SOL_NL = STAT_NON_LINE ( TITRE      =
                'TEST TRACTION-COMPRESSION ALTERNEE - PLAN CRITIQUE',
                        MODELE     =   TROISD,
                        CHAM_MATER =   MAT,
                        EXCIT      =_F ( CHARGE       = TR_CS,
                                         FONC_MULT    = COEF,
                                         TYPE_CHARGE  = 'FIXE_CSTE'),
                        COMP_ELAS  =_F ( RELATION     = 'ELAS',
                                         DEFORMATION  = 'PETIT',
                                         TOUT         = 'OUI'    ),
                        INCREMENT  =_F ( LIST_INST    = LINST, ),
                        NEWTON     =_F ( MATRICE      = 'ELASTIQUE',
                                         REAC_INCR    = 0 ))
SOL_NL = CALC_ELEM( reuse    = SOL_NL,
                    RESULTAT = SOL_NL,
                    OPTION   = (
                                'EPSI_ELGA',
                                'SIGM_ELNO',
                                'EPSI_ELNO')
                  )

SOL_NL = CALC_NO( reuse    = SOL_NL,
                  RESULTAT = SOL_NL,
                  TOUT = 'OUI',
                  GROUP_MA = ('FACE1_3D', 'FACE2_3D', 'FACE3_3D','CUBE'),
                  OPTION   = ('SIGM_NOEU','EPSI_NOEU')
                )

# -------------------------
# CALCUL AVEC MECA_STATIQUE
# -------------------------

SOL_L = MECA_STATIQUE ( TITRE      =
                'TEST TRACTION-COMPRESSION ALTERNEE - PLAN CRITIQUE',
                        MODELE     =   TROISD,
                        CHAM_MATER =   MAT,
                        EXCIT      =_F ( CHARGE       = TR_CS,
                                         FONC_MULT    = COEF ),
                        LIST_INST  =   LINST,
                     )

SOL_L = CALC_ELEM( reuse      = SOL_L,
                   RESULTAT   = SOL_L,
                   OPTION     = ('EPSI_ELGA',
                                 'SIGM_ELNO',
                                 'EPSI_ELNO',
                                   )
                 )

SOL_L = CALC_NO( reuse    = SOL_L,
                 RESULTAT = SOL_L,
                 OPTION   = ('SIGM_NOEU','EPSI_NOEU')
               )


# TEST CRITERE FORMULE AVEC 'DOMA_NOEUD',
#########################################NOEUD
FATNLN00=CALC_FATIGUE( TYPE_CALCUL   = 'FATIGUE_MULTI',
                       OPTION        = 'DOMA_NOEUD',
                       TYPE_CHARGE   = 'PERIODIQUE',
                       RESULTAT      = SOL_NL,
                       CHAM_MATER    = MAT,
                       GROUP_MA      = ('FACE1', 'FACE2', 'FACE3'),
                       MAILLAGE      = CUBE,
                       CRITERE       = 'FORMULE_CRITERE',
                       FORMULE_GRDEQ   = CRIT_FAT,
                       COURBE_GRD_VIE  = 'WOHLER'
                     )

FATNLN01=CALC_FATIGUE( TYPE_CALCUL   = 'FATIGUE_MULTI',
                       OPTION        = 'DOMA_NOEUD',
                       TYPE_CHARGE   = 'PERIODIQUE',
                       RESULTAT      = SOL_NL,
                       CHAM_MATER    = MAT,
                       GROUP_MA      = ('FACE1', 'FACE2', 'FACE3'),
                       MAILLAGE      = CUBE,
                       CRITERE       = 'FORMULE_CRITERE',
                       FORMULE_GRDEQ   = CRIT_FAT,
                       COURBE_GRD_VIE  = 'FORM_VIE',
                       FORMULE_VIE = WHOL
                     )

FATNLN02=CALC_FATIGUE( TYPE_CALCUL   = 'FATIGUE_MULTI',
                       OPTION        = 'DOMA_NOEUD',
                       TYPE_CHARGE   = 'PERIODIQUE',
                       RESULTAT      = SOL_NL,
                       CHAM_MATER    = MAT,
                       GROUP_MA      = ('FACE1', 'FACE2', 'FACE3'),
                       MAILLAGE      = CUBE,
                       CRITERE       = 'FORMULE_CRITERE',
                       FORMULE_GRDEQ   = CRIT_FAT,
                       COURBE_GRD_VIE  = 'FORM_VIE',
                       FORMULE_VIE = WHOL_F
                       )


TEST_RESU(CHAM_NO=( _F( CHAM_GD = FATNLN00,
                        NOM_CMP = 'DTAUM1',
                        NOEUD = 'N1',
                        REFERENCE = 'ANALYTIQUE',
                        PRECISION = 1.0E-10,
                        VERSION = '7.01.07',
                        VALE = 1.5000000000000E+02 ),
                    _F( CHAM_GD = FATNLN00,
                        NOM_CMP = 'VNM1X',
                        NOEUD = 'N1',
                        REFERENCE = 'ANALYTIQUE',
                        PRECISION = 1.0E-10,
                        VERSION = '7.01.07',
                        VALE = 7.0710678118655E-01 ),
                    _F( CHAM_GD = FATNLN00,
                        NOM_CMP = 'VNM1Y',
                        NOEUD = 'N1',
                        REFERENCE = 'ANALYTIQUE',
                        PRECISION = 1.0E-10,
                        VERSION = '7.01.07',
                        VALE = 7.0710678118655E-01 ),
                    _F( CHAM_GD = FATNLN00,
                        NOM_CMP = 'VNM1Z',
                        NOEUD = 'N1',
                        REFERENCE = 'ANALYTIQUE',
                        PRECISION = 1.0E-10,
                        VERSION = '7.01.07',
                        VALE = 0.0000000000000E+00,
                        CRITERE = 'ABSOLU' ),
                    _F( CHAM_GD = FATNLN00,
                        NOM_CMP = 'SINMAX1',
                        NOEUD = 'N1',
                        REFERENCE = 'ANALYTIQUE',
                        PRECISION = 1.0E-10,
                        VERSION = '7.01.07',
                        VALE = 5.0000000000000E+01 ),
                    _F( CHAM_GD = FATNLN00,
                        NOM_CMP = 'SINMOY1',
                        NOEUD = 'N1',
                        REFERENCE = 'ANALYTIQUE',
                        PRECISION = 1.0E-10,
                        VERSION = '7.01.07',
                        VALE = 0.0000000000000E+00,
                        CRITERE = 'ABSOLU' ),
                    _F( CHAM_GD = FATNLN00,
                        NOM_CMP = 'EPNMAX1',
                        NOEUD = 'N1',
                        REFERENCE = 'ANALYTIQUE',
                        PRECISION = 1.0E-10,
                        VERSION = '7.01.07',
                        VALE = 1.7500000000000E-04 ),
                    _F( CHAM_GD = FATNLN00,
                        NOM_CMP = 'EPNMOY1',
                        NOEUD = 'N1',
                        REFERENCE = 'ANALYTIQUE',
                        PRECISION = 1.0E-10,
                        VERSION = '7.01.07',
                        VALE = 0.0000000000000E+00,
                        CRITERE = 'ABSOLU' ),
                    _F( CHAM_GD = FATNLN00,
                        NOM_CMP = 'SIGEQ1',
                        NOEUD = 'N1',
                        REFERENCE = 'ANALYTIQUE',
                        PRECISION = 1.0E-10,
                        VERSION = '7.01.07',
                        VALE = 3.0000000000000E+02 ),
                    _F( CHAM_GD = FATNLN00,
                        NOM_CMP = 'NBRUP1',
                        NOEUD = 'N1',
                        REFERENCE = 'ANALYTIQUE',
                        PRECISION = 1.0E-10,
                        VERSION = '7.01.07',
                        VALE = 1.0946000000000E+04 ),
                    _F( CHAM_GD = FATNLN00,
                        NOM_CMP = 'ENDO1',
                        NOEUD = 'N1',
                        REFERENCE = 'ANALYTIQUE',
                        PRECISION = 1.0E-10,
                        VERSION = '7.01.07',
                        VALE = 9.1356470832402E-05 ),
                    _F( CHAM_GD = FATNLN00,
                        NOM_CMP = 'DTAUM2',
                        NOEUD = 'N1',
                        REFERENCE = 'ANALYTIQUE',
                        PRECISION = 1.0E-10,
                        VERSION = '7.01.07',
                        VALE = 1.5000000000000E+02 ),
                    _F( CHAM_GD = FATNLN00,
                        NOM_CMP = 'VNM2X',
                        NOEUD = 'N1',
                        REFERENCE = 'ANALYTIQUE',
                        PRECISION = 1.0E-10,
                        VERSION = '7.01.07',
                        VALE = -7.0710678118655E-01 ),
                    _F( CHAM_GD = FATNLN00,
                        NOM_CMP = 'VNM2Y',
                        NOEUD = 'N1',
                        REFERENCE = 'ANALYTIQUE',
                        PRECISION = 1.0E-10,
                        VERSION = '7.01.07',
                        VALE = 7.0710678118655E-01 ),
                    _F( CHAM_GD = FATNLN00,
                        NOM_CMP = 'VNM2Z',
                        NOEUD = 'N1',
                        REFERENCE = 'ANALYTIQUE',
                        PRECISION = 1.0E-10,
                        VERSION = '7.01.07',
                        VALE = 0.0000000000000E+00,
                        CRITERE = 'ABSOLU' ),
                    _F( CHAM_GD = FATNLN00,
                        NOM_CMP = 'SINMAX2',
                        NOEUD = 'N1',
                        REFERENCE = 'ANALYTIQUE',
                        PRECISION = 1.0E-10,
                        VERSION = '7.01.07',
                        VALE = 5.0000000000000E+01 ),
                    _F( CHAM_GD = FATNLN00,
                        NOM_CMP = 'SINMOY2',
                        NOEUD = 'N1',
                        REFERENCE = 'ANALYTIQUE',
                        PRECISION = 1.0E-10,
                        VERSION = '7.01.07',
                        VALE = 0.0000000000000E+00,
                        CRITERE = 'ABSOLU' ),
                    _F( CHAM_GD = FATNLN00,
                        NOM_CMP = 'EPNMAX2',
                        NOEUD = 'N1',
                        REFERENCE = 'ANALYTIQUE',
                        PRECISION = 1.0E-10,
                        VERSION = '7.01.07',
                        VALE = 1.7500000000000E-04 ),
                    _F( CHAM_GD = FATNLN00,
                        NOM_CMP = 'EPNMOY2',
                        NOEUD = 'N1',
                        REFERENCE = 'ANALYTIQUE',
                        PRECISION = 1.0E-10,
                        VERSION = '7.01.07',
                        VALE = 0.0000000000000E+00,
                        CRITERE = 'ABSOLU' ),
                    _F( CHAM_GD = FATNLN00,
                        NOM_CMP = 'SIGEQ2',
                        NOEUD = 'N1',
                        REFERENCE = 'ANALYTIQUE',
                        PRECISION = 1.0E-10,
                        VERSION = '7.01.07',
                        VALE = 3.0000000000000E+02 ),
                    _F( CHAM_GD = FATNLN00,
                        NOM_CMP = 'NBRUP2',
                        NOEUD = 'N1',
                        REFERENCE = 'ANALYTIQUE',
                        PRECISION = 1.0E-10,
                        VERSION = '7.01.07',
                        VALE = 1.0946000000000E+04 ),
                    _F( CHAM_GD = FATNLN00,
                        NOM_CMP = 'ENDO2',
                        NOEUD = 'N1',
                        REFERENCE = 'ANALYTIQUE',
                        PRECISION = 1.0E-10,
                        VERSION = '7.01.07',
                        VALE = 9.1356470832402E-05 )
                )
          )

TEST_RESU(CHAM_NO=( _F( CHAM_GD = FATNLN01,
                        NOM_CMP = 'DTAUM1',
                        NOEUD = 'N1',
                        REFERENCE = 'ANALYTIQUE',
                        PRECISION = 1.0E-10,
                        VERSION = '7.01.07',
                        VALE = 1.5000000000000E+02 ),
                    _F( CHAM_GD = FATNLN01,
                        NOM_CMP = 'VNM1X',
                        NOEUD = 'N1',
                        REFERENCE = 'ANALYTIQUE',
                        PRECISION = 1.0E-10,
                        VERSION = '7.01.07',
                        VALE = 7.0710678118655E-01 ),
                    _F( CHAM_GD = FATNLN01,
                        NOM_CMP = 'VNM1Y',
                        NOEUD = 'N1',
                        REFERENCE = 'ANALYTIQUE',
                        PRECISION = 1.0E-10,
                        VERSION = '7.01.07',
                        VALE = 7.0710678118655E-01 ),
                    _F( CHAM_GD = FATNLN01,
                        NOM_CMP = 'VNM1Z',
                        NOEUD = 'N1',
                        REFERENCE = 'ANALYTIQUE',
                        PRECISION = 1.0E-10,
                        VERSION = '7.01.07',
                        VALE = 0.0000000000000E+00,
                        CRITERE = 'ABSOLU' ),
                    _F( CHAM_GD = FATNLN01,
                        NOM_CMP = 'SINMAX1',
                        NOEUD = 'N1',
                        REFERENCE = 'ANALYTIQUE',
                        PRECISION = 1.0E-10,
                        VERSION = '7.01.07',
                        VALE = 5.0000000000000E+01 ),
                    _F( CHAM_GD = FATNLN01,
                        NOM_CMP = 'SINMOY1',
                        NOEUD = 'N1',
                        REFERENCE = 'ANALYTIQUE',
                        PRECISION = 1.0E-10,
                        VERSION = '7.01.07',
                        VALE = 0.0000000000000E+00,
                        CRITERE = 'ABSOLU' ),
                    _F( CHAM_GD = FATNLN01,
                        NOM_CMP = 'EPNMAX1',
                        NOEUD = 'N1',
                        REFERENCE = 'ANALYTIQUE',
                        PRECISION = 1.0E-10,
                        VERSION = '7.01.07',
                        VALE = 1.7500000000000E-04 ),
                    _F( CHAM_GD = FATNLN01,
                        NOM_CMP = 'EPNMOY1',
                        NOEUD = 'N1',
                        REFERENCE = 'ANALYTIQUE',
                        PRECISION = 1.0E-10,
                        VERSION = '7.01.07',
                        VALE = 0.0000000000000E+00,
                        CRITERE = 'ABSOLU' ),
                    _F( CHAM_GD = FATNLN01,
                        NOM_CMP = 'SIGEQ1',
                        NOEUD = 'N1',
                        REFERENCE = 'ANALYTIQUE',
                        PRECISION = 1.0E-10,
                        VERSION = '7.01.07',
                        VALE = 3.0000000000000E+02 ),
                    _F( CHAM_GD = FATNLN01,
                        NOM_CMP = 'NBRUP1',
                        NOEUD = 'N1',
                        REFERENCE = 'ANALYTIQUE',
                        PRECISION = 1.0E-10,
                        VERSION = '7.01.07',
                        VALE = 1.0946000000000E+04 ),
                    _F( CHAM_GD = FATNLN01,
                        NOM_CMP = 'ENDO1',
                        NOEUD = 'N1',
                        REFERENCE = 'ANALYTIQUE',
                        PRECISION = 1.0E-10,
                        VERSION = '7.01.07',
                        VALE = 9.1356470832402E-05 ),
                    _F( CHAM_GD = FATNLN01,
                        NOM_CMP = 'DTAUM2',
                        NOEUD = 'N1',
                        REFERENCE = 'ANALYTIQUE',
                        PRECISION = 1.0E-10,
                        VERSION = '7.01.07',
                        VALE = 1.5000000000000E+02 ),
                    _F( CHAM_GD = FATNLN01,
                        NOM_CMP = 'VNM2X',
                        NOEUD = 'N1',
                        REFERENCE = 'ANALYTIQUE',
                        PRECISION = 1.0E-10,
                        VERSION = '7.01.07',
                        VALE = -7.0710678118655E-01 ),
                    _F( CHAM_GD = FATNLN01,
                        NOM_CMP = 'VNM2Y',
                        NOEUD = 'N1',
                        REFERENCE = 'ANALYTIQUE',
                        PRECISION = 1.0E-10,
                        VERSION = '7.01.07',
                        VALE = 7.0710678118655E-01 ),
                    _F( CHAM_GD = FATNLN01,
                        NOM_CMP = 'VNM2Z',
                        NOEUD = 'N1',
                        REFERENCE = 'ANALYTIQUE',
                        PRECISION = 1.0E-10,
                        VERSION = '7.01.07',
                        VALE = 0.0000000000000E+00,
                        CRITERE = 'ABSOLU' ),
                    _F( CHAM_GD = FATNLN01,
                        NOM_CMP = 'SINMAX2',
                        NOEUD = 'N1',
                        REFERENCE = 'ANALYTIQUE',
                        PRECISION = 1.0E-10,
                        VERSION = '7.01.07',
                        VALE = 5.0000000000000E+01 ),
                    _F( CHAM_GD = FATNLN01,
                        NOM_CMP = 'SINMOY2',
                        NOEUD = 'N1',
                        REFERENCE = 'ANALYTIQUE',
                        PRECISION = 1.0E-10,
                        VERSION = '7.01.07',
                        VALE = 0.0000000000000E+00,
                        CRITERE = 'ABSOLU' ),
                    _F( CHAM_GD = FATNLN01,
                        NOM_CMP = 'EPNMAX2',
                        NOEUD = 'N1',
                        REFERENCE = 'ANALYTIQUE',
                        PRECISION = 1.0E-10,
                        VERSION = '7.01.07',
                        VALE = 1.7500000000000E-04 ),
                    _F( CHAM_GD = FATNLN01,
                        NOM_CMP = 'EPNMOY2',
                        NOEUD = 'N1',
                        REFERENCE = 'ANALYTIQUE',
                        PRECISION = 1.0E-10,
                        VERSION = '7.01.07',
                        VALE = 0.0000000000000E+00,
                        CRITERE = 'ABSOLU' ),
                    _F( CHAM_GD = FATNLN01,
                        NOM_CMP = 'SIGEQ2',
                        NOEUD = 'N1',
                        REFERENCE = 'ANALYTIQUE',
                        PRECISION = 1.0E-10,
                        VERSION = '7.01.07',
                        VALE = 3.0000000000000E+02 ),
                    _F( CHAM_GD = FATNLN01,
                        NOM_CMP = 'NBRUP2',
                        NOEUD = 'N1',
                        REFERENCE = 'ANALYTIQUE',
                        PRECISION = 1.0E-10,
                        VERSION = '7.01.07',
                        VALE = 1.0946000000000E+04 ),
                    _F( CHAM_GD = FATNLN01,
                        NOM_CMP = 'ENDO2',
                        NOEUD = 'N1',
                        REFERENCE = 'ANALYTIQUE',
                        PRECISION = 1.0E-10,
                        VERSION = '7.01.07',
                        VALE = 9.1356470832402E-05 )
                )
          )

TEST_RESU(CHAM_NO=( _F( CHAM_GD = FATNLN02,
                        NOM_CMP = 'DTAUM1',
                        NOEUD = 'N1',
                        REFERENCE = 'ANALYTIQUE',
                        PRECISION = 1.0E-10,
                        VERSION = '7.01.07',
                        VALE = 1.5000000000000E+02 ),
                    _F( CHAM_GD = FATNLN02,
                        NOM_CMP = 'VNM1X',
                        NOEUD = 'N1',
                        REFERENCE = 'ANALYTIQUE',
                        PRECISION = 1.0E-10,
                        VERSION = '7.01.07',
                        VALE = 7.0710678118655E-01 ),
                    _F( CHAM_GD = FATNLN02,
                        NOM_CMP = 'VNM1Y',
                        NOEUD = 'N1',
                        REFERENCE = 'ANALYTIQUE',
                        PRECISION = 1.0E-10,
                        VERSION = '7.01.07',
                        VALE = 7.0710678118655E-01 ),
                    _F( CHAM_GD = FATNLN02,
                        NOM_CMP = 'VNM1Z',
                        NOEUD = 'N1',
                        REFERENCE = 'ANALYTIQUE',
                        PRECISION = 1.0E-10,
                        VERSION = '7.01.07',
                        VALE = 0.0000000000000E+00,
                        CRITERE = 'ABSOLU' ),
                    _F( CHAM_GD = FATNLN02,
                        NOM_CMP = 'SINMAX1',
                        NOEUD = 'N1',
                        REFERENCE = 'ANALYTIQUE',
                        PRECISION = 1.0E-10,
                        VERSION = '7.01.07',
                        VALE = 5.0000000000000E+01 ),
                    _F( CHAM_GD = FATNLN02,
                        NOM_CMP = 'SINMOY1',
                        NOEUD = 'N1',
                        REFERENCE = 'ANALYTIQUE',
                        PRECISION = 1.0E-10,
                        VERSION = '7.01.07',
                        VALE = 0.0000000000000E+00,
                        CRITERE = 'ABSOLU' ),
                    _F( CHAM_GD = FATNLN02,
                        NOM_CMP = 'EPNMAX1',
                        NOEUD = 'N1',
                        REFERENCE = 'ANALYTIQUE',
                        PRECISION = 1.0E-10,
                        VERSION = '7.01.07',
                        VALE = 1.7500000000000E-04 ),
                    _F( CHAM_GD = FATNLN02,
                        NOM_CMP = 'EPNMOY1',
                        NOEUD = 'N1',
                        REFERENCE = 'ANALYTIQUE',
                        PRECISION = 1.0E-10,
                        VERSION = '7.01.07',
                        VALE = 0.0000000000000E+00,
                        CRITERE = 'ABSOLU' ),
                    _F( CHAM_GD = FATNLN02,
                        NOM_CMP = 'SIGEQ1',
                        NOEUD = 'N1',
                        REFERENCE = 'ANALYTIQUE',
                        PRECISION = 1.0E-10,
                        VERSION = '7.01.07',
                        VALE = 3.0000000000000E+02 ),
                    _F( CHAM_GD = FATNLN02,
                        NOM_CMP = 'NBRUP1',
                        NOEUD = 'N1',
                        REFERENCE = 'ANALYTIQUE',
                        PRECISION = 4.0E-3,
                        VERSION = '7.01.07',
                        VALE = 1.6519E+04 ),
                    _F( CHAM_GD = FATNLN02,
                        NOM_CMP = 'ENDO1',
                        NOEUD = 'N1',
                        REFERENCE = 'ANALYTIQUE',
                        PRECISION = 4.0E-3,
                        VERSION = '7.01.07',
                        VALE = 6.05356E-05 ),

                    _F( CHAM_GD = FATNLN02,
                        NOM_CMP = 'DTAUM2',
                        NOEUD = 'N1',
                        REFERENCE = 'ANALYTIQUE',
                        PRECISION = 1.0E-10,
                        VERSION = '7.01.07',
                        VALE = 1.5000000000000E+02 ),
                    _F( CHAM_GD = FATNLN02,
                        NOM_CMP = 'VNM2X',
                        NOEUD = 'N1',
                        REFERENCE = 'ANALYTIQUE',
                        PRECISION = 1.0E-10,
                        VERSION = '7.01.07',
                        VALE = -7.0710678118655E-01 ),
                    _F( CHAM_GD = FATNLN02,
                        NOM_CMP = 'VNM2Y',
                        NOEUD = 'N1',
                        REFERENCE = 'ANALYTIQUE',
                        PRECISION = 1.0E-10,
                        VERSION = '7.01.07',
                        VALE = 7.0710678118655E-01 ),
                    _F( CHAM_GD = FATNLN02,
                        NOM_CMP = 'VNM2Z',
                        NOEUD = 'N1',
                        REFERENCE = 'ANALYTIQUE',
                        PRECISION = 1.0E-10,
                        VERSION = '7.01.07',
                        VALE = 0.0000000000000E+00,
                        CRITERE = 'ABSOLU' ),
                    _F( CHAM_GD = FATNLN02,
                        NOM_CMP = 'SINMAX2',
                        NOEUD = 'N1',
                        REFERENCE = 'ANALYTIQUE',
                        PRECISION = 1.0E-10,
                        VERSION = '7.01.07',
                        VALE = 5.0000000000000E+01 ),
                    _F( CHAM_GD = FATNLN02,
                        NOM_CMP = 'SINMOY2',
                        NOEUD = 'N1',
                        REFERENCE = 'ANALYTIQUE',
                        PRECISION = 1.0E-10,
                        VERSION = '7.01.07',
                        VALE = 0.0000000000000E+00,
                        CRITERE = 'ABSOLU' ),
                    _F( CHAM_GD = FATNLN02,
                        NOM_CMP = 'EPNMAX2',
                        NOEUD = 'N1',
                        REFERENCE = 'ANALYTIQUE',
                        PRECISION = 1.0E-10,
                        VERSION = '7.01.07',
                        VALE = 1.7500000000000E-04 ),
                    _F( CHAM_GD = FATNLN02,
                        NOM_CMP = 'EPNMOY2',
                        NOEUD = 'N1',
                        REFERENCE = 'ANALYTIQUE',
                        PRECISION = 1.0E-10,
                        VERSION = '7.01.07',
                        VALE = 0.0000000000000E+00,
                        CRITERE = 'ABSOLU' ),
                    _F( CHAM_GD = FATNLN02,
                        NOM_CMP = 'SIGEQ2',
                        NOEUD = 'N1',
                        REFERENCE = 'ANALYTIQUE',
                        PRECISION = 1.0E-10,
                        VERSION = '7.01.07',
                        VALE = 3.0000000000000E+02 ),
                    _F( CHAM_GD = FATNLN02,
                        NOM_CMP = 'NBRUP2',
                        NOEUD = 'N1',
                        REFERENCE = 'ANALYTIQUE',
                        PRECISION = 0.004,
                        VERSION = '7.01.07',
                        VALE = 1.6519E+04 ),
                    _F( CHAM_GD = FATNLN02,
                        NOM_CMP = 'ENDO2',
                        NOEUD = 'N1',
                        REFERENCE = 'ANALYTIQUE',
                        PRECISION = 0.004,
                        VERSION = '7.01.07',
                        VALE = 6.05356E-05 )
                )
          )

# TEST CRITERE FORMULE SUR ELGA
#########################################ELEM
FATI_L0=CALC_FATIGUE( TYPE_CALCUL   = 'FATIGUE_MULTI',
                     OPTION        = 'DOMA_ELGA',
                     TYPE_CHARGE   = 'PERIODIQUE',
                     MAILLAGE      = CUBE,
                     GROUP_MA      = ('CUBE'),
                     RESULTAT      = SOL_L,
                     CHAM_MATER    = MAT,
                     CRITERE       = 'FORMULE_CRITERE',
                     FORMULE_GRDEQ   = CRIT_FAT,
                     COURBE_GRD_VIE  = 'WOHLER'
                   )

FATI_L1=CALC_FATIGUE( TYPE_CALCUL   = 'FATIGUE_MULTI',
                     OPTION        = 'DOMA_ELGA',
                     TYPE_CHARGE   = 'PERIODIQUE',
                     MAILLAGE      = CUBE,
                     GROUP_MA      = ('CUBE'),
                     RESULTAT      = SOL_L,
                     CHAM_MATER    = MAT,
                     CRITERE       = 'FORMULE_CRITERE',
                     FORMULE_GRDEQ   = CRIT_FAT,
                     COURBE_GRD_VIE  = 'FORM_VIE',
                     FORMULE_VIE = WHOL
                   )

FATI_L2=CALC_FATIGUE( TYPE_CALCUL   = 'FATIGUE_MULTI',
                     OPTION        = 'DOMA_ELGA',
                     TYPE_CHARGE   = 'PERIODIQUE',
                     MAILLAGE      = CUBE,
                     GROUP_MA      = ('CUBE'),
                     RESULTAT      = SOL_L,
                     CHAM_MATER    = MAT,
                     CRITERE       = 'FORMULE_CRITERE',
                     FORMULE_GRDEQ   = CRIT_FAT,
                     COURBE_GRD_VIE  = 'FORM_VIE',
                     FORMULE_VIE = WHOL_F
                   )

TEST_RESU(CHAM_ELEM=( _F( CHAM_GD = FATI_L0,
                          NOM_CMP = 'DTAUM1',
                          MAILLE = 'M60',
                          POINT = 3,
                          REFERENCE = 'ANALYTIQUE',
                          PRECISION = 1.0E-10,
                          VERSION = '7.01.07',
                          VALE = 1.5000000000000E+02 ),
                      _F( CHAM_GD = FATI_L0,
                          NOM_CMP = 'VNM1X',
                          MAILLE = 'M60',
                          POINT = 3,
                          REFERENCE = 'ANALYTIQUE',
                          PRECISION = 1.0E-10,
                          VERSION = '7.01.07',
                          VALE = 7.0710678118655E-01 ),
                      _F( CHAM_GD = FATI_L0,
                          NOM_CMP = 'VNM1Y',
                          MAILLE = 'M60',
                          POINT = 3,
                          REFERENCE = 'ANALYTIQUE',
                          PRECISION = 1.0E-10,
                          VERSION = '7.01.07',
                          VALE = 7.0710678118655E-01 ),
                      _F( CHAM_GD = FATI_L0,
                          NOM_CMP = 'VNM1Z',
                          MAILLE = 'M60',
                          POINT = 3,
                          REFERENCE = 'ANALYTIQUE',
                          PRECISION = 1.0E-10,
                          VERSION = '7.01.07',
                          VALE = 0.0000000000000E+00,
                          CRITERE = 'ABSOLU' ),
                      _F( CHAM_GD = FATI_L0,
                          NOM_CMP = 'SINMAX1',
                          MAILLE = 'M60',
                          POINT = 3,
                          REFERENCE = 'ANALYTIQUE',
                          PRECISION = 1.0E-10,
                          VERSION = '7.01.07',
                          VALE = 5.0000000000000E+01 ),
                      _F( CHAM_GD = FATI_L0,
                          NOM_CMP = 'SINMOY1',
                          MAILLE = 'M60',
                          POINT = 3,
                          REFERENCE = 'ANALYTIQUE',
                          PRECISION = 1.0E-10,
                          VERSION = '7.01.07',
                          VALE = 0.0000000000000E+00,
                          CRITERE = 'ABSOLU' ),
                      _F( CHAM_GD = FATI_L0,
                          NOM_CMP = 'EPNMAX1',
                          MAILLE = 'M60',
                          POINT = 3,
                          REFERENCE = 'ANALYTIQUE',
                          PRECISION = 1.0E-10,
                          VERSION = '7.01.07',
                          VALE = 1.7500000000000E-04 ),
                      _F( CHAM_GD = FATI_L0,
                          NOM_CMP = 'EPNMOY1',
                          MAILLE = 'M60',
                          POINT = 3,
                          REFERENCE = 'ANALYTIQUE',
                          PRECISION = 1.0E-10,
                          VERSION = '7.01.07',
                          VALE = 0.0000000000000E+00,
                          CRITERE = 'ABSOLU' ),
                      _F( CHAM_GD = FATI_L0,
                          NOM_CMP = 'SIGEQ1',
                          MAILLE = 'M60',
                          POINT = 3,
                          REFERENCE = 'ANALYTIQUE',
                          PRECISION = 1.0E-10,
                          VERSION = '7.01.07',
                          VALE = 3.0000000000000E+02 ),
                      _F( CHAM_GD = FATI_L0,
                          NOM_CMP = 'NBRUP1',
                          MAILLE = 'M60',
                          POINT = 3,
                          REFERENCE = 'ANALYTIQUE',
                          PRECISION = 1.0E-10,
                          VERSION = '7.01.07',
                          VALE = 1.0946000000000E+04 ),
                      _F( CHAM_GD = FATI_L0,
                          NOM_CMP = 'ENDO1',
                          MAILLE = 'M60',
                          POINT = 3,
                          REFERENCE = 'ANALYTIQUE',
                          PRECISION = 1.0E-10,
                          VERSION = '7.01.07',
                          VALE = 9.1356470832402E-05 ),

                      _F( CHAM_GD = FATI_L0,
                          NOM_CMP = 'DTAUM2',
                          MAILLE = 'M60',
                          POINT = 3,
                          REFERENCE = 'ANALYTIQUE',
                          PRECISION = 1.0E-10,
                          VERSION = '7.01.07',
                          VALE = 1.5000000000000E+02 ),
                      _F( CHAM_GD = FATI_L0,
                          NOM_CMP = 'VNM2X',
                          MAILLE = 'M60',
                          POINT = 3,
                          REFERENCE = 'ANALYTIQUE',
                          PRECISION = 1.0E-10,
                          VERSION = '7.01.07',
                          VALE = -7.0710678118655E-01 ),
                      _F( CHAM_GD = FATI_L0,
                          NOM_CMP = 'VNM2Y',
                          MAILLE = 'M60',
                          POINT = 3,
                          REFERENCE = 'ANALYTIQUE',
                          PRECISION = 1.0E-10,
                          VERSION = '7.01.07',
                          VALE = 7.0710678118655E-01 ),
                      _F( CHAM_GD = FATI_L0,
                          NOM_CMP = 'VNM2Z',
                          MAILLE = 'M60',
                          POINT = 3,
                          REFERENCE = 'ANALYTIQUE',
                          PRECISION = 1.0E-10,
                          VERSION = '7.01.07',
                          VALE = 0.0000000000000E+00,
                          CRITERE = 'ABSOLU' ),
                      _F( CHAM_GD = FATI_L0,
                          NOM_CMP = 'SINMAX2',
                          MAILLE = 'M60',
                          POINT = 3,
                          REFERENCE = 'ANALYTIQUE',
                          PRECISION = 1.0E-10,
                          VERSION = '7.01.07',
                          VALE = 5.0000000000000E+01 ),
                      _F( CHAM_GD = FATI_L0,
                          NOM_CMP = 'SINMOY2',
                          MAILLE = 'M60',
                          POINT = 3,
                          REFERENCE = 'ANALYTIQUE',
                          PRECISION = 1.0E-10,
                          VERSION = '7.01.07',
                          VALE = 0.0000000000000E+00,
                          CRITERE = 'ABSOLU' ),
                      _F( CHAM_GD = FATI_L0,
                          NOM_CMP = 'EPNMAX2',
                          MAILLE = 'M60',
                          POINT = 3,
                          REFERENCE = 'ANALYTIQUE',
                          PRECISION = 1.0E-10,
                          VERSION = '7.01.07',
                          VALE = 1.7500000000000E-04 ),
                      _F( CHAM_GD = FATI_L0,
                          NOM_CMP = 'EPNMOY2',
                          MAILLE = 'M60',
                          POINT = 3,
                          REFERENCE = 'ANALYTIQUE',
                          PRECISION = 1.0E-10,
                          VERSION = '7.01.07',
                          VALE = 0.0000000000000E+00,
                          CRITERE = 'ABSOLU' ),
                      _F( CHAM_GD = FATI_L0,
                          NOM_CMP = 'SIGEQ2',
                          MAILLE = 'M60',
                          POINT = 3,
                          REFERENCE = 'ANALYTIQUE',
                          PRECISION = 1.0E-10,
                          VERSION = '7.01.07',
                          VALE = 3.0000000000000E+02 ),
                      _F( CHAM_GD = FATI_L0,
                          NOM_CMP = 'NBRUP2',
                          MAILLE = 'M60',
                          POINT = 7,
                          REFERENCE = 'ANALYTIQUE',
                          PRECISION = 1.0E-10,
                          VERSION = '7.01.07',
                          VALE = 1.0946000000000E+04 ),
                      _F( CHAM_GD = FATI_L0,
                          NOM_CMP = 'ENDO2',
                          MAILLE = 'M60',
                          POINT = 7,
                          REFERENCE = 'ANALYTIQUE',
                          PRECISION = 1.0E-10,
                          VERSION = '7.01.07',
                          VALE = 9.1356470832402E-05 )
                )
          )

TEST_RESU(CHAM_ELEM=( _F( CHAM_GD = FATI_L1,
                          NOM_CMP = 'DTAUM1',
                          MAILLE = 'M60',
                          POINT = 3,
                          REFERENCE = 'ANALYTIQUE',
                          PRECISION = 1.0E-10,
                          VERSION = '7.01.07',
                          VALE = 1.5000000000000E+02 ),
                      _F( CHAM_GD = FATI_L1,
                          NOM_CMP = 'VNM1X',
                          MAILLE = 'M60',
                          POINT = 3,
                          REFERENCE = 'ANALYTIQUE',
                          PRECISION = 1.0E-10,
                          VERSION = '7.01.07',
                          VALE = 7.0710678118655E-01 ),
                      _F( CHAM_GD = FATI_L1,
                          NOM_CMP = 'VNM1Y',
                          MAILLE = 'M60',
                          POINT = 3,
                          REFERENCE = 'ANALYTIQUE',
                          PRECISION = 1.0E-10,
                          VERSION = '7.01.07',
                          VALE = 7.0710678118655E-01 ),
                      _F( CHAM_GD = FATI_L1,
                          NOM_CMP = 'VNM1Z',
                          MAILLE = 'M60',
                          POINT = 3,
                          REFERENCE = 'ANALYTIQUE',
                          PRECISION = 1.0E-10,
                          VERSION = '7.01.07',
                          VALE = 0.0000000000000E+00,
                          CRITERE = 'ABSOLU' ),
                      _F( CHAM_GD = FATI_L1,
                          NOM_CMP = 'SINMAX1',
                          MAILLE = 'M60',
                          POINT = 3,
                          REFERENCE = 'ANALYTIQUE',
                          PRECISION = 1.0E-10,
                          VERSION = '7.01.07',
                          VALE = 5.0000000000000E+01 ),
                      _F( CHAM_GD = FATI_L1,
                          NOM_CMP = 'SINMOY1',
                          MAILLE = 'M60',
                          POINT = 3,
                          REFERENCE = 'ANALYTIQUE',
                          PRECISION = 1.0E-10,
                          VERSION = '7.01.07',
                          VALE = 0.0000000000000E+00,
                          CRITERE = 'ABSOLU' ),
                      _F( CHAM_GD = FATI_L1,
                          NOM_CMP = 'EPNMAX1',
                          MAILLE = 'M60',
                          POINT = 3,
                          REFERENCE = 'ANALYTIQUE',
                          PRECISION = 1.0E-10,
                          VERSION = '7.01.07',
                          VALE = 1.7500000000000E-04 ),
                      _F( CHAM_GD = FATI_L1,
                          NOM_CMP = 'EPNMOY1',
                          MAILLE = 'M60',
                          POINT = 3,
                          REFERENCE = 'ANALYTIQUE',
                          PRECISION = 1.0E-10,
                          VERSION = '7.01.07',
                          VALE = 0.0000000000000E+00,
                          CRITERE = 'ABSOLU' ),
                      _F( CHAM_GD = FATI_L1,
                          NOM_CMP = 'SIGEQ1',
                          MAILLE = 'M60',
                          POINT = 3,
                          REFERENCE = 'ANALYTIQUE',
                          PRECISION = 1.0E-10,
                          VERSION = '7.01.07',
                          VALE = 3.0000000000000E+02 ),
                      _F( CHAM_GD = FATI_L1,
                          NOM_CMP = 'NBRUP1',
                          MAILLE = 'M60',
                          POINT = 3,
                          REFERENCE = 'ANALYTIQUE',
                          PRECISION = 1.0E-10,
                          VERSION = '7.01.07',
                          VALE = 1.0946000000000E+04 ),
                      _F( CHAM_GD = FATI_L1,
                          NOM_CMP = 'ENDO1',
                          MAILLE = 'M60',
                          POINT = 3,
                          REFERENCE = 'ANALYTIQUE',
                          PRECISION = 1.0E-10,
                          VERSION = '7.01.07',
                          VALE = 9.1356470832402E-05 ),
                      _F( CHAM_GD = FATI_L1,
                          NOM_CMP = 'DTAUM2',
                          MAILLE = 'M60',
                          POINT = 3,
                          REFERENCE = 'ANALYTIQUE',
                          PRECISION = 1.0E-10,
                          VERSION = '7.01.07',
                          VALE = 1.5000000000000E+02 ),
                      _F( CHAM_GD = FATI_L1,
                          NOM_CMP = 'VNM2X',
                          MAILLE = 'M60',
                          POINT = 3,
                          REFERENCE = 'ANALYTIQUE',
                          PRECISION = 1.0E-10,
                          VERSION = '7.01.07',
                          VALE = -7.0710678118655E-01 ),
                      _F( CHAM_GD = FATI_L1,
                          NOM_CMP = 'VNM2Y',
                          MAILLE = 'M60',
                          POINT = 3,
                          REFERENCE = 'ANALYTIQUE',
                          PRECISION = 1.0E-10,
                          VERSION = '7.01.07',
                          VALE = 7.0710678118655E-01 ),
                      _F( CHAM_GD = FATI_L1,
                          NOM_CMP = 'VNM2Z',
                          MAILLE = 'M60',
                          POINT = 3,
                          REFERENCE = 'ANALYTIQUE',
                          PRECISION = 1.0E-10,
                          VERSION = '7.01.07',
                          VALE = 0.0000000000000E+00,
                          CRITERE = 'ABSOLU' ),
                      _F( CHAM_GD = FATI_L1,
                          NOM_CMP = 'SINMAX2',
                          MAILLE = 'M60',
                          POINT = 3,
                          REFERENCE = 'ANALYTIQUE',
                          PRECISION = 1.0E-10,
                          VERSION = '7.01.07',
                          VALE = 5.0000000000000E+01 ),
                      _F( CHAM_GD = FATI_L1,
                          NOM_CMP = 'SINMOY2',
                          MAILLE = 'M60',
                          POINT = 3,
                          REFERENCE = 'ANALYTIQUE',
                          PRECISION = 1.0E-10,
                          VERSION = '7.01.07',
                          VALE = 0.0000000000000E+00,
                          CRITERE = 'ABSOLU' ),
                      _F( CHAM_GD = FATI_L1,
                          NOM_CMP = 'EPNMAX2',
                          MAILLE = 'M60',
                          POINT = 3,
                          REFERENCE = 'ANALYTIQUE',
                          PRECISION = 1.0E-10,
                          VERSION = '7.01.07',
                          VALE = 1.7500000000000E-04 ),
                      _F( CHAM_GD = FATI_L1,
                          NOM_CMP = 'EPNMOY2',
                          MAILLE = 'M60',
                          POINT = 3,
                          REFERENCE = 'ANALYTIQUE',
                          PRECISION = 1.0E-10,
                          VERSION = '7.01.07',
                          VALE = 0.0000000000000E+00,
                          CRITERE = 'ABSOLU' ),
                      _F( CHAM_GD = FATI_L1,
                          NOM_CMP = 'SIGEQ2',
                          MAILLE = 'M60',
                          POINT = 3,
                          REFERENCE = 'ANALYTIQUE',
                          PRECISION = 1.0E-10,
                          VERSION = '7.01.07',
                          VALE = 3.0000000000000E+02 ),
                      _F( CHAM_GD = FATI_L1,
                          NOM_CMP = 'NBRUP2',
                          MAILLE = 'M60',
                          POINT = 7,
                          REFERENCE = 'ANALYTIQUE',
                          PRECISION = 1.0E-10,
                          VERSION = '7.01.07',
                          VALE = 1.0946000000000E+04 ),
                      _F( CHAM_GD = FATI_L1,
                          NOM_CMP = 'ENDO2',
                          MAILLE = 'M60',
                          POINT = 7,
                          REFERENCE = 'ANALYTIQUE',
                          PRECISION = 1.0E-10,
                          VERSION = '7.01.07',
                          VALE = 9.1356470832402E-05 )
                )
          )

TEST_RESU(CHAM_ELEM=( _F( CHAM_GD = FATI_L2,
                          NOM_CMP = 'DTAUM1',
                          MAILLE = 'M60',
                          POINT = 3,
                          REFERENCE = 'ANALYTIQUE',
                          PRECISION = 1.0E-10,
                          VERSION = '7.01.07',
                          VALE = 1.5000000000000E+02 ),
                      _F( CHAM_GD = FATI_L2,
                          NOM_CMP = 'VNM1X',
                          MAILLE = 'M60',
                          POINT = 3,
                          REFERENCE = 'ANALYTIQUE',
                          PRECISION = 1.0E-10,
                          VERSION = '7.01.07',
                          VALE = 7.0710678118655E-01 ),
                      _F( CHAM_GD = FATI_L2,
                          NOM_CMP = 'VNM1Y',
                          MAILLE = 'M60',
                          POINT = 3,
                          REFERENCE = 'ANALYTIQUE',
                          PRECISION = 1.0E-10,
                          VERSION = '7.01.07',
                          VALE = 7.0710678118655E-01 ),
                      _F( CHAM_GD = FATI_L2,
                          NOM_CMP = 'VNM1Z',
                          MAILLE = 'M60',
                          POINT = 3,
                          REFERENCE = 'ANALYTIQUE',
                          PRECISION = 1.0E-10,
                          VERSION = '7.01.07',
                          VALE = 0.0000000000000E+00,
                          CRITERE = 'ABSOLU' ),
                      _F( CHAM_GD = FATI_L2,
                          NOM_CMP = 'SINMAX1',
                          MAILLE = 'M60',
                          POINT = 3,
                          REFERENCE = 'ANALYTIQUE',
                          PRECISION = 1.0E-10,
                          VERSION = '7.01.07',
                          VALE = 5.0000000000000E+01 ),
                      _F( CHAM_GD = FATI_L2,
                          NOM_CMP = 'SINMOY1',
                          MAILLE = 'M60',
                          POINT = 3,
                          REFERENCE = 'ANALYTIQUE',
                          PRECISION = 1.0E-10,
                          VERSION = '7.01.07',
                          VALE = 0.0000000000000E+00,
                          CRITERE = 'ABSOLU' ),
                      _F( CHAM_GD = FATI_L2,
                          NOM_CMP = 'EPNMAX1',
                          MAILLE = 'M60',
                          POINT = 3,
                          REFERENCE = 'ANALYTIQUE',
                          PRECISION = 1.0E-10,
                          VERSION = '7.01.07',
                          VALE = 1.7500000000000E-04 ),
                      _F( CHAM_GD = FATI_L2,
                          NOM_CMP = 'EPNMOY1',
                          MAILLE = 'M60',
                          POINT = 3,
                          REFERENCE = 'ANALYTIQUE',
                          PRECISION = 1.0E-10,
                          VERSION = '7.01.07',
                          VALE = 0.0000000000000E+00,
                          CRITERE = 'ABSOLU' ),
                      _F( CHAM_GD = FATI_L2,
                          NOM_CMP = 'SIGEQ1',
                          MAILLE = 'M60',
                          POINT = 3,
                          REFERENCE = 'ANALYTIQUE',
                          PRECISION = 1.0E-10,
                          VERSION = '7.01.07',
                          VALE = 3.0000000000000E+02 ),
                      _F( CHAM_GD = FATI_L2,
                          NOM_CMP = 'NBRUP1',
                          MAILLE = 'M60',
                          POINT = 7,
                          REFERENCE = 'ANALYTIQUE',
                          PRECISION = 4.0E-3,
                          VERSION = '7.01.07',
                          VALE = 1.6519E+04 ),
                      _F( CHAM_GD = FATI_L2,
                          NOM_CMP = 'ENDO1',
                          MAILLE = 'M60',
                          POINT = 7,
                          REFERENCE = 'ANALYTIQUE',
                          PRECISION = 4.0E-3,
                          VERSION = '7.01.07',
                          VALE = 6.05356E-05 ),

                      _F( CHAM_GD = FATI_L2,
                          NOM_CMP = 'DTAUM2',
                          MAILLE = 'M60',
                          POINT = 3,
                          REFERENCE = 'ANALYTIQUE',
                          PRECISION = 1.0E-10,
                          VERSION = '7.01.07',
                          VALE = 1.5000000000000E+02 ),
                      _F( CHAM_GD = FATI_L2,
                          NOM_CMP = 'VNM2X',
                          MAILLE = 'M60',
                          POINT = 3,
                          REFERENCE = 'ANALYTIQUE',
                          PRECISION = 1.0E-10,
                          VERSION = '7.01.07',
                          VALE = -7.0710678118655E-01 ),
                      _F( CHAM_GD = FATI_L2,
                          NOM_CMP = 'VNM2Y',
                          MAILLE = 'M60',
                          POINT = 3,
                          REFERENCE = 'ANALYTIQUE',
                          PRECISION = 1.0E-10,
                          VERSION = '7.01.07',
                          VALE = 7.0710678118655E-01 ),
                      _F( CHAM_GD = FATI_L2,
                          NOM_CMP = 'VNM2Z',
                          MAILLE = 'M60',
                          POINT = 3,
                          REFERENCE = 'ANALYTIQUE',
                          PRECISION = 1.0E-10,
                          VERSION = '7.01.07',
                          VALE = 0.0000000000000E+00,
                          CRITERE = 'ABSOLU' ),
                      _F( CHAM_GD = FATI_L2,
                          NOM_CMP = 'SINMAX2',
                          MAILLE = 'M60',
                          POINT = 3,
                          REFERENCE = 'ANALYTIQUE',
                          PRECISION = 1.0E-10,
                          VERSION = '7.01.07',
                          VALE = 5.0000000000000E+01 ),
                      _F( CHAM_GD = FATI_L2,
                          NOM_CMP = 'SINMOY2',
                          MAILLE = 'M60',
                          POINT = 3,
                          REFERENCE = 'ANALYTIQUE',
                          PRECISION = 1.0E-10,
                          VERSION = '7.01.07',
                          VALE = 0.0000000000000E+00,
                          CRITERE = 'ABSOLU' ),
                      _F( CHAM_GD = FATI_L2,
                          NOM_CMP = 'EPNMAX2',
                          MAILLE = 'M60',
                          POINT = 3,
                          REFERENCE = 'ANALYTIQUE',
                          PRECISION = 1.0E-10,
                          VERSION = '7.01.07',
                          VALE = 1.7500000000000E-04 ),
                      _F( CHAM_GD = FATI_L2,
                          NOM_CMP = 'EPNMOY2',
                          MAILLE = 'M60',
                          POINT = 3,
                          REFERENCE = 'ANALYTIQUE',
                          PRECISION = 1.0E-10,
                          VERSION = '7.01.07',
                          VALE = 0.0000000000000E+00,
                          CRITERE = 'ABSOLU' ),
                      _F( CHAM_GD = FATI_L2,
                          NOM_CMP = 'SIGEQ2',
                          MAILLE = 'M60',
                          POINT = 3,
                          REFERENCE = 'ANALYTIQUE',
                          PRECISION = 1.0E-10,
                          VERSION = '7.01.07',
                          VALE = 3.0000000000000E+02 ),
                      _F( CHAM_GD = FATI_L2,
                          NOM_CMP = 'NBRUP2',
                          MAILLE = 'M60',
                          POINT = 7,
                          REFERENCE = 'ANALYTIQUE',
                          PRECISION = 4.0E-3,
                          VERSION = '7.01.07',
                          VALE = 1.6519E+04 ),
                      _F( CHAM_GD = FATI_L2,
                          NOM_CMP = 'ENDO2',
                          MAILLE = 'M60',
                          POINT = 7,
                          REFERENCE = 'ANALYTIQUE',
                          PRECISION = 4.0E-3,
                          VERSION = '7.01.07',
                          VALE = 6.05356E-05 )
                )
          )
FIN( )
