# MODIF  DATE 02/02/2011   AUTEUR PELLET J.PELLET 
# TITRE CYLINDRE EN D.P. (QUAD9)
# sslv100c.para = tps_job 60 mem_job 64Mo ncpus 1 liste_test S
#            CONFIGURATION MANAGEMENT OF EDF VERSION
# ======================================================================
# COPYRIGHT (C) 1991 - 2011  EDF R&D                  WWW.CODE-ASTER.ORG
# THIS PROGRAM IS FREE SOFTWARE; YOU CAN REDISTRIBUTE IT AND/OR MODIFY
# IT UNDER THE TERMS OF THE GNU GENERAL PUBLIC LICENSE AS PUBLISHED BY
# THE FREE SOFTWARE FOUNDATION; EITHER VERSION 2 OF THE LICENSE, OR
# (AT YOUR OPTION) ANY LATER VERSION.
#
# THIS PROGRAM IS DISTRIBUTED IN THE HOPE THAT IT WILL BE USEFUL, BUT
# WITHOUT ANY WARRANTY; WITHOUT EVEN THE IMPLIED WARRANTY OF
# MERCHANTABILITY OR FITNESS FOR A PARTICULAR PURPOSE. SEE THE GNU
# GENERAL PUBLIC LICENSE FOR MORE DETAILS.
#
# YOU SHOULD HAVE RECEIVED A COPY OF THE GNU GENERAL PUBLIC LICENSE
# ALONG WITH THIS PROGRAM; IF NOT, WRITE TO EDF R&D CODE_ASTER,
#    1 AVENUE DU GENERAL DE GAULLE, 92141 CLAMART CEDEX, FRANCE.
# ======================================================================
#CAS_TEST__: SSLV100C
# ----------------------------------------------------------------------
# SSLV100 G                  COMMANDES                          8/08/91
# CYLINDRE CREUX EN DEFORMATIONS PLANES
#
# MODELISATION : ELEMENTS MECANIQUE D_PLAN ( QUAD9)
# MAILLAGE     : ASTER (ISSU DE ALI-BABA)
# ----------------------------------------------------------------------
# GROUPES DE NOEUDS: A , B , C , D , E , F , BORDAB
# GROUPES DE MAILLES:  FACEAE , FACEEF
# ----------------------------------------------------------------------
#

DEBUT(CODE=_F(NOM='SSLV100C',NIV_PUB_WEB='INTERNET'),DEBUG=_F(SDVERI='OUI'))

M=LIRE_MAILLAGE(   )

MO=AFFE_MODELE(            MAILLAGE=M,
                       # VERIF       :   'MAILLE'
                                  AFFE=_F(  TOUT = 'OUI',
                                         PHENOMENE = 'MECANIQUE',
                                         MODELISATION = 'D_PLAN'))

MA=DEFI_MATERIAU(   ELAS=_F(  E     = 200000.,
                              NU    = 0.3,
                              ALPHA = 0.     ),
                    RCCM=_F(  M_KE  = 1.7,
                              N_KE  = 0.3,
                              SM    = 200.   ),
                )

CM=AFFE_MATERIAU(        MAILLAGE=M,
                                  AFFE=_F(  TOUT = 'OUI',
                                         MATER = MA))

CH=AFFE_CHAR_MECA(         MODELE=MO,
                              DDL_IMPO=_F(  GROUP_NO = 'BORDAB',  DY = 0.),
                             FACE_IMPO=_F(  GROUP_MA = 'FACEEF',  DNOR = 0.),
                              PRES_REP=_F(  GROUP_MA = 'FACEAE',  PRES = 60.))

RESU=MECA_STATIQUE(MODELE=MO,
                   CHAM_MATER=CM,
                   EXCIT=_F(CHARGE=CH,),
                    );

RESU=CALC_ELEM( reuse= RESU ,RESULTAT= RESU ,

                OPTION=('SIGM_ELNO',),
                )

#--------------------------------------------------------------------


CH1=INTE_MAIL_2D(   MAILLAGE=M,
                       DEFI_SEGMENT=_F(  ORIGINE = ( 9.2387974262238E-02,
                                                 3.8268297910690E-02, ),
                                    EXTREMITE = ( 1.8477588891983E-01,
                                                 7.6536655426025E-02, ))              )

CH2=INTE_MAIL_2D(   MAILLAGE=M,
                       DEFI_SEGMENT=_F(  ORIGINE = ( 0., 0., ),
                                    EXTREMITE = ( 1.8477588891983E-01,
                                                 7.6536655426025E-02, ))              )

T_RESU=POST_RELEVE_T( ACTION=(_F( INTITULE = 'CH1',
                                  CHEMIN = CH1,
                                  RESULTAT = RESU,
                                  NOM_CHAM =  'SIGM_ELNO',
                                  OPERATION = 'EXTRACTION',
                                  TOUT_CMP = 'OUI', ),
                              _F( INTITULE = 'CH2',
                                  CHEMIN = CH2,
                                  RESULTAT = RESU,
                                  NOM_CHAM =  'SIGM_ELNO',
                                  OPERATION = 'EXTRACTION',
                                  TOUT_CMP = 'OUI', ),
                              ),
                     ) ;

T_PMPB=POST_RCCM(  OPTION='PM_PB',
                   TYPE_RESU_MECA='EVOLUTION',
                   MATER=MA,
                   TRANSITOIRE=_F( TABL_RESU_MECA=T_RESU, ),
                )

#--------------------------------------------------------------------
TEST_TABLE(      TABLE=T_PMPB,
             FILTRE=(_F(NOM_PARA='INTITULE',
                        VALE_K='CH1' ),
                     _F(NOM_PARA='LIEU',
                        VALE_K='ORIG' ),),
             REFERENCE='NON_REGRESSION',
             NOM_PARA='PM',
                   VALE=8.00836E+01         )

TEST_TABLE(      TABLE=T_PMPB,
             FILTRE=(_F(NOM_PARA='INTITULE',
                        VALE_K='CH1' ),
                     _F(NOM_PARA='LIEU',
                        VALE_K='ORIG' ),),
             REFERENCE='NON_REGRESSION',
             NOM_PARA='PB',
                   VALE=5.46358E+01         )

TEST_TABLE(      TABLE=T_PMPB,
             FILTRE=(_F(NOM_PARA='INTITULE',
                        VALE_K='CH1' ),
                     _F(NOM_PARA='LIEU',
                        VALE_K='ORIG' ),),
             REFERENCE='NON_REGRESSION',
             NOM_PARA='PMB',
                   VALE=1.34719E+02         )

TEST_TABLE(      TABLE=T_PMPB,
             FILTRE=(_F(NOM_PARA='INTITULE',
                        VALE_K='CH1' ),
                     _F(NOM_PARA='LIEU',
                        VALE_K='EXTR' ),),
             REFERENCE='NON_REGRESSION',
             NOM_PARA='PMB',
                   VALE=2.54479E+01         )

#--------------------------------------------------------------------
TEST_TABLE(      TABLE=T_PMPB,
             FILTRE=(_F(NOM_PARA='INTITULE',
                        VALE_K='CH2' ),
                     _F(NOM_PARA='LIEU',
                        VALE_K='ORIG' ),),
             REFERENCE='NON_REGRESSION',
             NOM_PARA='PM',
                   VALE=8.00836E+01         )

TEST_TABLE(      TABLE=T_PMPB,
             FILTRE=(_F(NOM_PARA='INTITULE',
                        VALE_K='CH2' ),
                     _F(NOM_PARA='LIEU',
                        VALE_K='ORIG' ),),
             REFERENCE='NON_REGRESSION',
             NOM_PARA='PB',
                   VALE=5.46358E+01         )

TEST_TABLE(      TABLE=T_PMPB,
             FILTRE=(_F(NOM_PARA='INTITULE',
                        VALE_K='CH2' ),
                     _F(NOM_PARA='LIEU',
                        VALE_K='ORIG' ),),
             REFERENCE='NON_REGRESSION',
             NOM_PARA='PMB',
                   VALE=1.34719E+02         )

TEST_TABLE(      TABLE=T_PMPB,
             FILTRE=(_F(NOM_PARA='INTITULE',
                        VALE_K='CH2' ),
                     _F(NOM_PARA='LIEU',
                        VALE_K='EXTR' ),),
             REFERENCE='NON_REGRESSION',
             NOM_PARA='PMB',
                   VALE=2.54479E+01         )

#--------------------------------------------------------------------
TEST_RESU(RESU=(
   # DEPLACEMENTS

            _F(  RESULTAT = RESU, NUME_ORDRE=1, NOM_CHAM='DEPL',
           CRITERE = 'RELATIF',  PRECISION = 1.E-2,
         REFERENCE='ANALYTIQUE',
           GROUP_NO = 'A',        NOM_CMP = 'DX',           VALE = 5.72E-5),
            _F(  RESULTAT = RESU, NUME_ORDRE=1, NOM_CHAM='DEPL',
           CRITERE = 'ABSOLU',   PRECISION = 1.E-10,
         REFERENCE='ANALYTIQUE',
           GROUP_NO = 'A',        NOM_CMP = 'DY',           VALE = 0.),

            _F(  RESULTAT = RESU, NUME_ORDRE=1, NOM_CHAM='DEPL',
           CRITERE = 'RELATIF',  PRECISION = 1.E-2,
         REFERENCE='ANALYTIQUE',
           GROUP_NO = 'B',        NOM_CMP = 'DX',           VALE = 3.64E-5),
            _F(  RESULTAT = RESU, NUME_ORDRE=1, NOM_CHAM='DEPL',
           CRITERE = 'ABSOLU',   PRECISION = 1.E-2,
         REFERENCE='ANALYTIQUE',
           GROUP_NO = 'B',        NOM_CMP = 'DY',           VALE = 0.),
            _F(  RESULTAT = RESU, NUME_ORDRE=1, NOM_CHAM='DEPL',
           CRITERE = 'RELATIF',  PRECISION = 1.E-2,
         REFERENCE='ANALYTIQUE',
           GROUP_NO = 'C',        NOM_CMP = 'DX',           VALE = 5.28459E-5),
            _F(  RESULTAT = RESU, NUME_ORDRE=1, NOM_CHAM='DEPL',
           CRITERE = 'RELATIF',  PRECISION = 1.E-2,
         REFERENCE='ANALYTIQUE',
           GROUP_NO = 'C',        NOM_CMP = 'DY',           VALE = 2.18895E-5),
            _F(  RESULTAT = RESU, NUME_ORDRE=1, NOM_CHAM='DEPL',
           CRITERE = 'RELATIF',  PRECISION = 1.E-2,
         REFERENCE='ANALYTIQUE',
           GROUP_NO = 'D',        NOM_CMP = 'DX',           VALE = 3.36292E-5),
            _F(  RESULTAT = RESU, NUME_ORDRE=1, NOM_CHAM='DEPL',
           CRITERE = 'RELATIF',  PRECISION = 1.E-2,
         REFERENCE='ANALYTIQUE',
           GROUP_NO = 'D',        NOM_CMP = 'DY',           VALE = 1.39297E-5),
            _F(  RESULTAT = RESU, NUME_ORDRE=1, NOM_CHAM='DEPL',
           CRITERE = 'RELATIF',  PRECISION = 1.E-2,
         REFERENCE='ANALYTIQUE',
           GROUP_NO = 'E',        NOM_CMP = 'DX',           VALE = 4.04465E-5),
            _F(  RESULTAT = RESU, NUME_ORDRE=1, NOM_CHAM='DEPL',
           CRITERE = 'RELATIF',  PRECISION = 1.E-2,
         REFERENCE='ANALYTIQUE',
           GROUP_NO = 'E',        NOM_CMP = 'DY',           VALE = 4.04465E-5),
            _F(  RESULTAT = RESU, NUME_ORDRE=1, NOM_CHAM='DEPL',
           CRITERE = 'RELATIF',  PRECISION = 1.E-2,
         REFERENCE='ANALYTIQUE',
           GROUP_NO = 'F',        NOM_CMP = 'DX',           VALE = 2.57387E-5),
            _F(  RESULTAT = RESU, NUME_ORDRE=1, NOM_CHAM='DEPL',
           CRITERE = 'RELATIF',  PRECISION = 1.E-2,
         REFERENCE='ANALYTIQUE',
           GROUP_NO = 'F',        NOM_CMP = 'DY',           VALE = 2.57387E-5),


   # CONTRAINTES


            _F(  RESULTAT = RESU, NUME_ORDRE=1, NOM_CHAM='SIGM_ELNO',
            CRITERE = 'RELATIF',  PRECISION = 1.E-2,
         REFERENCE='ANALYTIQUE',
MAILLE = 'M1',      GROUP_NO = 'A',        NOM_CMP = 'SIXX',           VALE = -60.),
            _F(  RESULTAT = RESU, NUME_ORDRE=1, NOM_CHAM='SIGM_ELNO',
            CRITERE = 'RELATIF',  PRECISION = 1.E-2,
         REFERENCE='ANALYTIQUE',
MAILLE = 'M1',      GROUP_NO = 'A',        NOM_CMP = 'SIYY',           VALE = 100.),
            _F(  RESULTAT = RESU, NUME_ORDRE=1, NOM_CHAM='SIGM_ELNO',
            CRITERE = 'RELATIF',  PRECISION = 5.E-2,
         REFERENCE='ANALYTIQUE',
MAILLE = 'M1',      GROUP_NO = 'A',        NOM_CMP = 'SIZZ',           VALE = 12.),
            _F(  RESULTAT = RESU, NUME_ORDRE=1, NOM_CHAM='SIGM_ELNO',
            CRITERE = 'ABSOLU',   PRECISION = 1.E-2,
         REFERENCE='ANALYTIQUE',
MAILLE = 'M1',      GROUP_NO = 'A',        NOM_CMP = 'SIXY',           VALE = 0.),
#
            _F(  RESULTAT = RESU, NUME_ORDRE=1, NOM_CHAM='SIGM_ELNO',
            CRITERE = 'ABSOLU',   PRECISION = 1.E-1,
         REFERENCE='ANALYTIQUE',
MAILLE = 'M12',     GROUP_NO = 'B',        NOM_CMP = 'SIXX',           VALE = 0.),
            _F(  RESULTAT = RESU, NUME_ORDRE=1, NOM_CHAM='SIGM_ELNO',
            CRITERE = 'RELATIF',  PRECISION = 1.E-2,
         REFERENCE='ANALYTIQUE',
MAILLE = 'M12',     GROUP_NO = 'B',        NOM_CMP = 'SIYY',           VALE = 40.),
            _F(  RESULTAT = RESU, NUME_ORDRE=1, NOM_CHAM='SIGM_ELNO',
            CRITERE = 'RELATIF',  PRECISION = 1.E-2,
         REFERENCE='ANALYTIQUE',
MAILLE = 'M12',     GROUP_NO = 'B',        NOM_CMP = 'SIZZ',           VALE = 12.),
            _F(  RESULTAT = RESU, NUME_ORDRE=1, NOM_CHAM='SIGM_ELNO',
            CRITERE = 'ABSOLU',   PRECISION = 1.E-2,
         REFERENCE='ANALYTIQUE',
MAILLE = 'M12',     GROUP_NO = 'B',        NOM_CMP = 'SIXY',           VALE = 0.),
#
            _F(  RESULTAT = RESU, NUME_ORDRE=1, NOM_CHAM='SIGM_ELNO',
            CRITERE = 'RELATIF',  PRECISION = 2.E-2,
         REFERENCE='ANALYTIQUE',
MAILLE = 'M73',    GROUP_NO = 'C',        NOM_CMP = 'SIXX',         VALE = -36.56854),
            _F(  RESULTAT = RESU, NUME_ORDRE=1, NOM_CHAM='SIGM_ELNO',
            CRITERE = 'RELATIF',  PRECISION = 2.E-2,
         REFERENCE='ANALYTIQUE',
MAILLE = 'M85',    GROUP_NO = 'C',        NOM_CMP = 'SIXX',         VALE = -36.56854),
            _F(  RESULTAT = RESU, NUME_ORDRE=1, NOM_CHAM='SIGM_ELNO',
            CRITERE = 'RELATIF',  PRECISION = 1.E-2,
         REFERENCE='ANALYTIQUE',
MAILLE = 'M73',    GROUP_NO = 'C',        NOM_CMP = 'SIYY',         VALE = 76.56854),
            _F(  RESULTAT = RESU, NUME_ORDRE=1, NOM_CHAM='SIGM_ELNO',
            CRITERE = 'RELATIF',  PRECISION = 1.E-2,
         REFERENCE='ANALYTIQUE',
MAILLE = 'M85',    GROUP_NO = 'C',        NOM_CMP = 'SIYY',         VALE = 76.56854),
            _F(  RESULTAT = RESU, NUME_ORDRE=1, NOM_CHAM='SIGM_ELNO',
            CRITERE = 'RELATIF',  PRECISION = 3.E-2,
         REFERENCE='ANALYTIQUE',
MAILLE = 'M73',    GROUP_NO = 'C',        NOM_CMP = 'SIZZ',         VALE = 12.),
            _F(  RESULTAT = RESU, NUME_ORDRE=1, NOM_CHAM='SIGM_ELNO',
            CRITERE = 'RELATIF',  PRECISION = 3.E-2,
         REFERENCE='ANALYTIQUE',
MAILLE = 'M85',    GROUP_NO = 'C',        NOM_CMP = 'SIZZ',         VALE = 12.),
            _F(  RESULTAT = RESU, NUME_ORDRE=1, NOM_CHAM='SIGM_ELNO',
            CRITERE = 'RELATIF',  PRECISION = 1.E-2,
         REFERENCE='ANALYTIQUE',
MAILLE = 'M73',    GROUP_NO = 'C',        NOM_CMP = 'SIXY',         VALE = -56.56854),
            _F(  RESULTAT = RESU, NUME_ORDRE=1, NOM_CHAM='SIGM_ELNO',
            CRITERE = 'RELATIF',  PRECISION = 1.E-2,
         REFERENCE='ANALYTIQUE',
MAILLE = 'M85',    GROUP_NO = 'C',        NOM_CMP = 'SIXY',         VALE = -56.56854),
#
            _F(  RESULTAT = RESU, NUME_ORDRE=1, NOM_CHAM='SIGM_ELNO',
            CRITERE = 'RELATIF',  PRECISION = 2.E-2,
         REFERENCE='ANALYTIQUE',
MAILLE = 'M84',    GROUP_NO = 'D',        NOM_CMP = 'SIXX',         VALE = 5.85786),
            _F(  RESULTAT = RESU, NUME_ORDRE=1, NOM_CHAM='SIGM_ELNO',
            CRITERE = 'RELATIF',  PRECISION = 2.E-2,
         REFERENCE='ANALYTIQUE',
MAILLE = 'M96',    GROUP_NO = 'D',        NOM_CMP = 'SIXX',         VALE = 5.85786),
            _F(  RESULTAT = RESU, NUME_ORDRE=1, NOM_CHAM='SIGM_ELNO',
            CRITERE = 'RELATIF',  PRECISION = 1.E-2,
         REFERENCE='ANALYTIQUE',
MAILLE = 'M84',    GROUP_NO = 'D',        NOM_CMP = 'SIYY',         VALE = 34.14214),
            _F(  RESULTAT = RESU, NUME_ORDRE=1, NOM_CHAM='SIGM_ELNO',
            CRITERE = 'RELATIF',  PRECISION = 1.E-2,
         REFERENCE='ANALYTIQUE',
MAILLE = 'M96',    GROUP_NO = 'D',        NOM_CMP = 'SIYY',         VALE = 34.14214),
            _F(  RESULTAT = RESU, NUME_ORDRE=1, NOM_CHAM='SIGM_ELNO',
            CRITERE = 'RELATIF',  PRECISION = 1.E-2,
         REFERENCE='ANALYTIQUE',
MAILLE = 'M84',    GROUP_NO = 'D',        NOM_CMP = 'SIZZ',         VALE = 12.),
            _F(  RESULTAT = RESU, NUME_ORDRE=1, NOM_CHAM='SIGM_ELNO',
            CRITERE = 'RELATIF',  PRECISION = 1.E-2,
         REFERENCE='ANALYTIQUE',
MAILLE = 'M96',    GROUP_NO = 'D',        NOM_CMP = 'SIZZ',         VALE = 12.),
            _F(  RESULTAT = RESU, NUME_ORDRE=1, NOM_CHAM='SIGM_ELNO',
            CRITERE = 'RELATIF',  PRECISION = 1.E-2,
         REFERENCE='ANALYTIQUE',
MAILLE = 'M84',    GROUP_NO = 'D',        NOM_CMP = 'SIXY',         VALE = -14.14214),
            _F(  RESULTAT = RESU, NUME_ORDRE=1, NOM_CHAM='SIGM_ELNO',
            CRITERE = 'RELATIF',  PRECISION = 1.E-2,
         REFERENCE='ANALYTIQUE',
MAILLE = 'M96',    GROUP_NO = 'D',        NOM_CMP = 'SIXY',         VALE = -14.14214),
#
            _F(  RESULTAT = RESU, NUME_ORDRE=1, NOM_CHAM='SIGM_ELNO',
            CRITERE = 'RELATIF',  PRECISION = 3.E-2,
         REFERENCE='ANALYTIQUE',
MAILLE = 'M136',   GROUP_NO = 'E',        NOM_CMP = 'SIXX',         VALE = 20.),
            _F(  RESULTAT = RESU, NUME_ORDRE=1, NOM_CHAM='SIGM_ELNO',
            CRITERE = 'RELATIF',  PRECISION = 3.E-2,
         REFERENCE='ANALYTIQUE',
MAILLE = 'M136',   GROUP_NO = 'E',        NOM_CMP = 'SIYY',         VALE = 20.),
            _F(  RESULTAT = RESU, NUME_ORDRE=1, NOM_CHAM='SIGM_ELNO',
            CRITERE = 'RELATIF',  PRECISION = 3.E-2,
         REFERENCE='ANALYTIQUE',
MAILLE = 'M136',   GROUP_NO = 'E',        NOM_CMP = 'SIZZ',         VALE = 12.),
            _F(  RESULTAT = RESU, NUME_ORDRE=1, NOM_CHAM='SIGM_ELNO',
            CRITERE = 'RELATIF',  PRECISION = 1.E-2,
         REFERENCE='ANALYTIQUE',
MAILLE = 'M136',   GROUP_NO = 'E',        NOM_CMP = 'SIXY',         VALE = -80.),
#
            _F(  RESULTAT = RESU, NUME_ORDRE=1, NOM_CHAM='SIGM_ELNO',
            CRITERE = 'RELATIF',  PRECISION = 1.E-2,
         REFERENCE='ANALYTIQUE',
MAILLE = 'M102',    GROUP_NO = 'F',        NOM_CMP = 'SIXX',        VALE = 20.),
            _F(  RESULTAT = RESU, NUME_ORDRE=1, NOM_CHAM='SIGM_ELNO',
            CRITERE = 'RELATIF',  PRECISION = 1.E-2,
         REFERENCE='ANALYTIQUE',
MAILLE = 'M102',    GROUP_NO = 'F',        NOM_CMP = 'SIYY',        VALE = 20.),
            _F(  RESULTAT = RESU, NUME_ORDRE=1, NOM_CHAM='SIGM_ELNO',
            CRITERE = 'RELATIF',  PRECISION = 1.E-2,
         REFERENCE='ANALYTIQUE',
MAILLE = 'M102',    GROUP_NO = 'F',        NOM_CMP = 'SIZZ',        VALE = 12.),
            _F(  RESULTAT = RESU, NUME_ORDRE=1, NOM_CHAM='SIGM_ELNO',
            CRITERE = 'RELATIF',  PRECISION = 1.E-2,
         REFERENCE='ANALYTIQUE',
MAILLE = 'M102',    GROUP_NO = 'F',        NOM_CMP = 'SIXY',        VALE = -20.))

            )

#--------------------------------------------------------------------
FIN()
#
