# ======================================================================
# COPYRIGHT (C) 1991 - 2016  EDF R&D                  WWW.CODE-ASTER.ORG
# THIS PROGRAM IS FREE SOFTWARE; YOU CAN REDISTRIBUTE IT AND/OR MODIFY
# IT UNDER THE TERMS OF THE GNU GENERAL PUBLIC LICENSE AS PUBLISHED BY
# THE FREE SOFTWARE FOUNDATION; EITHER VERSION 2 OF THE LICENSE, OR
# (AT YOUR OPTION) ANY LATER VERSION.
#
# THIS PROGRAM IS DISTRIBUTED IN THE HOPE THAT IT WILL BE USEFUL, BUT
# WITHOUT ANY WARRANTY; WITHOUT EVEN THE IMPLIED WARRANTY OF
# MERCHANTABILITY OR FITNESS FOR A PARTICULAR PURPOSE. SEE THE GNU
# GENERAL PUBLIC LICENSE FOR MORE DETAILS.
#
# YOU SHOULD HAVE RECEIVED A COPY OF THE GNU GENERAL PUBLIC LICENSE
# ALONG WITH THIS PROGRAM; IF NOT, WRITE TO EDF R&D CODE_ASTER,
#    1 AVENUE DU GENERAL DE GAULLE, 92141 CLAMART CEDEX, FRANCE.
# ======================================================================
# CAS TEST SSLV109F
# ----------------------------------------------------------------------
# CYLINDRE EN FLEXION FOURIER HARMONIQUE 1
#  TEST DE L'ORTHOTROPIE (EN FAIT ISOTROPIE TRANSVERSE AVEC PLAN
#                           D'ISOTROPIE (R,Z))
#
# MODELISATION : ELEMENTS MECANIQUE AXIS_FOURIER (QUAD8)
# MAILLAGE     : ALIBABA ==> ASTER
#
# ----------------------------------------------------------------------
# GROUPES DE MAILLES: PRES_REP : BOUT
# ----------------------------------------------------------------------
#

DEBUT(CODE=_F(NIV_PUB_WEB='INTERNET'), DEBUG=_F(SDVERI='OUI'))

M=LIRE_MAILLAGE()

MO=AFFE_MODELE(        MAILLAGE=M,
                                AFFE=_F(  TOUT = 'OUI',
                                       PHENOMENE = 'MECANIQUE',
                                       MODELISATION = 'AXIS_FOURIER', ))

MA=DEFI_MATERIAU( ELAS_ORTH=_F(  E_L = 144.,    E_T = 144.,     E_N = 72.,
                                 NU_LT = 0.3,   NU_LN = 0.3,   NU_TN = 0.3,
                                 G_LT = 10.,
                                 G_LN = 55.384615,
                                 G_TN = 10.,   )
                      )

P=DEFI_FONCTION(      NOM_PARA='X',
           VALE=(0.,0., .5, .5, 1., 1.,) )

U0=DEFI_CONSTANTE(    VALE=0. )

CM=AFFE_MATERIAU(      MAILLAGE=M,
                                AFFE=_F(  TOUT = 'OUI',
                                       MATER = MA,                      ))

BLOQU=AFFE_CHAR_MECA_F(       MODELE=MO,DDL_IMPO=(
               _F(  NOEUD = 'N1',           DX = U0,   DY = U0,    DZ = U0,   ),
                        _F(  NOEUD = 'N2',           DY = U0,   ),
                        _F(  NOEUD = 'N3',           DY = U0,   ),),);

CH=AFFE_CHAR_MECA_F( MODELE=MO, PRES_REP=_F(  GROUP_MA = 'BOUT', PRES =P,  ),);



RESU=MACRO_ELAS_MULT(      MODELE=MO,
                             CHAM_MATER=CM,
                           CHAR_MECA_GLOBAL=BLOQU,
                           CAS_CHARGE=_F(
                                 MODE_FOURIER = 1,
                                 TYPE_MODE = 'SYME',
                                 CHAR_MECA = CH,
                                 SOUS_TITRE = 'MODE FOURIER 1 SYME'
                                 )
                          )

RESU=CALC_CHAMP(reuse=RESU,RESULTAT=RESU,CONTRAINTE=('SIGM_ELNO'))



TEST_RESU(RESU=(_F(NUME_MODE=1,
                   RESULTAT=RESU,
                   NOM_CHAM='DEPL',
                   NOEUD='N2',
                   NOM_CMP='DX',
                   VALE_CALC=2.6041666666581E-04,
                   VALE_REFE=2.6041666666666E-4,
                   REFERENCE='ANALYTIQUE',
                   CRITERE='RELATIF',
                   ),
                _F(NUME_MODE=1,
                   RESULTAT=RESU,
                   NOM_CHAM='DEPL',
                   NOEUD='N2',
                   NOM_CMP='DZ',
                   VALE_CALC=-2.6041666666584E-04,
                   VALE_REFE=-2.6041666666666E-4,
                   REFERENCE='ANALYTIQUE',
                   CRITERE='RELATIF',
                   ),
                _F(NUME_MODE=1,
                   RESULTAT=RESU,
                   NOM_CHAM='DEPL',
                   NOEUD='N4',
                   NOM_CMP='DX',
                   VALE_CALC=0.031249999999878,
                   VALE_REFE=0.03125,
                   REFERENCE='ANALYTIQUE',
                   CRITERE='RELATIF',
                   ),
                _F(NUME_MODE=1,
                   RESULTAT=RESU,
                   NOM_CHAM='DEPL',
                   NOEUD='N4',
                   NOM_CMP='DZ',
                   VALE_CALC=0.031249999999878,
                   VALE_REFE=0.03125,
                   REFERENCE='ANALYTIQUE',
                   CRITERE='RELATIF',
                   ),
                _F(NUME_MODE=1,
                   RESULTAT=RESU,
                   NOM_CHAM='DEPL',
                   NOEUD='N7',
                   NOM_CMP='DX',
                   VALE_CALC=0.12499999999955,
                   VALE_REFE=0.125,
                   REFERENCE='ANALYTIQUE',
                   CRITERE='RELATIF',
                   ),
                _F(NUME_MODE=1,
                   RESULTAT=RESU,
                   NOM_CHAM='DEPL',
                   NOEUD='N7',
                   NOM_CMP='DZ',
                   VALE_CALC=0.12499999999955,
                   VALE_REFE=0.125,
                   REFERENCE='ANALYTIQUE',
                   CRITERE='RELATIF',
                   ),
                _F(NUME_MODE=1,
                   RESULTAT=RESU,
                   NOM_CHAM='DEPL',
                   NOEUD='N9',
                   NOM_CMP='DY',
                   VALE_CALC=-0.041666666666535,
                   VALE_REFE=-0.041666666666499999,
                   REFERENCE='ANALYTIQUE',
                   CRITERE='RELATIF',
                   ),
                _F(NUME_MODE=1,
                   RESULTAT=RESU,
                   NOM_CHAM='DEPL',
                   NOEUD='N10',
                   NOM_CMP='DX',
                   VALE_CALC=0.28124999999907,
                   VALE_REFE=0.28125,
                   REFERENCE='ANALYTIQUE',
                   CRITERE='RELATIF',
                   ),
                _F(NUME_MODE=1,
                   RESULTAT=RESU,
                   NOM_CHAM='DEPL',
                   NOEUD='N10',
                   NOM_CMP='DZ',
                   VALE_CALC=0.28124999999907,
                   VALE_REFE=0.28125,
                   REFERENCE='ANALYTIQUE',
                   CRITERE='RELATIF',
                   ),
                _F(NUME_MODE=1,
                   RESULTAT=RESU,
                   NOM_CHAM='DEPL',
                   NOEUD='N12',
                   NOM_CMP='DY',
                   VALE_CALC=-0.062499999999845,
                   VALE_REFE=-0.0625,
                   REFERENCE='ANALYTIQUE',
                   CRITERE='RELATIF',
                   ),
                _F(NUME_MODE=1,
                   RESULTAT=RESU,
                   NOM_CHAM='DEPL',
                   NOEUD='N13',
                   NOM_CMP='DX',
                   VALE_CALC=0.49999999999858,
                   VALE_REFE=0.5,
                   REFERENCE='ANALYTIQUE',
                   CRITERE='RELATIF',
                   ),
                _F(NUME_MODE=1,
                   RESULTAT=RESU,
                   NOM_CHAM='DEPL',
                   NOEUD='N13',
                   NOM_CMP='DZ',
                   VALE_CALC=0.49999999999858,
                   VALE_REFE=0.5,
                   REFERENCE='ANALYTIQUE',
                   CRITERE='RELATIF',
                   ),
                _F(NUME_MODE=1,
                   RESULTAT=RESU,
                   NOM_CHAM='DEPL',
                   NOEUD='N14',
                   NOM_CMP='DY',
                   VALE_CALC=-0.041666666666588,
                   VALE_REFE=-0.041666666666499999,
                   REFERENCE='ANALYTIQUE',
                   CRITERE='RELATIF',
                   ),
                _F(NUME_MODE=1,
                   RESULTAT=RESU,
                   NOM_CHAM='DEPL',
                   NOEUD='N15',
                   NOM_CMP='DY',
                   VALE_CALC=-0.083333333333176,
                   VALE_REFE=-0.083333333333333329,
                   REFERENCE='ANALYTIQUE',
                   CRITERE='RELATIF',
                   ),
                _F(NUME_MODE=1,
                   RESULTAT=RESU,
                   NOM_CHAM='SIGM_ELNO',
                   NOEUD='N1',
                   NOM_CMP='SIYY',
                   VALE_CALC=3.3119340603349E-14,
                   VALE_REFE=0.0,
                   REFERENCE='ANALYTIQUE',
                   CRITERE='ABSOLU',
                   MAILLE='M1',),
                _F(NUME_MODE=1,
                   RESULTAT=RESU,
                   NOM_CHAM='SIGM_ELNO',
                   NOEUD='N3',
                   NOM_CMP='SIYY',
                   VALE_CALC=-0.99999999999637,
                   VALE_REFE=-1.0,
                   REFERENCE='ANALYTIQUE',
                   CRITERE='RELATIF',
                   MAILLE='M1',),
                _F(NUME_MODE=1,
                   RESULTAT=RESU,
                   NOM_CHAM='SIGM_ELNO',
                   NOEUD='N7',
                   NOM_CMP='SIYY',
                   VALE_CALC=-1.0591527654924E-13,
                   VALE_REFE=0.0,
                   REFERENCE='ANALYTIQUE',
                   CRITERE='ABSOLU',
                   MAILLE='M1',),
                _F(NUME_MODE=1,
                   RESULTAT=RESU,
                   NOM_CHAM='SIGM_ELNO',
                   NOEUD='N7',
                   NOM_CMP='SIYY',
                   VALE_CALC=8.9775409328752E-14,
                   VALE_REFE=0.0,
                   REFERENCE='ANALYTIQUE',
                   CRITERE='ABSOLU',
                   MAILLE='M2',),
                _F(NUME_MODE=1,
                   RESULTAT=RESU,
                   NOM_CHAM='SIGM_ELNO',
                   NOEUD='N9',
                   NOM_CMP='SIYY',
                   VALE_CALC=-0.99999999999738,
                   VALE_REFE=-1.0,
                   REFERENCE='ANALYTIQUE',
                   CRITERE='RELATIF',
                   MAILLE='M1',),
                _F(NUME_MODE=1,
                   RESULTAT=RESU,
                   NOM_CHAM='SIGM_ELNO',
                   NOEUD='N9',
                   NOM_CMP='SIYY',
                   VALE_CALC=-0.99999999999836,
                   VALE_REFE=-1.0,
                   REFERENCE='ANALYTIQUE',
                   CRITERE='RELATIF',
                   MAILLE='M2',),
                _F(NUME_MODE=1,
                   RESULTAT=RESU,
                   NOM_CHAM='SIGM_ELNO',
                   NOEUD='N13',
                   NOM_CMP='SIYY',
                   VALE_CALC=6.8341166059582E-14,
                   VALE_REFE=0.0,
                   REFERENCE='ANALYTIQUE',
                   CRITERE='ABSOLU',
                   MAILLE='M2',),
                _F(NUME_MODE=1,
                   RESULTAT=RESU,
                   NOM_CHAM='SIGM_ELNO',
                   NOEUD='N15',
                   NOM_CMP='SIYY',
                   VALE_CALC=-1.0000000000004,
                   VALE_REFE=-1.0,
                   REFERENCE='ANALYTIQUE',
                   CRITERE='RELATIF',
                   MAILLE='M2',),
                ),
          )

#---------------------------------------------------------------------------------------------------
# Pour valider la possibilite d'un cas de charge de type VECT_ASSE pour MACRO_ELAS_MULT :
#----------------------------------------------------------------------------------------
VASS2 = CREA_CHAMP( OPERATION='AFFE', TYPE_CHAM='NOEU_DEPL_R', MAILLAGE=M,
                   AFFE=(_F( TOUT = 'OUI', NOM_CMP = 'DX', VALE = 7. ),
                         _F( TOUT = 'OUI', NOM_CMP = 'DY', VALE = 11. ),
                         _F( TOUT = 'OUI', NOM_CMP = 'DZ', VALE = 0. )))

CH2=AFFE_CHAR_MECA(MODELE=MO, VECT_ASSE=VASS2, )

RESU2=MACRO_ELAS_MULT( MODELE=MO, CHAM_MATER=CM, CHAR_MECA_GLOBAL=BLOQU,
                       CAS_CHARGE=_F( MODE_FOURIER = 1, TYPE_MODE = 'SYME',
                                 CHAR_MECA = CH2, SOUS_TITRE = 'MODE FOURIER 1 SYME' ))

TEST_RESU(RESU=_F(NUME_MODE=1,
                  RESULTAT=RESU2,
                  NOM_CHAM='DEPL',
                  NOEUD='N12',
                  NOM_CMP='DY',
                  VALE_CALC=-57.02195377042,
                  VALE_REFE=-57.021953770986997,
                  REFERENCE='ANALYTIQUE',
                  CRITERE='RELATIF',
                  ),
          )

#---------------------------------------------------------------------------------------------------



FIN()
