# TITRE  FISSURE SEMI-ELLIPTIQUE AVEC MILIEU INFINI
# ======================================================================
# COPYRIGHT (C) 1991 - 2012  EDF R&D                  WWW.CODE-ASTER.ORG
# THIS PROGRAM IS FREE SOFTWARE; YOU CAN REDISTRIBUTE IT AND/OR MODIFY
# IT UNDER THE TERMS OF THE GNU GENERAL PUBLIC LICENSE AS PUBLISHED BY
# THE FREE SOFTWARE FOUNDATION; EITHER VERSION 2 OF THE LICENSE, OR
# (AT YOUR OPTION) ANY LATER VERSION.
#
# THIS PROGRAM IS DISTRIBUTED IN THE HOPE THAT IT WILL BE USEFUL, BUT
# WITHOUT ANY WARRANTY; WITHOUT EVEN THE IMPLIED WARRANTY OF
# MERCHANTABILITY OR FITNESS FOR A PARTICULAR PURPOSE. SEE THE GNU
# GENERAL PUBLIC LICENSE FOR MORE DETAILS.
#
# YOU SHOULD HAVE RECEIVED A COPY OF THE GNU GENERAL PUBLIC LICENSE
# ALONG WITH THIS PROGRAM; IF NOT, WRITE TO EDF R&D CODE_ASTER,
#    1 AVENUE DU GENERAL DE GAULLE, 92141 CLAMART CEDEX, FRANCE.
# ======================================================================
# CAS TEST SSLV110B
# CALCUL DE G ET G LOCAL PAR LA METHODE 'THETA_LAGRANGE'
#
# MODELISATION : ELEMENTS MECANIQUE 3D (PENTA15 ET HEXA20)
# MAILLAGE     : ASTER
#
# ----------------------------------------------------------------------
# GROUPES DE MAILLES:           PRES_REP : BOUT
# ----------------------------------------------------------------------
#

DEBUT(CODE=_F(NOM='SSLV110B', NIV_PUB_WEB='INTERNET'), DEBUG=_F(SDVERI='OUI'),IGNORE_ALARM=('RUPTURE0_55'))

# l'alarme RUPTURE0_55 est ignoree car le resultat dans calc_g provient de crea_resu
# et crea_resu ne permet pas d'affecter des charges
#
# --------------------------------------------------------------------

MA=LIRE_MAILLAGE(FORMAT='MED',  )

MO=AFFE_MODELE(  MAILLAGE=MA,
     AFFE=_F(  TOUT = 'OUI',PHENOMENE = 'MECANIQUE',MODELISATION = '3D') )

MAT=DEFI_MATERIAU( ELAS=_F(  E = 210000.,  NU = 0.3, RHO = 0.,
                            ALPHA = 0.))

CHMAT=AFFE_MATERIAU(  MAILLAGE=MA,  AFFE=_F(  TOUT = 'OUI',MATER = MAT))

# ------------------------------------------------------------------
#    --- STRUCTURE EN APPUI SIMPLE AVEC EFFORT VERTICAL

CH=AFFE_CHAR_MECA(  MODELE=MO,DDL_IMPO=(
     _F(  GROUP_NO = 'MACSYM', DZ = 0.),
              _F(  GROUP_NO = 'ELISYM', DX = 0.),
              _F(  GROUP_NO = 'GRNINF', DY = 0.)),
     FORCE_FACE=_F(  GROUP_MA = 'FACTRAC', FZ = 1.))

FZFONC = FORMULE(NOM_PARA=('X','Y','Z'),VALE='1.')

CHFONC=AFFE_CHAR_MECA_F(  MODELE=MO,
                            FORCE_FACE=_F(  GROUP_MA = 'FACTRAC',
                                         FZ = FZFONC)    )

MELR=CALC_MATR_ELEM(  MODELE=MO,           CHARGE=CH,
                        CHAM_MATER=CHMAT,   OPTION='RIGI_MECA' )

VEL=CALC_VECT_ELEM(               CHARGE=CH,   CHAM_MATER=CHMAT,
                        OPTION='CHAR_MECA'                  )

NUM=NUME_DDL(  MATR_RIGI=MELR )

MATASSR=ASSE_MATRICE(  MATR_ELEM=MELR,   NUME_DDL=NUM  )

VECASS=ASSE_VECTEUR(  VECT_ELEM=VEL,    NUME_DDL=NUM  )

MATASSR=FACTORISER(reuse=MATASSR,  MATR_ASSE=MATASSR)

DEPL=RESOUDRE(  MATR=MATASSR,  CHAM_NO=VECASS )

RESU=CREA_RESU(  OPERATION='AFFE',
                 TYPE_RESU='EVOL_ELAS',
                 NOM_CHAM='DEPL',
                      AFFE=_F(  CHAM_GD = DEPL,
                                INST=0.,
                                MODELE=MO,
                                CHAM_MATER = CHMAT)     )

#    --- DEFINITION DU MODULE DE THETA ET DES RAYONS DEFINISSANT LA
#        COURONNE PAR FONCTIONS

MODUF=DEFI_FONCTION(  NOM_PARA='ABSC',  VALE=( 0., 1.,     26.69, 1., ))

RINF0=DEFI_FONCTION(  NOM_PARA='ABSC',  VALE=( 0., 0.,     26.69, 0., ))

RSUP0=DEFI_FONCTION(  NOM_PARA='ABSC',  VALE=( 0., 0.1875, 26.69, 0.7812,))

RINF1=DEFI_FONCTION(  NOM_PARA='ABSC',  VALE=( 0., 0.1875, 26.69, 0.7812,))

RSUP1=DEFI_FONCTION(  NOM_PARA='ABSC',  VALE=( 0., 0.375,  26.69, 1.5625,))

RINF2=DEFI_FONCTION(  NOM_PARA='ABSC',  VALE=( 0., 0.375,  26.69, 1.5625,))

RSUP2=DEFI_FONCTION(  NOM_PARA='ABSC',  VALE=( 0., 1.6465, 26.69, 3.125, ))

RINF3=DEFI_FONCTION(  NOM_PARA='ABSC',  VALE=( 0., 1.6465, 26.69, 3.125, ))

RSUP3=DEFI_FONCTION(  NOM_PARA='ABSC',  VALE=( 0., 5.484,  26.69, 6.25,  ))

FISS1=DEFI_FOND_FISS(MAILLAGE=MA,
                     SYME='OUI',
                     FOND_FISS=_F(GROUP_NO = 'FONFIS',
                                  DTAN_ORIG=( 0.,  1.,  0.,),),
                    )

#----------------------------------------------------------------------
#                           COURONNE 1
#----------------------------------------------------------------------

THETA0=CALC_THETA(   MODELE=MO,  FOND_FISS=FISS1,
                        THETA_3D=_F(  TOUT = 'OUI',  MODULE_FO = MODUF,
                                   R_INF_FO = RINF0,  R_SUP_FO = RSUP0)
                                 )

G0=CALC_G(  RESULTAT=RESU,
                       OPTION='CALC_G_GLOB',
                    THETA=_F(THETA=THETA0,SYME='OUI'),
                    EXCIT=_F(CHARGE=CH),  )

GLOC0=CALC_G( RESULTAT=RESU,
                       THETA=_F(FOND_FISS=FISS1,
                                R_SUP_FO=RSUP0,
                                R_INF_FO=RINF0,),
                       LISSAGE=_F(DEGRE=4,
                                  LISSAGE_THETA='LAGRANGE',),
                       EXCIT=_F(CHARGE=CH),  )

#----------------------------------------------------------------------
#                           COURONNE 2
#----------------------------------------------------------------------

THETA1=CALC_THETA(   MODELE=MO,  FOND_FISS=FISS1,
                        THETA_3D=_F(  TOUT = 'OUI',  MODULE_FO = MODUF,
                                   R_INF_FO = RINF1,  R_SUP_FO = RSUP1)
                                 )

G1=CALC_G(  RESULTAT=RESU,
            OPTION='CALC_G_GLOB',
            THETA=_F(THETA=THETA1,SYME='OUI'),
            EXCIT=_F(CHARGE=CHFONC),  )

GLOC1=CALC_G(  RESULTAT=RESU,
               THETA=_F(FOND_FISS=FISS1,
                        R_SUP_FO=RSUP1,
                        R_INF_FO=RINF1,),
               LISSAGE=_F(DEGRE=4,
                          LISSAGE_THETA='LAGRANGE',),
               EXCIT=_F(CHARGE=CHFONC),  )

#----------------------------------------------------------------------
#                           COURONNE 3
#----------------------------------------------------------------------

THETA2=CALC_THETA(   MODELE=MO,  FOND_FISS=FISS1,
                        THETA_3D=_F(  TOUT = 'OUI',  MODULE_FO = MODUF,
                                   R_INF_FO = RINF2,  R_SUP_FO = RSUP2)
                                 )

G2=CALC_G(  RESULTAT=RESU,
                       OPTION='CALC_G_GLOB',
             THETA=_F(THETA=THETA2,SYME='OUI'),
             EXCIT=_F(CHARGE=CH), )

GLOC2=CALC_G( RESULTAT=RESU,
                       THETA=_F(FOND_FISS=FISS1,
                                R_SUP_FO=RSUP2,
                                R_INF_FO=RINF2,),
                       LISSAGE=_F(DEGRE=4,
                                  LISSAGE_THETA='LAGRANGE',),
                       EXCIT=_F(CHARGE=CH), )

#----------------------------------------------------------------------
#              TEST DE G SUR LES 3 COURONNES
#----------------------------------------------------------------------


TEST_TABLE(REFERENCE='ANALYTIQUE',
           PRECISION=0.021000000000000001,
           VALE_CALC= 1.41027420E-03,
           VALE_REFE=1.4400000000000001E-3,
           NOM_PARA='G',
           TABLE=G0,)

TEST_TABLE(REFERENCE='ANALYTIQUE',
           PRECISION=0.029999999999999999,
           VALE_CALC= 1.45116164E-03,
           VALE_REFE=1.4400000000000001E-3,
           NOM_PARA='G',
           TABLE=G1,)

TEST_TABLE(REFERENCE='ANALYTIQUE',
           PRECISION=0.012,
           VALE_CALC= 1.42355345E-03,
           VALE_REFE=1.4400000000000001E-3,
           NOM_PARA='G',
           TABLE=G2,)

#----------------------------------------------------------------------
#              TEST DE G(A) SUR LES 3 COURONNES
#----------------------------------------------------------------------


TEST_TABLE(REFERENCE='ANALYTIQUE',
           PRECISION=1.E-2,
           VALE_CALC= 7.11935112E-05,
           VALE_REFE=7.1710000000000003E-05,
           NOM_PARA='G',
           TABLE=GLOC0,
           FILTRE=_F(NOM_PARA='NOEUD',
                     VALE_K='NO1099',),
           )

TEST_TABLE(REFERENCE='ANALYTIQUE',
           PRECISION=0.050000000000000003,
           VALE_CALC= 7.45150501E-05,
           VALE_REFE=7.1710000000000003E-05,
           NOM_PARA='G',
           TABLE=GLOC1,
           FILTRE=_F(NOM_PARA='NOEUD',
                     VALE_K='NO1099',),
           )

TEST_TABLE(REFERENCE='ANALYTIQUE',
           PRECISION=0.040000000000000001,
           VALE_CALC= 7.43011345E-05,
           VALE_REFE=7.1710000000000003E-05,
           NOM_PARA='G',
           TABLE=GLOC2,
           FILTRE=_F(NOM_PARA='NOEUD',
                     VALE_K='NO1099',),
           )

#----------------------------------------------------------------------
#              TEST DE G(B) SUR LES 3 COURONNES
#----------------------------------------------------------------------


TEST_TABLE(REFERENCE='ANALYTIQUE',
           PRECISION=0.070000000000000007,
           VALE_CALC= 1.60730720E-05,
           VALE_REFE=1.721E-05,
           NOM_PARA='G',
           TABLE=GLOC0,
           FILTRE=_F(NOM_PARA='NOEUD',
                     VALE_K='NO1259',),
           )

TEST_TABLE(REFERENCE='ANALYTIQUE',
           PRECISION=0.050000000000000003,
           VALE_CALC= 1.66206026E-05,
           VALE_REFE=1.721E-05,
           NOM_PARA='G',
           TABLE=GLOC1,
           FILTRE=_F(NOM_PARA='NOEUD',
                     VALE_K='NO1259',),
           )

TEST_TABLE(REFERENCE='ANALYTIQUE',
           PRECISION=1.E-2,
           VALE_CALC= 1.70551927E-05,
           VALE_REFE=1.721E-05,
           NOM_PARA='G',
           TABLE=GLOC2,
           FILTRE=_F(NOM_PARA='NOEUD',
                     VALE_K='NO1259',),
           )

#----------------------------------------------------------------------
#              TEST DE G(C) SUR LES 3 COURONNES
#----------------------------------------------------------------------


TEST_TABLE(REFERENCE='ANALYTIQUE',
           PRECISION=0.050000000000000003,
           VALE_CALC= 4.97847529E-05,
           VALE_REFE=5.215E-05,
           NOM_PARA='G',
           TABLE=GLOC0,
           FILTRE=_F(NOM_PARA='NOEUD',
                     VALE_K='NO1179',),
           )

TEST_TABLE(REFERENCE='ANALYTIQUE',
           PRECISION=0.029999999999999999,
           VALE_CALC= 5.09690471E-05,
           VALE_REFE=5.215E-05,
           NOM_PARA='G',
           TABLE=GLOC1,
           FILTRE=_F(NOM_PARA='NOEUD',
                     VALE_K='NO1179',),
           )

TEST_TABLE(REFERENCE='ANALYTIQUE',
           PRECISION=0.040000000000000001,
           VALE_CALC= 5.01423957E-05,
           VALE_REFE=5.215E-05,
           NOM_PARA='G',
           TABLE=GLOC2,
           FILTRE=_F(NOM_PARA='NOEUD',
                     VALE_K='NO1179',),
           )

FIN()
#
