# ======================================================================
# COPYRIGHT (C) 1991 - 2016  EDF R&D                  WWW.CODE-ASTER.ORG
# THIS PROGRAM IS FREE SOFTWARE; YOU CAN REDISTRIBUTE IT AND/OR MODIFY
# IT UNDER THE TERMS OF THE GNU GENERAL PUBLIC LICENSE AS PUBLISHED BY
# THE FREE SOFTWARE FOUNDATION; EITHER VERSION 2 OF THE LICENSE, OR
# (AT YOUR OPTION) ANY LATER VERSION.
#
# THIS PROGRAM IS DISTRIBUTED IN THE HOPE THAT IT WILL BE USEFUL, BUT
# WITHOUT ANY WARRANTY; WITHOUT EVEN THE IMPLIED WARRANTY OF
# MERCHANTABILITY OR FITNESS FOR A PARTICULAR PURPOSE. SEE THE GNU
# GENERAL PUBLIC LICENSE FOR MORE DETAILS.
#
# YOU SHOULD HAVE RECEIVED A COPY OF THE GNU GENERAL PUBLIC LICENSE
# ALONG WITH THIS PROGRAM; IF NOT, WRITE TO EDF R&D CODE_ASTER,
#    1 AVENUE DU GENERAL DE GAULLE, 92141 CLAMART CEDEX, FRANCE.
# ======================================================================
# CAS TEST SSLV110D
# CALCUL DE G ET G LOCAL PAR LA METHODE 'THETA_LAGRANGE' (DEGRE 4)
#
# MODELISATION : ELEMENTS MECANIQUE 3D (PENTA15 ET HEXA20)
# MAILLAGE     : ASTER
#
# CHARGEMENT VOLUMIQUE
# ----------------------------------------------------------------------
# GROUPES DE MAILLES:           PRES_REP : BOUT
# ----------------------------------------------------------------------
#

DEBUT(CODE=_F(NIV_PUB_WEB='INTERNET'),DEBUG=_F(SDVERI='OUI'))

#
# --------------------------------------------------------------------

MA=LIRE_MAILLAGE(FORMAT='MED',)

MO=AFFE_MODELE(  MAILLAGE=MA,
     AFFE=_F(  TOUT = 'OUI',PHENOMENE = 'MECANIQUE',MODELISATION = '3D') )

MAT=DEFI_MATERIAU( ELAS=_F(  E = 210000.,  NU = 0.3, RHO = 0.1,
                            ALPHA = 0.))

CHMAT=AFFE_MATERIAU(  MAILLAGE=MA,  AFFE=_F(  TOUT = 'OUI',MATER = MAT))

# ------------------------------------------------------------------
#    --- STRUCTURE EN APPUI SIMPLE AVEC EFFORT VERTICAL

CH=AFFE_CHAR_MECA(  MODELE=MO,DDL_IMPO=(
     _F(  GROUP_NO = 'MACSYM', DZ = 0.),
              _F(  GROUP_NO = 'ELISYM', DX = 0.),
              _F(  GROUP_NO = 'GRNINF', DY = 0.)),
     FORCE_INTERNE=_F(  TOUT = 'OUI', FZ = .0008))

# ------------------------------------------------------------------

MELR=CALC_MATR_ELEM(  MODELE=MO,           CHARGE=CH,
                        CHAM_MATER=CHMAT,   OPTION='RIGI_MECA' )

VEL=CALC_VECT_ELEM(               CHARGE=CH,   CHAM_MATER=CHMAT,
                        OPTION='CHAR_MECA'                  )

NUM=NUME_DDL(  MATR_RIGI=MELR )

MATASSR=ASSE_MATRICE(  MATR_ELEM=MELR,   NUME_DDL=NUM  )

VECASS=ASSE_VECTEUR(  VECT_ELEM=VEL,    NUME_DDL=NUM  )

MATASSR=FACTORISER(reuse=MATASSR,  MATR_ASSE=MATASSR)

DEPL=RESOUDRE(  MATR=MATASSR,  CHAM_NO=VECASS )

RESU=CREA_RESU(  OPERATION='AFFE',
                 TYPE_RESU='EVOL_ELAS',
                 NOM_CHAM='DEPL',
                      AFFE=_F(  CHAM_GD = DEPL,
                                INST=0.,
                                MODELE=MO,
                                CHAM_MATER = CHMAT)     )

#    --- DEFINITION DU MODULE DE THETA ET DES RAYONS DEFINISSANT LA
#        COURONNE PAR FONCTIONS

MODUF=DEFI_FONCTION(  NOM_PARA='ABSC',  VALE=( 0., 1.,     26.69, 1., ))

RINF0=DEFI_FONCTION(  NOM_PARA='ABSC',  VALE=( 0., 0.,     26.69, 0., ))

RSUP0=DEFI_FONCTION(  NOM_PARA='ABSC',  VALE=( 0., 0.1875, 26.69, 0.7812,))

RINF1=DEFI_FONCTION(  NOM_PARA='ABSC',  VALE=( 0., 0.1875, 26.69, 0.7812,))

RSUP1=DEFI_FONCTION(  NOM_PARA='ABSC',  VALE=( 0., 0.375,  26.69, 1.5625,))

RINF2=DEFI_FONCTION(  NOM_PARA='ABSC',  VALE=( 0., 0.375,  26.69, 1.5625,))

RSUP2=DEFI_FONCTION(  NOM_PARA='ABSC',  VALE=( 0., 1.6465, 26.69, 3.125, ))

RINF3=DEFI_FONCTION(  NOM_PARA='ABSC',  VALE=( 0., 1.6465, 26.69, 3.125, ))

RSUP3=DEFI_FONCTION(  NOM_PARA='ABSC',  VALE=( 0., 5.484,  26.69, 6.25,  ))

FISS1=DEFI_FOND_FISS(MAILLAGE=MA,
                     SYME='OUI',
                     FOND_FISS=_F(GROUP_NO = 'FONFIS',
                                  DTAN_ORIG=( 0.,  1.,  0.,),),
                    )

#
# POUR TESTS DE CHARGE FONCTION ET DE CHARGE PESANTEUR
#

FZFONC = FORMULE(NOM_PARA=('X','Y','Z'),VALE='.0008')

CHFONC=AFFE_CHAR_MECA_F(  MODELE=MO,
                            FORCE_INTERNE=_F(  TOUT = 'OUI',
                                            FZ = FZFONC) )

#
# RHO = 0.1
#
CHPESA=AFFE_CHAR_MECA(      MODELE=MO,
                            PESANTEUR=_F(GRAVITE=0.008,
                                         DIRECTION=( 0., 0., 1.,),),)

#----------------------------------------------------------------------
#                           COURONNE 1
#----------------------------------------------------------------------


G0=CALC_G( RESULTAT=RESU,
                       OPTION='CALC_G_GLOB',
                    THETA=_F(
                             FOND_FISS=FISS1,
                             MODULE_FO=MODUF,
                             R_SUP_FO=RSUP0,
                             R_INF_FO=RINF0),
                    EXCIT=_F(CHARGE=CHPESA),  )

GLOC0=CALC_G( RESULTAT=RESU,
                       THETA=_F(FOND_FISS=FISS1,R_SUP_FO=RSUP0,   R_INF_FO=RINF0),
                       LISSAGE=_F(DEGRE=4,
                                  LISSAGE_THETA='LAGRANGE',),
                       EXCIT=_F(CHARGE=CHPESA),  )

#----------------------------------------------------------------------
#                           COURONNE 2
#----------------------------------------------------------------------


G1=CALC_G(  RESULTAT=RESU,
                       OPTION='CALC_G_GLOB',
                    THETA=_F(
                             FOND_FISS=FISS1,
                             MODULE_FO=MODUF,
                             R_SUP_FO=RSUP1,
                             R_INF_FO=RINF1),
                    EXCIT=_F(CHARGE=CHFONC), )

GLOC1=CALC_G( RESULTAT=RESU,
                       THETA=_F(FOND_FISS=FISS1,R_SUP_FO=RSUP1,   R_INF_FO=RINF1),
                       LISSAGE=_F(DEGRE=4,
                                  LISSAGE_THETA='LAGRANGE',),
                       EXCIT=_F(CHARGE=CHFONC), )

#----------------------------------------------------------------------
#                           COURONNE 3
#----------------------------------------------------------------------


G2=CALC_G( RESULTAT=RESU,
                       OPTION='CALC_G_GLOB',
             THETA=_F(
                      FOND_FISS=FISS1,
                      MODULE_FO=MODUF,
                      R_SUP_FO=RSUP2,
                      R_INF_FO=RINF2),
             EXCIT=_F( CHARGE=CH), )

GLOC2=CALC_G( RESULTAT=RESU,
                       THETA=_F(FOND_FISS=FISS1,R_SUP_FO=RSUP2,R_INF_FO=RINF2,),
                       LISSAGE=_F(DEGRE=4,
                                  LISSAGE_THETA='LAGRANGE',),
                       EXCIT=_F(CHARGE=CH), )

#----------------------------------------------------------------------
#              TEST DE G SUR LES 3 COURONNES
#----------------------------------------------------------------------


TEST_TABLE(REFERENCE='ANALYTIQUE',
           PRECISION=1.E-2,
           VALE_CALC=0.0014369946377,
           VALE_REFE=1.4400000000000001E-3,
           NOM_PARA='G',
           TABLE=G0,)

TEST_TABLE(REFERENCE='ANALYTIQUE',
           PRECISION=0.029999999999999999,
           VALE_CALC=0.00147865826425,
           VALE_REFE=1.4400000000000001E-3,
           NOM_PARA='G',
           TABLE=G1,)

TEST_TABLE(REFERENCE='ANALYTIQUE',
           PRECISION=1.E-2,
           VALE_CALC=0.00145047687173,
           VALE_REFE=1.4400000000000001E-3,
           NOM_PARA='G',
           TABLE=G2,)

#----------------------------------------------------------------------
#              TEST DE G(A) SUR LES 3 COURONNES
#----------------------------------------------------------------------


TEST_TABLE(REFERENCE='ANALYTIQUE',
           PRECISION=0.02,
           VALE_CALC=7.2581253727E-05,
           VALE_REFE=7.1710000000000003E-05,
           NOM_PARA='G',
           TABLE=GLOC0,
           FILTRE=_F(NOM_PARA='NOEUD',
                     VALE_K='NO1099',),
           )

TEST_TABLE(REFERENCE='ANALYTIQUE',
           PRECISION=0.060999999999999999,
           VALE_CALC=7.59672983421E-05,
           VALE_REFE=7.1710000000000003E-05,
           NOM_PARA='G',
           TABLE=GLOC1,
           FILTRE=_F(NOM_PARA='NOEUD',
                     VALE_K='NO1099',),
           )

TEST_TABLE(REFERENCE='ANALYTIQUE',
           PRECISION=0.058000000000000003,
           VALE_CALC=7.57487183582E-05,
           VALE_REFE=7.1710000000000003E-05,
           NOM_PARA='G',
           TABLE=GLOC2,
           FILTRE=_F(NOM_PARA='NOEUD',
                     VALE_K='NO1099',),
           )

#----------------------------------------------------------------------
#              TEST DE G(B) SUR LES 3 COURONNES
#----------------------------------------------------------------------


TEST_TABLE(REFERENCE='ANALYTIQUE',
           PRECISION=0.055,
           VALE_CALC=1.63581961099E-05,
           VALE_REFE=1.721E-05,
           NOM_PARA='G',
           TABLE=GLOC0,
           FILTRE=_F(NOM_PARA='NOEUD',
                     VALE_K='NO1259',),
           )

TEST_TABLE(REFERENCE='ANALYTIQUE',
           PRECISION=0.029999999999999999,
           VALE_CALC=1.69146249978E-05,
           VALE_REFE=1.721E-05,
           NOM_PARA='G',
           TABLE=GLOC1,
           FILTRE=_F(NOM_PARA='NOEUD',
                     VALE_K='NO1259',),
           )

TEST_TABLE(REFERENCE='ANALYTIQUE',
           PRECISION=0.014999999999999999,
           VALE_CALC=1.73359597581E-05,
           VALE_REFE=1.721E-05,
           NOM_PARA='G',
           TABLE=GLOC2,
           FILTRE=_F(NOM_PARA='NOEUD',
                     VALE_K='NO1259',),
           )

#----------------------------------------------------------------------
#              TEST DE G(C) SUR LES 3 COURONNES
#----------------------------------------------------------------------


TEST_TABLE(REFERENCE='ANALYTIQUE',
           PRECISION=0.029999999999999999,
           VALE_CALC=5.07142948063E-05,
           VALE_REFE=5.215E-05,
           NOM_PARA='G',
           TABLE=GLOC0,
           FILTRE=_F(NOM_PARA='NOEUD',
                     VALE_K='NO1179',),
           )

TEST_TABLE(REFERENCE='ANALYTIQUE',
           PRECISION=1.E-2,
           VALE_CALC=5.19207663702E-05,
           VALE_REFE=5.215E-05,
           NOM_PARA='G',
           TABLE=GLOC1,
           FILTRE=_F(NOM_PARA='NOEUD',
                     VALE_K='NO1179',),
           )

TEST_TABLE(REFERENCE='ANALYTIQUE',
           PRECISION=0.021000000000000001,
           VALE_CALC=5.10797785174E-05,
           VALE_REFE=5.215E-05,
           NOM_PARA='G',
           TABLE=GLOC2,
           FILTRE=_F(NOM_PARA='NOEUD',
                     VALE_K='NO1179',),
           )

FIN()
#
