# MODIF  DATE 19/10/2009   AUTEUR COURTOIS M.COURTOIS 
# TITRE POUTRE CONSOLE 3D/PLAQUE
# sslv152b.para = tps_job 320 mem_job 284Mo ncpus 1 liste_test S
#            CONFIGURATION MANAGEMENT OF EDF VERSION
# ======================================================================
# COPYRIGHT (C) 1991 - 2001  EDF R&D                  WWW.CODE-ASTER.ORG
# THIS PROGRAM IS FREE SOFTWARE; YOU CAN REDISTRIBUTE IT AND/OR MODIFY
# IT UNDER THE TERMS OF THE GNU GENERAL PUBLIC LICENSE AS PUBLISHED BY
# THE FREE SOFTWARE FOUNDATION; EITHER VERSION 2 OF THE LICENSE, OR
# (AT YOUR OPTION) ANY LATER VERSION.
#
# THIS PROGRAM IS DISTRIBUTED IN THE HOPE THAT IT WILL BE USEFUL, BUT
# WITHOUT ANY WARRANTY; WITHOUT EVEN THE IMPLIED WARRANTY OF
# MERCHANTABILITY OR FITNESS FOR A PARTICULAR PURPOSE. SEE THE GNU
# GENERAL PUBLIC LICENSE FOR MORE DETAILS.
#
# YOU SHOULD HAVE RECEIVED A COPY OF THE GNU GENERAL PUBLIC LICENSE
# ALONG WITH THIS PROGRAM; IF NOT, WRITE TO EDF R&D CODE_ASTER,
#    1 AVENUE DU GENERAL DE GAULLE, 92141 CLAMART CEDEX, FRANCE.
# ======================================================================
# ARLEQUIN : RACCORD 3D/PLAQUE INCOMPATIBLE.
#            MAILLAGES DE DENSITES DIFFERENTES
#
# VERSION 3D/PLAQUE DE SSLP104A

DEBUT(CODE=_F(NOM='SSLV152B',
              NIV_PUB_WEB='INTERNET',),
      DEBUG=_F(SDVERI='OUI',),);
#############################


# 1. Definition de constantes
#############################

force = 1000000.0;

epais = 1.0;

young = 200000000000.0;

hauteur = 2.0;

long = 10.0;

inertie = ((((hauteur * epais) * epais) * epais) / 12);

########################


# 2. Lecture du maillage
########################


MA1=LIRE_MAILLAGE(UNITE=20,
                  FORMAT='MED',);

MA2=LIRE_MAILLAGE(UNITE=21,
                  FORMAT='MED',);

MAIL=ASSE_MAILLAGE(MAILLAGE_1=MA1,
                   MAILLAGE_2=MA2,
                   OPERATION='SUPERPOSE',);

MAIL=DEFI_GROUP(reuse =MAIL,
                MAILLAGE=MAIL,
                CREA_GROUP_NO=(_F(GROUP_MA='GM53',),
                               _F(GROUP_MA='GM54',),),);

MOD=AFFE_MODELE(MAILLAGE=MAIL,
                INFO=2,
                AFFE=(_F(GROUP_MA=('GM1000','GM101','GM50',),
                         PHENOMENE='MECANIQUE',
                         MODELISATION='3D',),
                      _F(GROUP_MA=('GM51','GM53','GM100',),
                         PHENOMENE='MECANIQUE',
                         MODELISATION='DKT',),),);

CARA=AFFE_CARA_ELEM(MODELE=MOD,
                    COQUE=_F(GROUP_MA='GM100',
                             EPAIS=epais,),);

EFFORT=AFFE_CHAR_MECA(MODELE=MOD,
                      FORCE_ARETE=_F(GROUP_MA='GM51',
                                     FZ=-(force),),);

ENCAST=AFFE_CHAR_MECA(MODELE=MOD,
                      DDL_IMPO=_F(GROUP_MA='GM101',
                                  LIAISON='ENCASTRE',),);
################################################


# 3. Creation des relations de couplage Arlequin
#    entre les groupes de mailles
#    GM1000 (maillage fin) et
#    GM100  (maillage grossier)
#    Collage sur le modele grossier
################################################


ARLQ=AFFE_CHAR_MECA(MODELE=MOD,
                    ARLEQUIN=_F(GROUP_MA_1='GM1000',
                                GROUP_MA_2='GM100',
                                CARA_ELEM=CARA,
                                COLLAGE='GROUP_MA_2',
                                POIDS_FIN=0.9999,),
                    INFO=1,);

# COURBE DE TRACTION

CTRAC=DEFI_FONCTION(NOM_PARA='EPSI',VALE=(0.0023333,480.2E+06,
                          0.01,480.35778E+06,
                          ),PROL_DROITE='LINEAIRE',PROL_GAUCHE='LINEAIRE',);

MA=DEFI_MATERIAU(ELAS=_F(E=young,
                         NU=0.3,),
                 TRACTION=_F(SIGM=CTRAC,),);

CHMATER=AFFE_MATERIAU(MAILLAGE=MAIL,
                      AFFE=_F(TOUT='OUI',
                              MATER=MA,),);

LIST=DEFI_LIST_REEL(DEBUT=0.0,
                    INTERVALLE=_F(JUSQU_A=3.0,
                                  NOMBRE=30,),);

RESU=STAT_NON_LINE(MODELE=MOD,
                   CHAM_MATER=CHMATER,
                   CARA_ELEM=CARA,
                   EXCIT=(_F(CHARGE=ARLQ,),
                          _F(CHARGE=EFFORT,),
                          _F(CHARGE=ENCAST,),),
                   COMP_INCR=_F(RELATION='VMIS_ISOT_TRAC',),
                   INCREMENT=_F(LIST_INST=LIST,),
                   NEWTON=_F(MATRICE='TANGENTE',
                             REAC_ITER=1,),);
#############################


# 4.Post-traitement du calcul
#############################


RESU=CALC_ELEM(reuse =RESU,
               RESULTAT=RESU,
               OPTION='SIEF_ELNO_ELGA',);

RESU=CALC_NO(reuse =RESU,
             RESULTAT=RESU,
             OPTION='SIEF_NOEU_ELGA',);
###########################################


# 5. Fleche maximale au point
#    de coordonnees (X,0,0.5)
#    Noeud 1567
#    Solution theorique
#    Reference : Guide de validation
#    des progiciels de calcul de structures
#    p.52
###########################################

X = 9.5;

fxtheo = (-1 * (((((force * hauteur) / 2.0) / young) / inertie) * (((long * X) * X) - (((X * X) * X) / 3))));


DPL_2D=POST_RELEVE_T(ACTION=_F(OPERATION='EXTRACTION',
                               INTITULE='DEPL_2D',
                               RESULTAT=RESU,
                               NOM_CHAM='DEPL',
                               INST=3.,
                               GROUP_NO='GM53',
                               NOM_CMP='DZ',),);

TEST_TABLE(TABLE=DPL_2D,
           FILTRE=_F(NOM_PARA='COOR_X',
                     VALE=X,),
           NOM_PARA='DZ',
           VALE=fxtheo,
           CRITERE='RELATIF',
           PRECISION=0.06,
           REFERENCE='ANALYTIQUE',);

TEST_TABLE(TABLE=DPL_2D,
           FILTRE=_F(NOM_PARA='COOR_X',
                     VALE=X,),
           NOM_PARA='DZ',
           VALE=-0.0175268100294,
           CRITERE='RELATIF',
           PRECISION=2e-06,
           REFERENCE='NON_REGRESSION',
           VERSION='10.00.19',);
###########################################


# 6. Contrainte de traction SIXX au point
#    de coordonnees (X,0,Z)
#    Noeud 119
#    Solution theorique
#    Reference : Guide de validation
#    des progiciels de calcul de structures
#    p.52
###########################################

X = 3.0;

Z = 0.833333;

sixxth = ((((force * hauteur) * (long - X)) * (Z - (epais / 2.0))) / inertie);


SIXX_Z=POST_RELEVE_T(ACTION=_F(OPERATION='EXTRACTION',
                               INTITULE='SIXX',
                               RESULTAT=RESU,
                               NOM_CHAM='SIEF_NOEU_ELGA',
                               INST=3.,
                               GROUP_NO='GM54',
                               NOM_CMP='SIXX',),);

TEST_TABLE(TABLE=SIXX_Z,
           FILTRE=_F(NOM_PARA='COOR_Z',
                     VALE=Z,),
           NOM_PARA='SIXX',
           VALE=sixxth,
           CRITERE='RELATIF',
           PRECISION=0.14,
           REFERENCE='ANALYTIQUE',);

TEST_TABLE(TABLE=SIXX_Z,
           FILTRE=_F(NOM_PARA='COOR_Z',
                     VALE=Z,),
           NOM_PARA='SIXX',
           VALE=2.6890097886830E+07,
           CRITERE='RELATIF',
           PRECISION=0.005,
           REFERENCE='NON_REGRESSION',
           VERSION='10.00.19',);

FIN();
