# TITRE POUTRE 3D EN DEPLACEMENTS IMPOSES
#            CONFIGURATION MANAGEMENT OF EDF VERSION
# ======================================================================
# COPYRIGHT (C) 1991 - 2012  EDF R&D                  WWW.CODE-ASTER.ORG
# THIS PROGRAM IS FREE SOFTWARE; YOU CAN REDISTRIBUTE IT AND/OR MODIFY
# IT UNDER THE TERMS OF THE GNU GENERAL PUBLIC LICENSE AS PUBLISHED BY
# THE FREE SOFTWARE FOUNDATION; EITHER VERSION 2 OF THE LICENSE, OR
# (AT YOUR OPTION) ANY LATER VERSION.
#
# THIS PROGRAM IS DISTRIBUTED IN THE HOPE THAT IT WILL BE USEFUL, BUT
# WITHOUT ANY WARRANTY; WITHOUT EVEN THE IMPLIED WARRANTY OF
# MERCHANTABILITY OR FITNESS FOR A PARTICULAR PURPOSE. SEE THE GNU
# GENERAL PUBLIC LICENSE FOR MORE DETAILS.
#
# YOU SHOULD HAVE RECEIVED A COPY OF THE GNU GENERAL PUBLIC LICENSE
# ALONG WITH THIS PROGRAM; IF NOT, WRITE TO EDF R&D CODE_ASTER,
#    1 AVENUE DU GENERAL DE GAULLE, 92141 CLAMART CEDEX, FRANCE.
# ======================================================================
DEBUT( CODE=_F(  NOM = 'SSLV306A',NIV_PUB_WEB='INTERNET') )

MAIL=LIRE_MAILLAGE(FORMAT='MED',)

#
# DEFINITION DES GROUPES DE NOEUDS
MAIL=DEFI_GROUP( reuse=MAIL,   MAILLAGE=MAIL,CREA_GROUP_NO=(
                       _F(  GROUP_MA = 'ENCAST'),
                       _F(  GROUP_MA = 'FACE_TR'),
                       _F(  GROUP_MA = 'RESU_DEP'),
                       _F(  GROUP_MA = 'RESU_CON'))
                   )

#
# DEFINITION DU MODELE MECANIQUE
MODELE=AFFE_MODELE(    MAILLAGE=MAIL,
                           AFFE=_F(  TOUT = 'OUI',
                         PHENOMENE = 'MECANIQUE',
                         MODELISATION = '3D')  )

#
# DEFINITION DU MATERIAU
ACIER=DEFI_MATERIAU(    ELAS=_F(  E = 2.1E11,  NU = 0.3,
                                 ALPHA = 1.E-5,  RHO = 7800.)
                      )

#
# ATTRIBUTION DU MATERIAU
CHMAT=AFFE_MATERIAU(    MAILLAGE=MAIL,
                             AFFE=_F(  TOUT = 'OUI',
                                    MATER = ACIER)  )

#
F_Y=DEFI_FONCTION(    NOM_PARA='Y',
                        VALE=( 0.,           0.,
                               0.0999999,   -0.0714E-5,),
                        PROL_DROITE='LINEAIRE',
                       PROL_GAUCHE='LINEAIRE'
                    )

# DEFINITION DES DEPLACEMENTS IMPOSES
CHARGT1=AFFE_CHAR_MECA(    MODELE=MODELE,DDL_IMPO=(
                            _F(  GROUP_NO = 'ENCAST',
                                       DX = 0.,  DY = 0.,  DZ = 0.),
                            _F(  GROUP_NO = 'FACE_TR',
                                       DY = 0.952E-5))
                        )

CHARGT2=AFFE_CHAR_MECA_F(    MODELE=MODELE,
                              DDL_IMPO=_F(  GROUP_NO = 'FACE_TR',
                                         DX = F_Y)
                        )

# RESOLUTION
DEF=MECA_STATIQUE(    MODELE=MODELE,
                        CHAM_MATER=CHMAT,EXCIT=(
                        _F(  CHARGE = CHARGT1),
                        _F(  CHARGE = CHARGT2))  )


# CALCUL DES CONTRAINTES
DEF=CALC_CHAMP(reuse=DEF,RESULTAT=DEF,CONTRAINTE=('SIGM_ELNO'))


T1=POST_RELEVE_T(    ACTION=_F(  GROUP_NO = 'RESU_DEP',
                                INTITULE = 'DEP',
                                RESULTAT=DEF,
                                NUME_ORDRE=1,
                                NOM_CHAM='DEPL',
                                NOM_CMP = ('DX',  'DY',  'DZ',),
                                OPERATION = 'EXTRACTION')
                   )

#
T2=POST_RELEVE_T(    ACTION=_F(  GROUP_NO = 'RESU_CON',
                                INTITULE = 'SIG',
                                RESULTAT = DEF,
                                NUME_ORDRE=1,
                                NOM_CHAM='SIGM_ELNO',
                                NOM_CMP = ('SIXX',  'SIYY', 'SIZZ',),
                                OPERATION = 'EXTRACTION')
                   )

#
TEST_TABLE(
           VALE_CALC=9.5200000000000003E-06,
           TOLE_MACHINE=1.E-4,
           NOM_PARA='DY',
           TABLE=T1,
           FILTRE=_F(NOM_PARA='NOEUD',
                     VALE_K='N25',),
           )

TEST_TABLE(
           VALE_CALC=9.5200000000000003E-06,
           TOLE_MACHINE=1.E-4,
           NOM_PARA='DY',
           TABLE=T1,
           FILTRE=_F(NOM_PARA='NOEUD',
                     VALE_K='N34',),
           )

TEST_TABLE(
           VALE_CALC=9.5200000000000003E-06,
           TOLE_MACHINE=1.E-4,
           NOM_PARA='DY',
           TABLE=T1,
           FILTRE=_F(NOM_PARA='NOEUD',
                     VALE_K='N44',),
           )

TEST_TABLE(
           VALE_CALC=9.5200000000000003E-06,
           TOLE_MACHINE=1.E-4,
           NOM_PARA='DY',
           TABLE=T1,
           FILTRE=_F(NOM_PARA='NOEUD',
                     VALE_K='N41',),
           )

TEST_TABLE(
           VALE_CALC=7.1399999999999996E-07,
           TOLE_MACHINE=1.E-4,
           NOM_PARA='DX',
           TABLE=T1,
           FILTRE=_F(NOM_PARA='NOEUD',
                     VALE_K='N25',),
           )

TEST_TABLE(
           VALE_CALC=7.1399999999999996E-07,
           TOLE_MACHINE=1.E-4,
           NOM_PARA='DX',
           TABLE=T1,
           FILTRE=_F(NOM_PARA='NOEUD',
                     VALE_K='N34',),
           )

TEST_TABLE(
           VALE_CALC=-7.1399999999999996E-07,
           TOLE_MACHINE=1.E-4,
           NOM_PARA='DX',
           TABLE=T1,
           FILTRE=_F(NOM_PARA='NOEUD',
                     VALE_K='N44',),
           )

TEST_TABLE(
           VALE_CALC=-7.1399999999999996E-07,
           TOLE_MACHINE=1.E-4,
           NOM_PARA='DX',
           TABLE=T1,
           FILTRE=_F(NOM_PARA='NOEUD',
                     VALE_K='N41',),
           )

#
TEST_TABLE(PRECISION=0.104,
           VALE_CALC= 1.65515466E+05,
           VALE_REFE=1.50000E5,
           REFERENCE='NON_DEFINI',
           NOM_PARA='SIXX',
           TABLE=T2,
           FILTRE=_F(NOM_PARA='NOEUD',
                     VALE_K='N3',),
           )

TEST_TABLE(PRECISION=0.104,
           VALE_CALC= 1.65515466E+05,
           VALE_REFE=1.50000E5,
           REFERENCE='NON_DEFINI',
           NOM_PARA='SIXX',
           TABLE=T2,
           FILTRE=_F(NOM_PARA='NOEUD',
                     VALE_K='N4',),
           )

TEST_TABLE(PRECISION=0.104,
           VALE_CALC=-1.65515466E+05,
           VALE_REFE=-1.50000E5,
           REFERENCE='NON_DEFINI',
           NOM_PARA='SIXX',
           TABLE=T2,
           FILTRE=_F(NOM_PARA='NOEUD',
                     VALE_K='N5',),
           )

TEST_TABLE(PRECISION=0.104,
           VALE_CALC=-1.65515466E+05,
           VALE_REFE=-1.50000E5,
           REFERENCE='NON_DEFINI',
           NOM_PARA='SIXX',
           TABLE=T2,
           FILTRE=_F(NOM_PARA='NOEUD',
                     VALE_K='N6',),
           )

FIN()
#
