# TITRE CYLINDRE EN C.P. (TRIA3 QUAD4)
# ======================================================================
# COPYRIGHT (C) 1991 - 2012  EDF R&D                  WWW.CODE-ASTER.ORG
# THIS PROGRAM IS FREE SOFTWARE; YOU CAN REDISTRIBUTE IT AND/OR MODIFY
# IT UNDER THE TERMS OF THE GNU GENERAL PUBLIC LICENSE AS PUBLISHED BY
# THE FREE SOFTWARE FOUNDATION; EITHER VERSION 2 OF THE LICENSE, OR
# (AT YOUR OPTION) ANY LATER VERSION.
#
# THIS PROGRAM IS DISTRIBUTED IN THE HOPE THAT IT WILL BE USEFUL, BUT
# WITHOUT ANY WARRANTY; WITHOUT EVEN THE IMPLIED WARRANTY OF
# MERCHANTABILITY OR FITNESS FOR A PARTICULAR PURPOSE. SEE THE GNU
# GENERAL PUBLIC LICENSE FOR MORE DETAILS.
#
# YOU SHOULD HAVE RECEIVED A COPY OF THE GNU GENERAL PUBLIC LICENSE
# ALONG WITH THIS PROGRAM; IF NOT, WRITE TO EDF R&D CODE_ASTER,
#    1 AVENUE DU GENERAL DE GAULLE, 92141 CLAMART CEDEX, FRANCE.
# ======================================================================
#CAS_TEST__: SSLV04E
#
# ----------------------------------------------------------------------
# SSLV04 E                  COMMANDES
# CYLINDRE CREUX EN CONTRAINTES PLANES
#
# MODELISATION : ELEMENTS MECANIQUE C_PLAN (TRIA3 QUAD4)
# MAILLAGE     : GIBI > ASTER
# ----------------------------------------------------------------------
# GROUPES DE NOEUDS ET MAILLES: A B C D E F
#             BORDAB=AB     FACEEF=FE     FACEAE=AE
# ----------------------------------------------------------------------
#

DEBUT(CODE=_F(NIV_PUB_WEB='INTERNET'), DEBUG=_F(SDVERI='OUI'))

M0=LIRE_MAILLAGE(FORMAT='MED',)

M=CREA_MAILLAGE( MAILLAGE=M0,
                 MODI_MAILLE=_F( OPTION = 'QUAD_TRIA3',
                                 GROUP_MA = 'S2', ),
               )
DEFI_GROUP(reuse=M,       MAILLAGE=M,
                  CREA_GROUP_NO=_F( NOM = 'DIRI', GROUP_MA = 'AB'))

MO=AFFE_MODELE(            MAILLAGE=M,
                                   VERIF='MAILLE',
                                  AFFE=_F(  TOUT = 'OUI',
                                         PHENOMENE = 'MECANIQUE',
                                         MODELISATION = 'C_PLAN'))

MA=DEFI_MATERIAU(            ELAS=_F(  E = 200000.,
                                         NU = 0.3,
                                         ALPHA = 0.) )

CM=AFFE_MATERIAU(        MAILLAGE=M,
                                  AFFE=_F(  TOUT = 'OUI',
                                         MATER = MA))

CH=AFFE_CHAR_MECA(         MODELE=MO,
                              DDL_IMPO=_F(  GROUP_NO = 'DIRI',  DY = 0.),
                             FACE_IMPO=_F(  GROUP_MA = 'FE',  DNOR = 0.),
                              PRES_REP=_F(  GROUP_MA = 'AE',  PRES = 60.))


nor_DNOR = CREA_CHAMP( TYPE_CHAM = 'NOEU_GEOM_R',
                      OPERATION = 'NORMALE',
                      MODELE    = MO,
                      GROUP_MA  = 'FE'     );

IMPR_RESU( RESU=_F( CHAM_GD= nor_DNOR ), );

TEST_RESU(CHAM_NO=(_F(REFERENCE='ANALYTIQUE',
                      NOM_CMP='X',
                      GROUP_NO='E',
                      CHAM_GD=nor_DNOR,
                      VALE_CALC=-0.707106781,
                      VALE_REFE=-0.70699999999999996,),
                   _F(REFERENCE='ANALYTIQUE',
                      NOM_CMP='Y',
                      GROUP_NO='E',
                      CHAM_GD=nor_DNOR,
                      VALE_CALC=0.707106781,
                      VALE_REFE=0.70699999999999996,),
                   _F(REFERENCE='ANALYTIQUE',
                      NOM_CMP='X',
                      GROUP_NO='F',
                      CHAM_GD=nor_DNOR,
                      VALE_CALC=-0.707106781,
                      VALE_REFE=-0.70699999999999996,),
                   _F(REFERENCE='ANALYTIQUE',
                      NOM_CMP='Y',
                      GROUP_NO='F',
                      CHAM_GD=nor_DNOR,
                      VALE_CALC=0.707106781,
                      VALE_REFE=0.70699999999999996,),
                   ),
          )

nor_PRES = CREA_CHAMP( TYPE_CHAM = 'NOEU_GEOM_R',
                      OPERATION = 'NORMALE',
                      MODELE    = MO,
                      GROUP_MA  = 'AE'     );

IMPR_RESU( RESU=_F( CHAM_GD= nor_PRES ), );

TEST_RESU(CHAM_NO=(_F(REFERENCE='ANALYTIQUE',
                      NOM_CMP='X',
                      GROUP_NO='A',
                      CHAM_GD=nor_PRES,
                      VALE_CALC=-0.999914329,
                      VALE_REFE=-1.0,),
                   _F(CRITERE='ABSOLU',
                      NOM_CMP='Y',
                      GROUP_NO='A',
                      PRECISION=0.014999999999999999,
                      CHAM_GD=nor_PRES,
                      VALE_CALC=-0.013089517,
                      VALE_REFE=0.0,
                      REFERENCE='NON_DEFINI',),
                   _F(REFERENCE='ANALYTIQUE',
                      NOM_CMP='X',
                      GROUP_NO='E',
                      PRECISION=0.014999999999999999,
                      CHAM_GD=nor_PRES,
                      VALE_CALC=-0.716301446,
                      VALE_REFE=-0.70699999999999996,),
                   _F(REFERENCE='ANALYTIQUE',
                      NOM_CMP='Y',
                      GROUP_NO='E',
                      PRECISION=0.014999999999999999,
                      CHAM_GD=nor_PRES,
                      VALE_CALC=-0.697790971,
                      VALE_REFE=-0.70699999999999996,),
                   ),
          )

RESU=MECA_STATIQUE(         MODELE=MO,    CHAM_MATER=CM,
                          EXCIT=_F(  CHARGE = CH),
                      )

CALC_CHAMP(reuse=RESU,RESULTAT=RESU,CONTRAINTE=('SIGM_ELNO'),DEFORMATION=('EPSI_ELNO'))


CALC_CHAMP( reuse=RESU,                      RESULTAT=RESU,
                     DEFORMATION='EPSI_NOEU',CONTRAINTE='SIGM_NOEU')

TEST_RESU(RESU=(_F(NUME_ORDRE=1,
                   GROUP_NO='A',
                   REFERENCE='ANALYTIQUE',
                   RESULTAT=RESU,
                   NOM_CHAM='DEPL',
                   NOM_CMP='DX',
                   VALE_CALC= 5.89521686E-05,
                   VALE_REFE=5.8999999999999998E-05,
                   CRITERE='RELATIF',
                   PRECISION=1.E-2,),
                _F(NUME_ORDRE=1,
                   GROUP_NO='A',
                   REFERENCE='ANALYTIQUE',
                   RESULTAT=RESU,
                   NOM_CHAM='DEPL',
                   NOM_CMP='DY',
                   VALE_CALC= 6.1211365329E-23,
                   VALE_REFE=0.0,
                   CRITERE='ABSOLU',
                   PRECISION=1.E-10,),
                _F(NUME_ORDRE=1,
                   GROUP_NO='B',
                   REFERENCE='ANALYTIQUE',
                   RESULTAT=RESU,
                   NOM_CHAM='DEPL',
                   NOM_CMP='DX',
                   VALE_CALC= 3.99614395E-05,
                   VALE_REFE=4.0000000000000003E-05,
                   CRITERE='RELATIF',
                   PRECISION=1.E-2,),
                _F(NUME_ORDRE=1,
                   GROUP_NO='B',
                   REFERENCE='ANALYTIQUE',
                   RESULTAT=RESU,
                   NOM_CHAM='DEPL',
                   NOM_CMP='DY',
                   VALE_CALC=0.0E+00,
                   VALE_REFE=0.0,
                   CRITERE='ABSOLU',
                   PRECISION=1.E-10,),
                _F(NUME_ORDRE=1,
                   GROUP_NO='D',
                   REFERENCE='ANALYTIQUE',
                   RESULTAT=RESU,
                   NOM_CHAM='DEPL',
                   NOM_CMP='DX',
                   VALE_CALC= 3.69843872E-05,
                   VALE_REFE=3.6955200000000002E-05,
                   CRITERE='RELATIF',
                   PRECISION=1.E-2,),
                _F(NUME_ORDRE=1,
                   GROUP_NO='D',
                   REFERENCE='ANALYTIQUE',
                   RESULTAT=RESU,
                   NOM_CHAM='DEPL',
                   NOM_CMP='DY',
                   VALE_CALC= 1.52565160E-05,
                   VALE_REFE=1.5307300000000002E-05,
                   CRITERE='RELATIF',
                   PRECISION=1.E-2,),
                _F(NUME_ORDRE=1,
                   GROUP_NO='E',
                   REFERENCE='ANALYTIQUE',
                   RESULTAT=RESU,
                   NOM_CHAM='DEPL',
                   NOM_CMP='DX',
                   VALE_CALC= 4.17375277E-05,
                   VALE_REFE=4.1719299999999999E-05,
                   CRITERE='RELATIF',
                   PRECISION=1.E-2,),
                _F(NUME_ORDRE=1,
                   GROUP_NO='E',
                   REFERENCE='ANALYTIQUE',
                   RESULTAT=RESU,
                   NOM_CHAM='DEPL',
                   NOM_CMP='DY',
                   VALE_CALC= 4.17375277E-05,
                   VALE_REFE=4.1719299999999999E-05,
                   CRITERE='RELATIF',
                   PRECISION=1.E-2,),
                _F(NUME_ORDRE=1,
                   GROUP_NO='F',
                   REFERENCE='ANALYTIQUE',
                   RESULTAT=RESU,
                   NOM_CHAM='DEPL',
                   NOM_CMP='DX',
                   VALE_CALC= 2.82593176E-05,
                   VALE_REFE=2.82843E-05,
                   CRITERE='RELATIF',
                   PRECISION=1.E-2,),
                _F(NUME_ORDRE=1,
                   GROUP_NO='F',
                   REFERENCE='ANALYTIQUE',
                   RESULTAT=RESU,
                   NOM_CHAM='DEPL',
                   NOM_CMP='DY',
                   VALE_CALC= 2.82593176E-05,
                   VALE_REFE=2.82843E-05,
                   CRITERE='RELATIF',
                   PRECISION=1.E-2,),
                ),
          )

#-----------------------------------------------------------------

TEST_RESU(RESU=(_F(NUME_ORDRE=1,
                   GROUP_NO='A',
                   REFERENCE='ANALYTIQUE',
                   RESULTAT=RESU,
                   NOM_CHAM='EPSI_NOEU',
                   NOM_CMP='EPXX',
                   VALE_CALC=-4.47197650E-04,
                   VALE_REFE=-4.4999999999999999E-4,
                   CRITERE='RELATIF',
                   PRECISION=1.E-2,),
                _F(NUME_ORDRE=1,
                   GROUP_NO='A',
                   REFERENCE='ANALYTIQUE',
                   RESULTAT=RESU,
                   NOM_CHAM='EPSI_NOEU',
                   NOM_CMP='EPYY',
                   VALE_CALC=5.90293957E-04,
                   VALE_REFE=5.9E-4,
                   CRITERE='RELATIF',
                   PRECISION=1.E-2,),
                _F(NUME_ORDRE=1,
                   GROUP_NO='A',
                   REFERENCE='ANALYTIQUE',
                   RESULTAT=RESU,
                   NOM_CHAM='EPSI_NOEU',
                   NOM_CMP='EPZZ',
                   VALE_CALC=-6.13269884E-05,
                   VALE_REFE=0.0,
                   CRITERE='ABSOLU',
                   PRECISION=1.E-4,),
                _F(NUME_ORDRE=1,
                   GROUP_NO='A',
                   REFERENCE='ANALYTIQUE',
                   RESULTAT=RESU,
                   NOM_CHAM='EPSI_NOEU',
                   NOM_CMP='EPXY',
                   VALE_CALC=-6.81112515E-06,
                   VALE_REFE=0.0,
                   CRITERE='ABSOLU',
                   PRECISION=1.E-4,),
                ),
          )

#-----------------------------------------------------------------

TEST_RESU(RESU=(_F(NUME_ORDRE=1,
                   GROUP_NO='B',
                   REFERENCE='ANALYTIQUE',
                   RESULTAT=RESU,
                   NOM_CHAM='EPSI_NOEU',
                   NOM_CMP='EPXX',
                   VALE_CALC=-6.66404670E-05,
                   VALE_REFE=-6.0000000000000002E-05,
                   CRITERE='RELATIF',
                   PRECISION=0.12,),
                _F(NUME_ORDRE=1,
                   GROUP_NO='B',
                   REFERENCE='ANALYTIQUE',
                   RESULTAT=RESU,
                   NOM_CHAM='EPSI_NOEU',
                   NOM_CMP='EPYY',
                   VALE_CALC= 1.99396778E-04,
                   VALE_REFE=2.0000000000000001E-4,
                   CRITERE='RELATIF',
                   PRECISION=1.E-2,),
                _F(NUME_ORDRE=1,
                   GROUP_NO='B',
                   REFERENCE='ANALYTIQUE',
                   RESULTAT=RESU,
                   NOM_CHAM='EPSI_NOEU',
                   NOM_CMP='EPZZ',
                   VALE_CALC=-5.68955619E-05,
                   VALE_REFE=0.0,
                   CRITERE='ABSOLU',
                   PRECISION=1.E-4,),
                _F(NUME_ORDRE=1,
                   GROUP_NO='B',
                   REFERENCE='ANALYTIQUE',
                   RESULTAT=RESU,
                   NOM_CHAM='EPSI_NOEU',
                   NOM_CMP='EPXY',
                   VALE_CALC=-1.72352281E-06,
                   VALE_REFE=0.0,
                   CRITERE='ABSOLU',
                   PRECISION=1.E-4,),
                ),
          )

#-----------------------------------------------------------------

TEST_RESU(RESU=(_F(NUME_ORDRE=1,
                   GROUP_NO='E',
                   REFERENCE='ANALYTIQUE',
                   RESULTAT=RESU,
                   NOM_CHAM='EPSI_NOEU',
                   NOM_CMP='EPXX',
                   VALE_CALC= 6.17336413E-05,
                   VALE_REFE=6.9999999999999994E-05,
                   CRITERE='RELATIF',
                   PRECISION=0.14999999999999999,),
                _F(NUME_ORDRE=1,
                   GROUP_NO='E',
                   REFERENCE='ANALYTIQUE',
                   RESULTAT=RESU,
                   NOM_CHAM='EPSI_NOEU',
                   NOM_CMP='EPYY',
                   VALE_CALC= 7.80162717E-05,
                   VALE_REFE=6.9999999999999994E-05,
                   CRITERE='RELATIF',
                   PRECISION=0.14999999999999999,),
                _F(NUME_ORDRE=1,
                   GROUP_NO='E',
                   REFERENCE='ANALYTIQUE',
                   RESULTAT=RESU,
                   NOM_CHAM='EPSI_NOEU',
                   NOM_CMP='EPZZ',
                   VALE_CALC=-5.98928198E-05,
                   VALE_REFE=0.0,
                   CRITERE='ABSOLU',
                   PRECISION=1.E-4,),
                _F(NUME_ORDRE=1,
                   GROUP_NO='E',
                   REFERENCE='ANALYTIQUE',
                   RESULTAT=RESU,
                   NOM_CHAM='EPSI_NOEU',
                   NOM_CMP='EPXY',
                   VALE_CALC=-5.17945885E-04,
                   VALE_REFE=-5.1999999999999995E-4,
                   CRITERE='RELATIF',
                   PRECISION=1.E-2,),
                ),
          )

#-----------------------------------------------------------------

TEST_RESU(RESU=(_F(NUME_ORDRE=1,
                   GROUP_NO='F',
                   REFERENCE='ANALYTIQUE',
                   RESULTAT=RESU,
                   NOM_CHAM='EPSI_NOEU',
                   NOM_CMP='EPXX',
                   VALE_CALC= 6.69024603E-05,
                   VALE_REFE=6.9999999999999994E-05,
                   CRITERE='RELATIF',
                   PRECISION=0.050000000000000003,),
                _F(NUME_ORDRE=1,
                   GROUP_NO='F',
                   REFERENCE='ANALYTIQUE',
                   RESULTAT=RESU,
                   NOM_CHAM='EPSI_NOEU',
                   NOM_CMP='EPYY',
                   VALE_CALC= 7.20488144E-05,
                   VALE_REFE=6.9999999999999994E-05,
                   CRITERE='RELATIF',
                   PRECISION=0.050000000000000003,),
                _F(NUME_ORDRE=1,
                   GROUP_NO='F',
                   REFERENCE='ANALYTIQUE',
                   RESULTAT=RESU,
                   NOM_CHAM='EPSI_NOEU',
                   NOM_CMP='EPZZ',
                   VALE_CALC=-5.95505463E-05,
                   VALE_REFE=0.0,
                   CRITERE='ABSOLU',
                   PRECISION=1.E-4,),
                _F(NUME_ORDRE=1,
                   GROUP_NO='F',
                   REFERENCE='ANALYTIQUE',
                   RESULTAT=RESU,
                   NOM_CHAM='EPSI_NOEU',
                   NOM_CMP='EPXY',
                   VALE_CALC=-1.37664444E-04,
                   VALE_REFE=-1.2999999999999999E-4,
                   CRITERE='RELATIF',
                   PRECISION=0.070000000000000007,),
                ),
          )

#-----------------------------------------------------------------

TEST_RESU(RESU=(_F(NUME_ORDRE=1,
                   GROUP_NO='A',
                   REFERENCE='ANALYTIQUE',
                   RESULTAT=RESU,
                   NOM_CHAM='SIGM_NOEU',
                   NOM_CMP='SIXX',
                   VALE_CALC=-59.364717203,
                   VALE_REFE=-60.0,
                   CRITERE='RELATIF',
                   PRECISION=0.02,),
                _F(NUME_ORDRE=1,
                   GROUP_NO='A',
                   REFERENCE='ANALYTIQUE',
                   RESULTAT=RESU,
                   NOM_CHAM='SIGM_NOEU',
                   NOM_CMP='SIYY',
                   VALE_CALC=100.249376158,
                   VALE_REFE=100.0,
                   CRITERE='RELATIF',
                   PRECISION=1.E-2,),
                _F(NUME_ORDRE=1,
                   GROUP_NO='A',
                   REFERENCE='ANALYTIQUE',
                   RESULTAT=RESU,
                   NOM_CHAM='SIGM_NOEU',
                   NOM_CMP='SIZZ',
                   VALE_CALC= 0.00000000E+00,
                   VALE_REFE=0.0,
                   CRITERE='ABSOLU',
                   PRECISION=1.0000000000000001E-05,),
                _F(NUME_ORDRE=1,
                   GROUP_NO='A',
                   REFERENCE='ANALYTIQUE',
                   RESULTAT=RESU,
                   NOM_CHAM='SIGM_NOEU',
                   NOM_CMP='SIXY',
                   VALE_CALC=-1.047865408,
                   VALE_REFE=0.0,
                   CRITERE='ABSOLU',
                   PRECISION=2.0,),
                ),
          )

#-----------------------------------------------------------------

TEST_RESU(RESU=(_F(NUME_ORDRE=1,
                   GROUP_NO='B',
                   REFERENCE='ANALYTIQUE',
                   RESULTAT=RESU,
                   NOM_CHAM='SIGM_NOEU',
                   NOM_CMP='SIXX',
                   VALE_CALC=-1.499216175,
                   VALE_REFE=0.0,
                   CRITERE='ABSOLU',
                   PRECISION=1.5,),
                _F(NUME_ORDRE=1,
                   GROUP_NO='B',
                   REFERENCE='ANALYTIQUE',
                   RESULTAT=RESU,
                   NOM_CHAM='SIGM_NOEU',
                   NOM_CMP='SIYY',
                   VALE_CALC=39.429590778,
                   VALE_REFE=40.0,
                   CRITERE='RELATIF',
                   PRECISION=0.02,),
                _F(NUME_ORDRE=1,
                   GROUP_NO='B',
                   REFERENCE='ANALYTIQUE',
                   RESULTAT=RESU,
                   NOM_CHAM='SIGM_NOEU',
                   NOM_CMP='SIZZ',
                   VALE_CALC= 0.00000000E+00,
                   VALE_REFE=0.0,
                   CRITERE='ABSOLU',
                   PRECISION=1.0000000000000001E-05,),
                _F(NUME_ORDRE=1,
                   GROUP_NO='B',
                   REFERENCE='ANALYTIQUE',
                   RESULTAT=RESU,
                   NOM_CHAM='SIGM_NOEU',
                   NOM_CMP='SIXY',
                   VALE_CALC=-0.265157355,
                   VALE_REFE=0.0,
                   CRITERE='ABSOLU',
                   PRECISION=1.0,),
                ),
          )

#-----------------------------------------------------------------

TEST_RESU(RESU=(_F(NUME_ORDRE=1,
                   GROUP_NO='E',
                   REFERENCE='ANALYTIQUE',
                   RESULTAT=RESU,
                   NOM_CHAM='SIGM_NOEU',
                   NOM_CMP='SIXX',
                   VALE_CALC=18.711763254,
                   VALE_REFE=20.0,
                   CRITERE='RELATIF',
                   PRECISION=0.070000000000000007,),
                _F(NUME_ORDRE=1,
                   GROUP_NO='E',
                   REFERENCE='ANALYTIQUE',
                   RESULTAT=RESU,
                   NOM_CHAM='SIGM_NOEU',
                   NOM_CMP='SIYY',
                   VALE_CALC=21.216783312,
                   VALE_REFE=20.0,
                   CRITERE='RELATIF',
                   PRECISION=0.070000000000000007,),
                _F(NUME_ORDRE=1,
                   GROUP_NO='E',
                   REFERENCE='ANALYTIQUE',
                   RESULTAT=RESU,
                   NOM_CHAM='SIGM_NOEU',
                   NOM_CMP='SIZZ',
                   VALE_CALC= 0.00000000E+00,
                   VALE_REFE=0.0,
                   CRITERE='ABSOLU',
                   PRECISION=1.0000000000000001E-05,),
                _F(NUME_ORDRE=1,
                   GROUP_NO='E',
                   REFERENCE='ANALYTIQUE',
                   RESULTAT=RESU,
                   NOM_CHAM='SIGM_NOEU',
                   NOM_CMP='SIXY',
                   VALE_CALC=-79.683982312,
                   VALE_REFE=-80.0,
                   CRITERE='RELATIF',
                   PRECISION=1.E-2,),
                ),
          )

#-----------------------------------------------------------------

TEST_RESU(RESU=(_F(NUME_ORDRE=1,
                   GROUP_NO='F',
                   REFERENCE='ANALYTIQUE',
                   RESULTAT=RESU,
                   NOM_CHAM='SIGM_NOEU',
                   NOM_CMP='SIXX',
                   VALE_CALC=19.454308706,
                   VALE_REFE=20.0,
                   CRITERE='RELATIF',
                   PRECISION=0.029999999999999999,),
                _F(NUME_ORDRE=1,
                   GROUP_NO='F',
                   REFERENCE='ANALYTIQUE',
                   RESULTAT=RESU,
                   NOM_CHAM='SIGM_NOEU',
                   NOM_CMP='SIYY',
                   VALE_CALC=20.246055485,
                   VALE_REFE=20.0,
                   CRITERE='RELATIF',
                   PRECISION=0.02,),
                _F(NUME_ORDRE=1,
                   GROUP_NO='F',
                   REFERENCE='ANALYTIQUE',
                   RESULTAT=RESU,
                   NOM_CHAM='SIGM_NOEU',
                   NOM_CMP='SIZZ',
                   VALE_CALC= 0.00000000E+00,
                   VALE_REFE=0.0,
                   CRITERE='ABSOLU',
                   PRECISION=1.0000000000000001E-05,),
                _F(NUME_ORDRE=1,
                   GROUP_NO='F',
                   REFERENCE='ANALYTIQUE',
                   RESULTAT=RESU,
                   NOM_CHAM='SIGM_NOEU',
                   NOM_CMP='SIXY',
                   VALE_CALC=-21.179145222,
                   VALE_REFE=-20.0,
                   CRITERE='RELATIF',
                   PRECISION=0.070000000000000007,),
                ),
          )

#----------------------------------------------------------------
# VALIDATION DE MODI_REPERE UTILISATEUR

RESU1=MODI_REPERE(
                  RESULTAT    = RESU,
                  NUME_ORDRE  = 1,
                  MODI_CHAM  = (_F(NOM_CHAM   = 'SIGM_ELNO',
                      NOM_CMP = ('SIXX','SIYY','SIZZ','SIXY',),
                                   TYPE_CHAM = 'TENS_2D',),
                                 _F(NOM_CHAM   = 'SIGM_NOEU',
                      NOM_CMP = ('SIXX','SIYY','SIZZ','SIXY',),
                                   TYPE_CHAM = 'TENS_2D',),
                                _F(NOM_CHAM   = 'DEPL',
                                   NOM_CMP    = ('DX','DY',),
                                   TYPE_CHAM  = 'VECT_2D',),),
                   REPERE    = 'UTILISATEUR',
                   AFFE = _F(
                                   ANGL_NAUT = 0.,
                                  ),
                  INFO=1,
                )
TEST_RESU(RESU=(_F(NUME_ORDRE=1,
                   GROUP_NO='A',
                   REFERENCE='ANALYTIQUE',
                   RESULTAT=RESU1,
                   NOM_CHAM='DEPL',
                   NOM_CMP='DX',
                   VALE_CALC=5.89521686E-05,
                   VALE_REFE=5.9E-05,
                   CRITERE='RELATIF',
                   PRECISION=1.E-2,),
                _F(NUME_ORDRE=1,
                   GROUP_NO='A',
                   REFERENCE='ANALYTIQUE',
                   RESULTAT=RESU1,
                   NOM_CHAM='DEPL',
                   NOM_CMP='DY',
                   VALE_CALC= 6.1211365329E-23,
                   VALE_REFE=0.0,
                   CRITERE='ABSOLU',
                   PRECISION=1.E-10,),
                _F(NUME_ORDRE=1,
                   GROUP_NO='B',
                   REFERENCE='ANALYTIQUE',
                   RESULTAT=RESU1,
                   NOM_CHAM='DEPL',
                   NOM_CMP='DX',
                   VALE_CALC= 3.99614395E-05,
                   VALE_REFE=4.0E-05,
                   CRITERE='RELATIF',
                   PRECISION=1.E-2,),
                _F(NUME_ORDRE=1,
                   GROUP_NO='B',
                   REFERENCE='ANALYTIQUE',
                   RESULTAT=RESU1,
                   NOM_CHAM='DEPL',
                   NOM_CMP='DY',
                   VALE_CALC=0.0E+00,
                   VALE_REFE=0.0,
                   CRITERE='ABSOLU',
                   PRECISION=1.E-10,),
                _F(NUME_ORDRE=1,
                   GROUP_NO='D',
                   REFERENCE='ANALYTIQUE',
                   RESULTAT=RESU1,
                   NOM_CHAM='DEPL',
                   NOM_CMP='DX',
                   VALE_CALC= 3.69843872E-05,
                   VALE_REFE=3.6955200000000002E-05,
                   CRITERE='RELATIF',
                   PRECISION=1.E-2,),
                _F(NUME_ORDRE=1,
                   GROUP_NO='D',
                   REFERENCE='ANALYTIQUE',
                   RESULTAT=RESU1,
                   NOM_CHAM='DEPL',
                   NOM_CMP='DY',
                   VALE_CALC= 1.52565160E-05,
                   VALE_REFE=1.5307300000000002E-05,
                   CRITERE='RELATIF',
                   PRECISION=1.E-2,),
                _F(NUME_ORDRE=1,
                   GROUP_NO='E',
                   REFERENCE='ANALYTIQUE',
                   RESULTAT=RESU1,
                   NOM_CHAM='DEPL',
                   NOM_CMP='DX',
                   VALE_CALC= 4.17375277E-05,
                   VALE_REFE=4.1719299999999999E-05,
                   CRITERE='RELATIF',
                   PRECISION=1.E-2,),
                _F(NUME_ORDRE=1,
                   GROUP_NO='E',
                   REFERENCE='ANALYTIQUE',
                   RESULTAT=RESU1,
                   NOM_CHAM='DEPL',
                   NOM_CMP='DY',
                   VALE_CALC= 4.17375277E-05,
                   VALE_REFE=4.1719299999999999E-05,
                   CRITERE='RELATIF',
                   PRECISION=1.E-2,),
                _F(NUME_ORDRE=1,
                   GROUP_NO='F',
                   REFERENCE='ANALYTIQUE',
                   RESULTAT=RESU1,
                   NOM_CHAM='DEPL',
                   NOM_CMP='DX',
                   VALE_CALC= 2.82593176E-05,
                   VALE_REFE=2.82843E-05,
                   CRITERE='RELATIF',
                   PRECISION=1.E-2,),
                _F(NUME_ORDRE=1,
                   GROUP_NO='F',
                   REFERENCE='ANALYTIQUE',
                   RESULTAT=RESU1,
                   NOM_CHAM='DEPL',
                   NOM_CMP='DY',
                   VALE_CALC= 2.82593176E-05,
                   VALE_REFE=2.82843E-05,
                   CRITERE='RELATIF',
                   PRECISION=1.E-2,),
                ),
          )

TEST_RESU(RESU=(_F(NUME_ORDRE=1,
                   GROUP_NO='F',
                   REFERENCE='ANALYTIQUE',
                   RESULTAT=RESU1,
                   NOM_CHAM='SIGM_NOEU',
                   NOM_CMP='SIXX',
                   VALE_CALC=19.454308706,
                   VALE_REFE=20.0,
                   CRITERE='RELATIF',
                   PRECISION=0.029999999999999999,),
                _F(NUME_ORDRE=1,
                   GROUP_NO='F',
                   REFERENCE='ANALYTIQUE',
                   RESULTAT=RESU1,
                   NOM_CHAM='SIGM_NOEU',
                   NOM_CMP='SIYY',
                   VALE_CALC=20.246055485,
                   VALE_REFE=20.0,
                   CRITERE='RELATIF',
                   PRECISION=0.02,),
                _F(NUME_ORDRE=1,
                   GROUP_NO='F',
                   REFERENCE='ANALYTIQUE',
                   RESULTAT=RESU1,
                   NOM_CHAM='SIGM_NOEU',
                   NOM_CMP='SIZZ',
                   VALE_CALC= 0.00000000E+00,
                   VALE_REFE=0.0,
                   CRITERE='ABSOLU',
                   PRECISION=1.0000000000000001E-05,),
                _F(NUME_ORDRE=1,
                   GROUP_NO='F',
                   REFERENCE='ANALYTIQUE',
                   RESULTAT=RESU1,
                   NOM_CHAM='SIGM_NOEU',
                   NOM_CMP='SIXY',
                   VALE_CALC=-21.179145222,
                   VALE_REFE=-20.0,
                   CRITERE='RELATIF',
                   PRECISION=0.070000000000000007,),
                ),
          )

# VALIDATION DE MODI_REPERE (EN 2D) CYLINRIQUE

RESU2=MODI_REPERE(
                  RESULTAT    = RESU,
                  NUME_ORDRE  = 1,
                  MODI_CHAM  = (_F(NOM_CHAM   = 'SIGM_ELNO',
                      NOM_CMP = ('SIXX','SIYY','SIZZ','SIXY',),
                                   TYPE_CHAM = 'TENS_2D',),
                                 _F(NOM_CHAM   = 'SIGM_NOEU',
                      NOM_CMP = ('SIXX','SIYY','SIZZ','SIXY',),
                                   TYPE_CHAM = 'TENS_2D',),
                                _F(NOM_CHAM   = 'DEPL',
                                   NOM_CMP    = ('DX','DY',),
                                   TYPE_CHAM  = 'VECT_2D',),),
                   REPERE     = 'CYLINDRIQUE',
                   AFFE = _F(
#                                   REPERE    = 'UTILISATEUR',
#                                   ANGL_NAUT = 90.,
                                   ORIGINE    = (0.0, 0.0,),
                                  ),
                  INFO=1,
                )
TEST_RESU(RESU=(_F(NUME_ORDRE=1,
                   GROUP_NO='A',
                   RESULTAT=RESU2,
                   NOM_CHAM='DEPL',
                   NOM_CMP='DX',
                   VALE_CALC=5.8952168561616E-05,
                   CRITERE='RELATIF',
                   ),
                _F(NUME_ORDRE=1,
                   GROUP_NO='A',
                   RESULTAT=RESU2,
                   NOM_CHAM='DEPL',
                   NOM_CMP='DY',
                   VALE_CALC=0.0,
                   CRITERE='ABSOLU',
                   ),
                _F(NUME_ORDRE=1,
                   GROUP_NO='A',
                   RESULTAT=RESU2,
                   NOM_CHAM='SIGM_ELNO',
                   NOM_CMP='SIXX',
                   VALE_CALC=-59.364717202939,
                   CRITERE='RELATIF',
                   MAILLE='M1',),
                _F(NUME_ORDRE=1,
                   GROUP_NO='A',
                   RESULTAT=RESU2,
                   NOM_CHAM='SIGM_ELNO',
                   NOM_CMP='SIYY',
                   VALE_CALC=0.0,
                   CRITERE='ABSOLU',
                   MAILLE='M1',),
                _F(NUME_ORDRE=1,
                   GROUP_NO='A',
                   RESULTAT=RESU2,
                   NOM_CHAM='SIGM_ELNO',
                   NOM_CMP='SIZZ',
                   VALE_CALC=100.24937615787,
                   CRITERE='RELATIF',
                   MAILLE='M1',),
                _F(NUME_ORDRE=1,
                   GROUP_NO='A',
                   RESULTAT=RESU2,
                   NOM_CHAM='SIGM_ELNO',
                   NOM_CMP='SIXY',
                   VALE_CALC=-1.0478654084057,
                   CRITERE='RELATIF',
                   MAILLE='M1',),
                _F(NUME_ORDRE=1,
                   GROUP_NO='A',
                   RESULTAT=RESU2,
                   NOM_CHAM='SIGM_NOEU',
                   NOM_CMP='SIXX',
                   VALE_CALC=-59.364717202939,
                   CRITERE='RELATIF',
                   MAILLE='M1',),
                _F(NUME_ORDRE=1,
                   GROUP_NO='A',
                   RESULTAT=RESU2,
                   NOM_CHAM='SIGM_NOEU',
                   NOM_CMP='SIYY',
                   VALE_CALC=0.0,
                   CRITERE='ABSOLU',
                   MAILLE='M1',),
                _F(NUME_ORDRE=1,
                   GROUP_NO='A',
                   RESULTAT=RESU2,
                   NOM_CHAM='SIGM_NOEU',
                   NOM_CMP='SIZZ',
                   VALE_CALC=100.24937615787,
                   CRITERE='RELATIF',
                   MAILLE='M1',),
                _F(NUME_ORDRE=1,
                   GROUP_NO='A',
                   RESULTAT=RESU2,
                   NOM_CHAM='SIGM_NOEU',
                   NOM_CMP='SIXY',
                   VALE_CALC=-1.0478654084057,
                   CRITERE='RELATIF',
                   MAILLE='M1',),
                ),
          )

#
FIN()
