# MODIF  DATE 05/03/2012   AUTEUR PELLET J.PELLET 
# TITRE CYLINDRE EN INCOMPRESSIBLE (PENTA15 HEXA20)
# sslv130a.para = tps_job 120 mem_job 128Mo ncpus 1 liste_test R
#            CONFIGURATION MANAGEMENT OF EDF VERSION
# ======================================================================
# COPYRIGHT (C) 1991 - 2012  EDF R&D                  WWW.CODE-ASTER.ORG
# THIS PROGRAM IS FREE SOFTWARE; YOU CAN REDISTRIBUTE IT AND/OR MODIFY
# IT UNDER THE TERMS OF THE GNU GENERAL PUBLIC LICENSE AS PUBLISHED BY
# THE FREE SOFTWARE FOUNDATION; EITHER VERSION 2 OF THE LICENSE, OR
# (AT YOUR OPTION) ANY LATER VERSION.
#
# THIS PROGRAM IS DISTRIBUTED IN THE HOPE THAT IT WILL BE USEFUL, BUT
# WITHOUT ANY WARRANTY; WITHOUT EVEN THE IMPLIED WARRANTY OF
# MERCHANTABILITY OR FITNESS FOR A PARTICULAR PURPOSE. SEE THE GNU
# GENERAL PUBLIC LICENSE FOR MORE DETAILS.
#
# YOU SHOULD HAVE RECEIVED A COPY OF THE GNU GENERAL PUBLIC LICENSE
# ALONG WITH THIS PROGRAM; IF NOT, WRITE TO EDF R&D CODE_ASTER,
#    1 AVENUE DU GENERAL DE GAULLE, 92141 CLAMART CEDEX, FRANCE.
# ======================================================================
# CAS_TEST__: SSLV130A
#
# ----------------------------------------------------------------------
#
# CYLINDRE CREUX EN INCOMPRESSIBLE (NU=0.4999)
# SOUS PRESSION INTERNE (60 MPA)
#
# MODELISATION : ELEMENTS MECANIQUE 3D INCOMP.(HEXA20+QUAD8)
# MAILLAGE     : GIBI
# ----------------------------------------------------------------------
# GROUPES DE NOEUDS ET MAILLES :
# GRNO: A B C D E F  NOEUMI
# GRMA: FACEEF     FACEAE   FACEAB   FACESUP   FACEINF VOLUME
# ----------------------------------------------------------------------

DEBUT(CODE=_F(NOM='SSLV130A',
              NIV_PUB_WEB='INTERNET',),
      DEBUG=_F(SDVERI='OUI',),);

M=LIRE_MAILLAGE(FORMAT='MED',
                VERI_MAIL=_F(VERIF='OUI',),);

MO=AFFE_MODELE(MAILLAGE=M,
               VERIF='MAILLE',
               AFFE=_F(GROUP_MA=('VOLUME','FACEEF','FACEAE','FACEAB','FACSUP','FACINF',),
                       PHENOMENE='MECANIQUE',
                       MODELISATION='3D_INCO',),);

M=MODI_MAILLAGE(reuse =M,
                MAILLAGE=M,
                ORIE_PEAU_3D=_F(GROUP_MA=('FACEEF','FACEAE',),),);

MA=DEFI_MATERIAU(ELAS=_F(E=200000.,
                         NU=0.4999,
                         ALPHA=0.,),);

CM=AFFE_MATERIAU(MAILLAGE=M,
                 AFFE=_F(TOUT='OUI',
                         MATER=MA,),);

CH=AFFE_CHAR_MECA(MODELE=MO,
                  DDL_IMPO=(_F(GROUP_MA='FACEAB',
                               DX=0.,),
                            _F(GROUP_MA='FACSUP',
                               DZ=0.,),
                            _F(GROUP_MA='FACINF',
                               DZ=0.,),),
                  FACE_IMPO=_F(GROUP_MA='FACEEF',
                               DNOR=0.,),
                  PRES_REP=_F(GROUP_MA='FACEAE',
                              PRES=60.,),);

INSTANTS=DEFI_LIST_REEL(DEBUT=0.,
                        INTERVALLE=_F(JUSQU_A=1.,
                                      NOMBRE=1,),);

RAMPE=DEFI_FONCTION(NOM_PARA='INST',VALE=(0.,0.,
                          1.,1.,
                          ),);

EVOL=STAT_NON_LINE(MODELE=MO,
                   CHAM_MATER=CM,
                   EXCIT=_F(CHARGE=CH,
                            FONC_MULT=RAMPE,),
                   COMP_INCR=_F(RELATION='ELAS',),
                   INCREMENT=_F(LIST_INST=INSTANTS,),
                   NEWTON=_F(REAC_ITER=1,),
                   SOLVEUR=_F(RENUM='MD',),);

EVOL=CALC_ELEM(reuse =EVOL,
               RESULTAT=EVOL,
               OPTION=('EPSI_ELNO','SIGM_ELNO','SIEQ_ELNO','EPEQ_ELNO',),);

EVOL=CALC_CHAMP(reuse =EVOL,
             RESULTAT=EVOL,
             DEFORMATION='EPSI_NOEU',CONTRAINTE='SIGM_NOEU',CRITERES=('EPEQ_NOEU','SIEQ_NOEU'));

#--------------------------------------------------------------
#       COMPARAISON DES RESULTATS A LA SOLUTION ANALYTIQUE
#        POUR UN  SOLIDE INCOMPRESSIBLE NU = 0.5 3D_INCO
#---------------------------------------------------------------

TEST_RESU(RESU=(_F(RESULTAT=EVOL,
                   INST=1.0,
                   NOM_CHAM='DEPL',
                   NOM_CMP='DX',
                   GROUP_NO='A',
                   VALE=0.0,
                   CRITERE='ABSOLU',
                   PRECISION=1e-05,
                   REFERENCE='ANALYTIQUE',),
                _F(RESULTAT=EVOL,
                   INST=1.0,
                   NOM_CHAM='DEPL',
                   NOM_CMP='DY',
                   GROUP_NO='A',
                   VALE=6e-05,
                   CRITERE='RELATIF',
                   PRECISION=0.001,
                   REFERENCE='ANALYTIQUE',),
                _F(RESULTAT=EVOL,
                   INST=1.0,
                   NOM_CHAM='DEPL',
                   NOM_CMP='DX',
                   GROUP_NO='F',
                   VALE=-2.1213203e-05,
                   CRITERE='RELATIF',
                   PRECISION=0.001,
                   REFERENCE='ANALYTIQUE',),
                _F(RESULTAT=EVOL,
                   INST=1.0,
                   NOM_CHAM='DEPL',
                   NOM_CMP='DY',
                   GROUP_NO='F',
                   VALE=2.1213203e-05,
                   CRITERE='RELATIF',
                   PRECISION=0.001,
                   REFERENCE='ANALYTIQUE',),),);

TEST_RESU(RESU=(_F(RESULTAT=EVOL,
                   INST=1.0,
                   NOM_CHAM='EPSI_NOEU',
                   NOM_CMP='EPXX',
                   GROUP_NO='A',
                   VALE=0.0006,
                   CRITERE='RELATIF',
                   PRECISION=0.005,
                   REFERENCE='ANALYTIQUE',),
                _F(RESULTAT=EVOL,
                   INST=1.0,
                   NOM_CHAM='EPSI_NOEU',
                   NOM_CMP='EPYY',
                   GROUP_NO='A',
                   VALE=-0.0006,
                   CRITERE='RELATIF',
                   PRECISION=0.005,
                   REFERENCE='ANALYTIQUE',),
                _F(RESULTAT=EVOL,
                   INST=1.0,
                   NOM_CHAM='EPSI_NOEU',
                   NOM_CMP='EPZZ',
                   GROUP_NO='A',
                   VALE=0.0,
                   CRITERE='ABSOLU',
                   PRECISION=1e-05,
                   REFERENCE='ANALYTIQUE',),
                _F(RESULTAT=EVOL,
                   INST=1.0,
                   NOM_CHAM='EPSI_NOEU',
                   NOM_CMP='EPXY',
                   GROUP_NO='A',
                   VALE=0.0,
                   CRITERE='ABSOLU',
                   PRECISION=1e-05,
                   REFERENCE='ANALYTIQUE',),
                _F(RESULTAT=EVOL,
                   INST=1.0,
                   NOM_CHAM='EPSI_NOEU',
                   NOM_CMP='EPXX',
                   GROUP_NO='F',
                   VALE=0.0,
                   CRITERE='ABSOLU',
                   PRECISION=1e-05,
                   REFERENCE='ANALYTIQUE',),
                _F(RESULTAT=EVOL,
                   INST=1.0,
                   NOM_CHAM='EPSI_NOEU',
                   NOM_CMP='EPYY',
                   GROUP_NO='F',
                   VALE=0.0,
                   CRITERE='ABSOLU',
                   PRECISION=1e-05,
                   REFERENCE='ANALYTIQUE',),
                _F(RESULTAT=EVOL,
                   INST=1.0,
                   NOM_CHAM='EPSI_NOEU',
                   NOM_CMP='EPXY',
                   GROUP_NO='F',
                   VALE=0.00015,
                   CRITERE='RELATIF',
                   PRECISION=0.005,
                   REFERENCE='ANALYTIQUE',),),);

TEST_RESU(RESU=(_F(RESULTAT=EVOL,
                   INST=1.0,
                   NOM_CHAM='SIGM_NOEU',
                   NOM_CMP='SIXX',
                   GROUP_NO='A',
                   VALE=100.0,
                   CRITERE='RELATIF',
                   PRECISION=0.005,
                   REFERENCE='ANALYTIQUE',),
                _F(RESULTAT=EVOL,
                   INST=1.0,
                   NOM_CHAM='SIGM_NOEU',
                   NOM_CMP='SIYY',
                   GROUP_NO='A',
                   VALE=-60.0,
                   CRITERE='RELATIF',
                   PRECISION=0.005,
                   REFERENCE='ANALYTIQUE',),
                _F(RESULTAT=EVOL,
                   INST=1.0,
                   NOM_CHAM='SIGM_NOEU',
                   NOM_CMP='SIZZ',
                   GROUP_NO='A',
                   VALE=20.0,
                   CRITERE='RELATIF',
                   PRECISION=0.005,
                   REFERENCE='ANALYTIQUE',),
                _F(RESULTAT=EVOL,
                   INST=1.0,
                   NOM_CHAM='SIGM_NOEU',
                   NOM_CMP='SIXY',
                   GROUP_NO='A',
                   VALE=0.0,
                   CRITERE='ABSOLU',
                   PRECISION=0.05,
                   REFERENCE='ANALYTIQUE',),
                _F(RESULTAT=EVOL,
                   INST=1.0,
                   NOM_CHAM='SIGM_NOEU',
                   NOM_CMP='SIXX',
                   GROUP_NO='F',
                   VALE=20.0,
                   CRITERE='RELATIF',
                   PRECISION=0.005,
                   REFERENCE='ANALYTIQUE',),
                _F(RESULTAT=EVOL,
                   INST=1.0,
                   NOM_CHAM='SIGM_NOEU',
                   NOM_CMP='SIYY',
                   GROUP_NO='F',
                   VALE=20.0,
                   CRITERE='RELATIF',
                   PRECISION=0.005,
                   REFERENCE='ANALYTIQUE',),
                _F(RESULTAT=EVOL,
                   INST=1.0,
                   NOM_CHAM='SIGM_NOEU',
                   NOM_CMP='SIZZ',
                   GROUP_NO='F',
                   VALE=20.0,
                   CRITERE='RELATIF',
                   PRECISION=0.005,
                   REFERENCE='ANALYTIQUE',),
                _F(RESULTAT=EVOL,
                   INST=1.0,
                   NOM_CHAM='SIGM_NOEU',
                   NOM_CMP='SIXY',
                   GROUP_NO='F',
                   VALE=20.0,
                   CRITERE='RELATIF',
                   PRECISION=0.005,
                   REFERENCE='ANALYTIQUE',),),);

TEST_RESU(RESU=(_F(RESULTAT=EVOL,
                   INST=1.0,
                   NOM_CHAM='EPEQ_NOEU',
                   NOM_CMP='INVA_2',
                   MAILLE='M1',
                   GROUP_NO='A',
                   VALE=0.00069282,
                   CRITERE='RELATIF',
                   PRECISION=0.005,
                   REFERENCE='ANALYTIQUE',),
                _F(RESULTAT=EVOL,
                   INST=1.0,
                   NOM_CHAM='EPEQ_NOEU',
                   NOM_CMP='PRIN_1',
                   MAILLE='M1',
                   GROUP_NO='A',
                   VALE=-0.0006,
                   CRITERE='RELATIF',
                   PRECISION=0.005,
                   REFERENCE='ANALYTIQUE',),
                _F(RESULTAT=EVOL,
                   INST=1.0,
                   NOM_CHAM='EPEQ_NOEU',
                   NOM_CMP='PRIN_2',
                   MAILLE='M1',
                   GROUP_NO='A',
                   VALE=0.0,
                   CRITERE='ABSOLU',
                   PRECISION=1e-05,
                   REFERENCE='ANALYTIQUE',),
                _F(RESULTAT=EVOL,
                   INST=1.0,
                   NOM_CHAM='EPEQ_NOEU',
                   NOM_CMP='PRIN_3',
                   MAILLE='M1',
                   GROUP_NO='A',
                   VALE=0.0006,
                   CRITERE='RELATIF',
                   PRECISION=0.005,
                   REFERENCE='ANALYTIQUE',),),);

TEST_RESU(RESU=(_F(RESULTAT=EVOL,
                   INST=1.0,
                   NOM_CHAM='SIEQ_NOEU',
                   NOM_CMP='VMIS',
                   MAILLE='M1',
                   GROUP_NO='A',
                   VALE=138.5641,
                   CRITERE='RELATIF',
                   PRECISION=0.005,
                   REFERENCE='ANALYTIQUE',),
                _F(RESULTAT=EVOL,
                   INST=1.0,
                   NOM_CHAM='SIEQ_NOEU',
                   NOM_CMP='TRESCA',
                   MAILLE='M1',
                   GROUP_NO='A',
                   VALE=160.0,
                   CRITERE='RELATIF',
                   PRECISION=0.005,
                   REFERENCE='ANALYTIQUE',),
                _F(RESULTAT=EVOL,
                   INST=1.0,
                   NOM_CHAM='SIEQ_NOEU',
                   NOM_CMP='PRIN_1',
                   MAILLE='M1',
                   GROUP_NO='A',
                   VALE=-60.0,
                   CRITERE='RELATIF',
                   PRECISION=0.005,
                   REFERENCE='ANALYTIQUE',),
                _F(RESULTAT=EVOL,
                   INST=1.0,
                   NOM_CHAM='SIEQ_NOEU',
                   NOM_CMP='PRIN_2',
                   MAILLE='M1',
                   GROUP_NO='A',
                   VALE=20.0,
                   CRITERE='RELATIF',
                   PRECISION=0.005,
                   REFERENCE='ANALYTIQUE',),
                _F(RESULTAT=EVOL,
                   INST=1.0,
                   NOM_CHAM='SIEQ_NOEU',
                   NOM_CMP='PRIN_3',
                   MAILLE='M1',
                   GROUP_NO='A',
                   VALE=100.0,
                   CRITERE='RELATIF',
                   PRECISION=0.005,
                   REFERENCE='ANALYTIQUE',),
                _F(RESULTAT=EVOL,
                   INST=1.0,
                   NOM_CHAM='SIEQ_NOEU',
                   NOM_CMP='VMIS_SG',
                   MAILLE='M1',
                   GROUP_NO='A',
                   VALE=138.5641,
                   CRITERE='RELATIF',
                   PRECISION=0.005,
                   REFERENCE='ANALYTIQUE',),),);

#-----------------------------------------------------------------
#  TEST IDENTIQUE EN IMPOSANT LA CONDITION TR(EPS)=0
#------------------------------------------------------------------

M=DEFI_GROUP(reuse =M,
             MAILLAGE=M,
             CREA_GROUP_NO=_F(GROUP_MA='VOLUME',
                              NOM='MSOMMET',
                              CRIT_NOEUD='SOMMET',),);

CH_AC1=AFFE_CHAR_CINE(MODELE=MO,
                      MECA_IMPO=(_F(GROUP_MA='FACEAB',
                                    DX=0.,),
                                 _F(GROUP_MA='FACSUP',
                                    DZ=0.,),
                                 _F(GROUP_MA='FACINF',
                                    DZ=0.,),),
                      INFO=2,);

CH_AC2=AFFE_CHAR_CINE(MODELE=MO,
                      MECA_IMPO=_F(GROUP_NO='MSOMMET',
                                   GONF=0.,),
                      INFO=2,);

CH2=AFFE_CHAR_MECA(MODELE=MO,
                   FACE_IMPO=_F(GROUP_MA='FACEEF',
                                DNOR=0.,),
                   PRES_REP=_F(GROUP_MA='FACEAE',
                               PRES=60.,),);

EVOL2=STAT_NON_LINE(MODELE=MO,
                    CHAM_MATER=CM,
                    EXCIT=(_F(CHARGE=CH_AC1,),
                           _F(CHARGE=CH_AC2,),
                           _F(CHARGE=CH2,
                              FONC_MULT=RAMPE,),),
                    COMP_INCR=_F(RELATION='ELAS',),
                    INCREMENT=_F(LIST_INST=INSTANTS,),
                    NEWTON=_F(REAC_ITER=1,),
                    SOLVEUR=_F(RENUM='MD',),);

IMPR_RESU(RESU=_F(RESULTAT=EVOL2,
                  NOM_CHAM='DEPL',
                  INST=1.0,),);

EVOL2=CALC_ELEM(reuse =EVOL2,
                RESULTAT=EVOL2,
                OPTION=('EPSI_ELNO','SIGM_ELNO','SIEQ_ELNO','EPEQ_ELNO',),);

EVOL2=CALC_CHAMP(reuse =EVOL2,
              RESULTAT=EVOL2,
              DEFORMATION='EPSI_NOEU',CONTRAINTE='SIGM_NOEU',CRITERES=('EPEQ_NOEU','SIEQ_NOEU'));

TEST_RESU(RESU=(_F(RESULTAT=EVOL2,
                   INST=1.0,
                   NOM_CHAM='DEPL',
                   NOM_CMP='DX',
                   GROUP_NO='A',
                   VALE=0.0,
                   CRITERE='ABSOLU',
                   PRECISION=1e-05,
                   REFERENCE='ANALYTIQUE',),
                _F(RESULTAT=EVOL2,
                   INST=1.0,
                   NOM_CHAM='DEPL',
                   NOM_CMP='DY',
                   GROUP_NO='A',
                   VALE=6e-05,
                   CRITERE='RELATIF',
                   PRECISION=0.001,
                   REFERENCE='ANALYTIQUE',),
                _F(RESULTAT=EVOL2,
                   INST=1.0,
                   NOM_CHAM='DEPL',
                   NOM_CMP='DX',
                   GROUP_NO='F',
                   VALE=-2.1213203e-05,
                   CRITERE='RELATIF',
                   PRECISION=0.001,
                   REFERENCE='ANALYTIQUE',),
                _F(RESULTAT=EVOL2,
                   INST=1.0,
                   NOM_CHAM='DEPL',
                   NOM_CMP='DY',
                   GROUP_NO='F',
                   VALE=2.1213203e-05,
                   CRITERE='RELATIF',
                   PRECISION=0.001,
                   REFERENCE='ANALYTIQUE',),),);

TEST_RESU(RESU=(_F(RESULTAT=EVOL2,
                   INST=1.0,
                   NOM_CHAM='EPSI_NOEU',
                   NOM_CMP='EPXX',
                   GROUP_NO='A',
                   VALE=0.0006,
                   CRITERE='RELATIF',
                   PRECISION=0.005,
                   REFERENCE='ANALYTIQUE',),
                _F(RESULTAT=EVOL2,
                   INST=1.0,
                   NOM_CHAM='EPSI_NOEU',
                   NOM_CMP='EPYY',
                   GROUP_NO='A',
                   VALE=-0.0006,
                   CRITERE='RELATIF',
                   PRECISION=0.005,
                   REFERENCE='ANALYTIQUE',),
                _F(RESULTAT=EVOL2,
                   INST=1.0,
                   NOM_CHAM='EPSI_NOEU',
                   NOM_CMP='EPZZ',
                   GROUP_NO='A',
                   VALE=0.0,
                   CRITERE='ABSOLU',
                   PRECISION=1e-05,
                   REFERENCE='ANALYTIQUE',),
                _F(RESULTAT=EVOL2,
                   INST=1.0,
                   NOM_CHAM='EPSI_NOEU',
                   NOM_CMP='EPXY',
                   GROUP_NO='A',
                   VALE=0.0,
                   CRITERE='ABSOLU',
                   PRECISION=1e-05,
                   REFERENCE='ANALYTIQUE',),
                _F(RESULTAT=EVOL2,
                   INST=1.0,
                   NOM_CHAM='EPSI_NOEU',
                   NOM_CMP='EPXX',
                   GROUP_NO='F',
                   VALE=0.0,
                   CRITERE='ABSOLU',
                   PRECISION=1e-05,
                   REFERENCE='ANALYTIQUE',),
                _F(RESULTAT=EVOL2,
                   INST=1.0,
                   NOM_CHAM='EPSI_NOEU',
                   NOM_CMP='EPYY',
                   GROUP_NO='F',
                   VALE=0.0,
                   CRITERE='ABSOLU',
                   PRECISION=1e-05,
                   REFERENCE='ANALYTIQUE',),
                _F(RESULTAT=EVOL2,
                   INST=1.0,
                   NOM_CHAM='EPSI_NOEU',
                   NOM_CMP='EPXY',
                   GROUP_NO='F',
                   VALE=0.00015,
                   CRITERE='RELATIF',
                   PRECISION=0.005,
                   REFERENCE='ANALYTIQUE',),),);

TEST_RESU(RESU=(_F(RESULTAT=EVOL2,
                   INST=1.0,
                   NOM_CHAM='SIGM_NOEU',
                   NOM_CMP='SIXX',
                   GROUP_NO='A',
                   VALE=100.0,
                   CRITERE='RELATIF',
                   PRECISION=0.005,
                   REFERENCE='ANALYTIQUE',),
                _F(RESULTAT=EVOL2,
                   INST=1.0,
                   NOM_CHAM='SIGM_NOEU',
                   NOM_CMP='SIYY',
                   GROUP_NO='A',
                   VALE=-60.0,
                   CRITERE='RELATIF',
                   PRECISION=0.005,
                   REFERENCE='ANALYTIQUE',),
                _F(RESULTAT=EVOL2,
                   INST=1.0,
                   NOM_CHAM='SIGM_NOEU',
                   NOM_CMP='SIZZ',
                   GROUP_NO='A',
                   VALE=20.0,
                   CRITERE='RELATIF',
                   PRECISION=0.005,
                   REFERENCE='ANALYTIQUE',),
                _F(RESULTAT=EVOL2,
                   INST=1.0,
                   NOM_CHAM='SIGM_NOEU',
                   NOM_CMP='SIXY',
                   GROUP_NO='A',
                   VALE=0.0,
                   CRITERE='ABSOLU',
                   PRECISION=0.05,
                   REFERENCE='ANALYTIQUE',),
                _F(RESULTAT=EVOL2,
                   INST=1.0,
                   NOM_CHAM='SIGM_NOEU',
                   NOM_CMP='SIXX',
                   GROUP_NO='F',
                   VALE=20.0,
                   CRITERE='RELATIF',
                   PRECISION=0.005,
                   REFERENCE='ANALYTIQUE',),
                _F(RESULTAT=EVOL2,
                   INST=1.0,
                   NOM_CHAM='SIGM_NOEU',
                   NOM_CMP='SIYY',
                   GROUP_NO='F',
                   VALE=20.0,
                   CRITERE='RELATIF',
                   PRECISION=0.005,
                   REFERENCE='ANALYTIQUE',),
                _F(RESULTAT=EVOL2,
                   INST=1.0,
                   NOM_CHAM='SIGM_NOEU',
                   NOM_CMP='SIZZ',
                   GROUP_NO='F',
                   VALE=20.0,
                   CRITERE='RELATIF',
                   PRECISION=0.005,
                   REFERENCE='ANALYTIQUE',),
                _F(RESULTAT=EVOL2,
                   INST=1.0,
                   NOM_CHAM='SIGM_NOEU',
                   NOM_CMP='SIXY',
                   GROUP_NO='F',
                   VALE=20.0,
                   CRITERE='RELATIF',
                   PRECISION=0.005,
                   REFERENCE='ANALYTIQUE',),),);

TEST_RESU(RESU=(_F(RESULTAT=EVOL2,
                   INST=1.0,
                   NOM_CHAM='EPEQ_NOEU',
                   NOM_CMP='INVA_2',
                   MAILLE='M1',
                   GROUP_NO='A',
                   VALE=0.00069282,
                   CRITERE='RELATIF',
                   PRECISION=0.005,
                   REFERENCE='ANALYTIQUE',),
                _F(RESULTAT=EVOL2,
                   INST=1.0,
                   NOM_CHAM='EPEQ_NOEU',
                   NOM_CMP='PRIN_1',
                   MAILLE='M1',
                   GROUP_NO='A',
                   VALE=-0.0006,
                   CRITERE='RELATIF',
                   PRECISION=0.005,
                   REFERENCE='ANALYTIQUE',),
                _F(RESULTAT=EVOL2,
                   INST=1.0,
                   NOM_CHAM='EPEQ_NOEU',
                   NOM_CMP='PRIN_2',
                   MAILLE='M1',
                   GROUP_NO='A',
                   VALE=0.0,
                   CRITERE='ABSOLU',
                   PRECISION=1e-05,
                   REFERENCE='ANALYTIQUE',),
                _F(RESULTAT=EVOL2,
                   INST=1.0,
                   NOM_CHAM='EPEQ_NOEU',
                   NOM_CMP='PRIN_3',
                   MAILLE='M1',
                   GROUP_NO='A',
                   VALE=0.0006,
                   CRITERE='RELATIF',
                   PRECISION=0.005,
                   REFERENCE='ANALYTIQUE',),),);

TEST_RESU(RESU=(_F(RESULTAT=EVOL2,
                   INST=1.0,
                   NOM_CHAM='SIEQ_NOEU',
                   NOM_CMP='VMIS',
                   MAILLE='M1',
                   GROUP_NO='A',
                   VALE=138.5641,
                   CRITERE='RELATIF',
                   PRECISION=0.005,
                   REFERENCE='ANALYTIQUE',),
                _F(RESULTAT=EVOL2,
                   INST=1.0,
                   NOM_CHAM='SIEQ_NOEU',
                   NOM_CMP='TRESCA',
                   MAILLE='M1',
                   GROUP_NO='A',
                   VALE=160.0,
                   CRITERE='RELATIF',
                   PRECISION=0.005,
                   REFERENCE='ANALYTIQUE',),
                _F(RESULTAT=EVOL2,
                   INST=1.0,
                   NOM_CHAM='SIEQ_NOEU',
                   NOM_CMP='PRIN_1',
                   MAILLE='M1',
                   GROUP_NO='A',
                   VALE=-60.0,
                   CRITERE='RELATIF',
                   PRECISION=0.005,
                   REFERENCE='ANALYTIQUE',),
                _F(RESULTAT=EVOL2,
                   INST=1.0,
                   NOM_CHAM='SIEQ_NOEU',
                   NOM_CMP='PRIN_2',
                   MAILLE='M1',
                   GROUP_NO='A',
                   VALE=20.0,
                   CRITERE='RELATIF',
                   PRECISION=0.005,
                   REFERENCE='ANALYTIQUE',),
                _F(RESULTAT=EVOL2,
                   INST=1.0,
                   NOM_CHAM='SIEQ_NOEU',
                   NOM_CMP='PRIN_3',
                   MAILLE='M1',
                   GROUP_NO='A',
                   VALE=100.0,
                   CRITERE='RELATIF',
                   PRECISION=0.005,
                   REFERENCE='ANALYTIQUE',),
                _F(RESULTAT=EVOL2,
                   INST=1.0,
                   NOM_CHAM='SIEQ_NOEU',
                   NOM_CMP='VMIS_SG',
                   MAILLE='M1',
                   GROUP_NO='A',
                   VALE=138.5641,
                   CRITERE='RELATIF',
                   PRECISION=0.005,
                   REFERENCE='ANALYTIQUE',),),);

#--------------------------------------------------------------------------------
#  TEST SUR UN NOEUD SITUE EN MILIEU DE MAILLE POUR TESTER LE PASSAGE AUX NOEUDS MILIEUX
#  NOEUMI = A + (0 0 1/2 pas )

TEST_RESU(RESU=(_F(RESULTAT=EVOL,
                   INST=1.0,
                   NOM_CHAM='EPSI_NOEU',
                   NOM_CMP='EPXX',
                   GROUP_NO='NOEUMI',
                   VALE=0.0006,
                   CRITERE='RELATIF',
                   PRECISION=0.005,
                   REFERENCE='ANALYTIQUE',),
                _F(RESULTAT=EVOL,
                   INST=1.0,
                   NOM_CHAM='EPSI_NOEU',
                   NOM_CMP='EPYY',
                   GROUP_NO='NOEUMI',
                   VALE=-0.0006,
                   CRITERE='RELATIF',
                   PRECISION=0.005,
                   REFERENCE='ANALYTIQUE',),
                _F(RESULTAT=EVOL,
                   INST=1.0,
                   NOM_CHAM='SIGM_NOEU',
                   NOM_CMP='SIXX',
                   GROUP_NO='NOEUMI',
                   VALE=100.0,
                   CRITERE='RELATIF',
                   PRECISION=0.005,
                   REFERENCE='ANALYTIQUE',),
                _F(RESULTAT=EVOL,
                   INST=1.0,
                   NOM_CHAM='SIGM_NOEU',
                   NOM_CMP='SIYY',
                   GROUP_NO='NOEUMI',
                   VALE=-60.0,
                   CRITERE='RELATIF',
                   PRECISION=0.005,
                   REFERENCE='ANALYTIQUE',),
                _F(RESULTAT=EVOL,
                   INST=1.0,
                   NOM_CHAM='SIGM_NOEU',
                   NOM_CMP='SIZZ',
                   GROUP_NO='NOEUMI',
                   VALE=20.0,
                   CRITERE='RELATIF',
                   PRECISION=0.005,
                   REFERENCE='ANALYTIQUE',),),);

#--------------------------------------------------------------------------------

MOUP=AFFE_MODELE(MAILLAGE=M,
               VERIF='MAILLE',
               AFFE=_F(GROUP_MA=('VOLUME','FACEEF','FACEAE','FACEAB','FACSUP','FACINF',),
                       PHENOMENE='MECANIQUE',
                       MODELISATION='3D_INCO_UP',),);

CHUP=AFFE_CHAR_MECA(MODELE=MOUP,
                  DDL_IMPO=(_F(GROUP_MA='FACEAB',
                               DX=0.,),
                            _F(GROUP_MA='FACSUP',
                               DZ=0.,),
                            _F(GROUP_MA='FACINF',
                               DZ=0.,),),
                  FACE_IMPO=_F(GROUP_MA='FACEEF',
                               DNOR=0.,),
                  PRES_REP=_F(GROUP_MA='FACEAE',
                              PRES=60.,),);

EVOLUP=STAT_NON_LINE(MODELE=MOUP,
                   CHAM_MATER=CM,
                   EXCIT=_F(CHARGE=CHUP,
                            FONC_MULT=RAMPE,),
                   COMP_INCR=_F(RELATION='ELAS',),
                   INCREMENT=_F(LIST_INST=INSTANTS,),
                   NEWTON=_F(REAC_ITER=1,),
                   SOLVEUR=_F(RENUM='MD',),);

EVOLUP=CALC_ELEM(reuse =EVOLUP,
               RESULTAT=EVOLUP,
               OPTION=('EPSI_ELNO','SIGM_ELNO','SIEQ_ELNO','EPEQ_ELNO',),);

EVOLUP=CALC_CHAMP(reuse =EVOLUP,
             RESULTAT=EVOLUP,
             DEFORMATION='EPSI_NOEU',CONTRAINTE='SIGM_NOEU',CRITERES=('EPEQ_NOEU','SIEQ_NOEU'));

#--------------------------------------------------------------
#       COMPARAISON DES RESULTATS A LA SOLUTION ANALYTIQUE
#       POUR UN  SOLIDE INCOMPRESSIBLE NU = 0.5
#       3D_INCO_UP ET HEXA20
#---------------------------------------------------------------

TEST_RESU(RESU=(_F(RESULTAT=EVOLUP,
                   INST=1.0,
                   NOM_CHAM='DEPL',
                   NOM_CMP='DX',
                   GROUP_NO='A',
                   VALE=0.0,
                   CRITERE='ABSOLU',
                   PRECISION=1e-05,
                   REFERENCE='ANALYTIQUE',),
                _F(RESULTAT=EVOLUP,
                   INST=1.0,
                   NOM_CHAM='DEPL',
                   NOM_CMP='DY',
                   GROUP_NO='A',
                   VALE=6e-05,
                   CRITERE='RELATIF',
                   PRECISION=0.001,
                   REFERENCE='ANALYTIQUE',),
                _F(RESULTAT=EVOLUP,
                   INST=1.0,
                   NOM_CHAM='DEPL',
                   NOM_CMP='DX',
                   GROUP_NO='F',
                   VALE=-2.1213203e-05,
                   CRITERE='RELATIF',
                   PRECISION=0.001,
                   REFERENCE='ANALYTIQUE',),
                _F(RESULTAT=EVOLUP,
                   INST=1.0,
                   NOM_CHAM='DEPL',
                   NOM_CMP='DY',
                   GROUP_NO='F',
                   VALE=2.1213203e-05,
                   CRITERE='RELATIF',
                   PRECISION=0.001,
                   REFERENCE='ANALYTIQUE',),),);

TEST_RESU(RESU=(_F(RESULTAT=EVOLUP,
                   INST=1.0,
                   NOM_CHAM='EPSI_NOEU',
                   NOM_CMP='EPXX',
                   GROUP_NO='A',
                   VALE=0.0006,
                   CRITERE='RELATIF',
                   PRECISION=0.005,
                   REFERENCE='ANALYTIQUE',),
                _F(RESULTAT=EVOLUP,
                   INST=1.0,
                   NOM_CHAM='EPSI_NOEU',
                   NOM_CMP='EPYY',
                   GROUP_NO='A',
                   VALE=-0.0006,
                   CRITERE='RELATIF',
                   PRECISION=0.005,
                   REFERENCE='ANALYTIQUE',),
                _F(RESULTAT=EVOLUP,
                   INST=1.0,
                   NOM_CHAM='EPSI_NOEU',
                   NOM_CMP='EPZZ',
                   GROUP_NO='A',
                   VALE=0.0,
                   CRITERE='ABSOLU',
                   PRECISION=1e-05,
                   REFERENCE='ANALYTIQUE',),
                _F(RESULTAT=EVOLUP,
                   INST=1.0,
                   NOM_CHAM='EPSI_NOEU',
                   NOM_CMP='EPXY',
                   GROUP_NO='A',
                   VALE=0.0,
                   CRITERE='ABSOLU',
                   PRECISION=1e-05,
                   REFERENCE='ANALYTIQUE',),
                _F(RESULTAT=EVOLUP,
                   INST=1.0,
                   NOM_CHAM='EPSI_NOEU',
                   NOM_CMP='EPXX',
                   GROUP_NO='F',
                   VALE=0.0,
                   CRITERE='ABSOLU',
                   PRECISION=1e-05,
                   REFERENCE='ANALYTIQUE',),
                _F(RESULTAT=EVOLUP,
                   INST=1.0,
                   NOM_CHAM='EPSI_NOEU',
                   NOM_CMP='EPYY',
                   GROUP_NO='F',
                   VALE=0.0,
                   CRITERE='ABSOLU',
                   PRECISION=1e-05,
                   REFERENCE='ANALYTIQUE',),
                _F(RESULTAT=EVOLUP,
                   INST=1.0,
                   NOM_CHAM='EPSI_NOEU',
                   NOM_CMP='EPXY',
                   GROUP_NO='F',
                   VALE=0.00015,
                   CRITERE='RELATIF',
                   PRECISION=0.005,
                   REFERENCE='ANALYTIQUE',),),);

TEST_RESU(RESU=(_F(RESULTAT=EVOLUP,
                   INST=1.0,
                   NOM_CHAM='SIGM_NOEU',
                   NOM_CMP='SIXX',
                   GROUP_NO='A',
                   VALE=100.0,
                   CRITERE='RELATIF',
                   PRECISION=0.005,
                   REFERENCE='ANALYTIQUE',),
                _F(RESULTAT=EVOLUP,
                   INST=1.0,
                   NOM_CHAM='SIGM_NOEU',
                   NOM_CMP='SIYY',
                   GROUP_NO='A',
                   VALE=-60.0,
                   CRITERE='RELATIF',
                   PRECISION=0.005,
                   REFERENCE='ANALYTIQUE',),
                _F(RESULTAT=EVOLUP,
                   INST=1.0,
                   NOM_CHAM='SIGM_NOEU',
                   NOM_CMP='SIZZ',
                   GROUP_NO='A',
                   VALE=20.0,
                   CRITERE='RELATIF',
                   PRECISION=0.005,
                   REFERENCE='ANALYTIQUE',),
                _F(RESULTAT=EVOLUP,
                   INST=1.0,
                   NOM_CHAM='SIGM_NOEU',
                   NOM_CMP='SIXY',
                   GROUP_NO='A',
                   VALE=0.0,
                   CRITERE='ABSOLU',
                   PRECISION=0.05,
                   REFERENCE='ANALYTIQUE',),
                _F(RESULTAT=EVOLUP,
                   INST=1.0,
                   NOM_CHAM='SIGM_NOEU',
                   NOM_CMP='SIXX',
                   GROUP_NO='F',
                   VALE=20.0,
                   CRITERE='RELATIF',
                   PRECISION=0.005,
                   REFERENCE='ANALYTIQUE',),
                _F(RESULTAT=EVOLUP,
                   INST=1.0,
                   NOM_CHAM='SIGM_NOEU',
                   NOM_CMP='SIYY',
                   GROUP_NO='F',
                   VALE=20.0,
                   CRITERE='RELATIF',
                   PRECISION=0.005,
                   REFERENCE='ANALYTIQUE',),
                _F(RESULTAT=EVOLUP,
                   INST=1.0,
                   NOM_CHAM='SIGM_NOEU',
                   NOM_CMP='SIZZ',
                   GROUP_NO='F',
                   VALE=20.0,
                   CRITERE='RELATIF',
                   PRECISION=0.005,
                   REFERENCE='ANALYTIQUE',),
                _F(RESULTAT=EVOLUP,
                   INST=1.0,
                   NOM_CHAM='SIGM_NOEU',
                   NOM_CMP='SIXY',
                   GROUP_NO='F',
                   VALE=20.0,
                   CRITERE='RELATIF',
                   PRECISION=0.005,
                   REFERENCE='ANALYTIQUE',),),);

TEST_RESU(RESU=(_F(RESULTAT=EVOLUP,
                   INST=1.0,
                   NOM_CHAM='EPEQ_NOEU',
                   NOM_CMP='INVA_2',
                   MAILLE='M1',
                   GROUP_NO='A',
                   VALE=0.00069282,
                   CRITERE='RELATIF',
                   PRECISION=0.005,
                   REFERENCE='ANALYTIQUE',),
                _F(RESULTAT=EVOLUP,
                   INST=1.0,
                   NOM_CHAM='EPEQ_NOEU',
                   NOM_CMP='PRIN_1',
                   MAILLE='M1',
                   GROUP_NO='A',
                   VALE=-0.0006,
                   CRITERE='RELATIF',
                   PRECISION=0.005,
                   REFERENCE='ANALYTIQUE',),
                _F(RESULTAT=EVOLUP,
                   INST=1.0,
                   NOM_CHAM='EPEQ_NOEU',
                   NOM_CMP='PRIN_2',
                   MAILLE='M1',
                   GROUP_NO='A',
                   VALE=0.0,
                   CRITERE='ABSOLU',
                   PRECISION=1e-05,
                   REFERENCE='ANALYTIQUE',),
                _F(RESULTAT=EVOLUP,
                   INST=1.0,
                   NOM_CHAM='EPEQ_NOEU',
                   NOM_CMP='PRIN_3',
                   MAILLE='M1',
                   GROUP_NO='A',
                   VALE=0.0006,
                   CRITERE='RELATIF',
                   PRECISION=0.005,
                   REFERENCE='ANALYTIQUE',),),);

TEST_RESU(RESU=(_F(RESULTAT=EVOLUP,
                   INST=1.0,
                   NOM_CHAM='SIEQ_NOEU',
                   NOM_CMP='VMIS',
                   MAILLE='M1',
                   GROUP_NO='A',
                   VALE=138.5641,
                   CRITERE='RELATIF',
                   PRECISION=0.005,
                   REFERENCE='ANALYTIQUE',),
                _F(RESULTAT=EVOLUP,
                   INST=1.0,
                   NOM_CHAM='SIEQ_NOEU',
                   NOM_CMP='TRESCA',
                   MAILLE='M1',
                   GROUP_NO='A',
                   VALE=160.0,
                   CRITERE='RELATIF',
                   PRECISION=0.005,
                   REFERENCE='ANALYTIQUE',),
                _F(RESULTAT=EVOLUP,
                   INST=1.0,
                   NOM_CHAM='SIEQ_NOEU',
                   NOM_CMP='PRIN_1',
                   MAILLE='M1',
                   GROUP_NO='A',
                   VALE=-60.0,
                   CRITERE='RELATIF',
                   PRECISION=0.005,
                   REFERENCE='ANALYTIQUE',),
                _F(RESULTAT=EVOLUP,
                   INST=1.0,
                   NOM_CHAM='SIEQ_NOEU',
                   NOM_CMP='PRIN_2',
                   MAILLE='M1',
                   GROUP_NO='A',
                   VALE=20.0,
                   CRITERE='RELATIF',
                   PRECISION=0.005,
                   REFERENCE='ANALYTIQUE',),
                _F(RESULTAT=EVOLUP,
                   INST=1.0,
                   NOM_CHAM='SIEQ_NOEU',
                   NOM_CMP='PRIN_3',
                   MAILLE='M1',
                   GROUP_NO='A',
                   VALE=100.0,
                   CRITERE='RELATIF',
                   PRECISION=0.005,
                   REFERENCE='ANALYTIQUE',),
                _F(RESULTAT=EVOLUP,
                   INST=1.0,
                   NOM_CHAM='SIEQ_NOEU',
                   NOM_CMP='VMIS_SG',
                   MAILLE='M1',
                   GROUP_NO='A',
                   VALE=138.5641,
                   CRITERE='RELATIF',
                   PRECISION=0.005,
                   REFERENCE='ANALYTIQUE',),),);
#--------------------------------------------------------------------------------

M0=CREA_MAILLAGE(MAILLAGE=M,
                 QUAD_LINE=_F(TOUT='OUI',),);

MOOS=AFFE_MODELE(MAILLAGE=M0,
                 VERIF='MAILLE',
                 AFFE=_F(GROUP_MA=('VOLUME','FACEEF','FACEAE','FACEAB','FACSUP','FACINF',),
                         PHENOMENE='MECANIQUE',
                         MODELISATION='3D_INCO_OSGS',),);

CHOS=AFFE_CHAR_MECA(MODELE=MOOS,
                    DDL_IMPO=(_F(GROUP_MA='FACEAB',
                                  DX=0.,),
                              _F(GROUP_MA='FACSUP',
                                  DZ=0.,),
                              _F(GROUP_MA='FACINF',
                                  DZ=0.,),),
                    FACE_IMPO=_F(GROUP_MA='FACEEF',
                                  DNOR=0.,),
                    PRES_REP=_F(GROUP_MA='FACEAE',
                                PRES=60.,),);

CM0=AFFE_MATERIAU(MAILLAGE=M0,
                  AFFE=_F(TOUT='OUI',
                          MATER=MA,),);

EVOLOS=STAT_NON_LINE(MODELE=MOOS,
                     CHAM_MATER=CM0,
                     EXCIT=_F(CHARGE=CHOS,
                              FONC_MULT=RAMPE,),
                     COMP_INCR=_F(RELATION='ELAS',),
                     INCREMENT=_F(LIST_INST=INSTANTS,),
                     NEWTON=_F(REAC_ITER=1,),
                     SOLVEUR=_F(RENUM='MD',),);

EVOLOS=CALC_ELEM(reuse =EVOLOS,
                 RESULTAT=EVOLOS,
                 OPTION=('EPSI_ELNO','SIGM_ELNO','SIEQ_ELNO','EPEQ_ELNO',),);

EVOLOS=CALC_CHAMP(reuse =EVOLOS,
               RESULTAT=EVOLOS,
               DEFORMATION='EPSI_NOEU',CONTRAINTE='SIGM_NOEU',CRITERES=('EPEQ_NOEU','SIEQ_NOEU'));

#--------------------------------------------------------------
#       COMPARAISON DES RESULTATS A LA SOLUTION ANALYTIQUE
#       POUR UN  SOLIDE INCOMPRESSIBLE NU = 0.5
#       3D_INCO_OSGS ET HEXA20
#---------------------------------------------------------------

TEST_RESU(RESU=(_F(RESULTAT=EVOLOS,
                   INST=1.0,
                   NOM_CHAM='DEPL',
                   NOM_CMP='DX',
                   GROUP_NO='A',
                   VALE=0.0,
                   CRITERE='ABSOLU',
                   PRECISION=1e-05,
                   REFERENCE='ANALYTIQUE',),
                _F(RESULTAT=EVOLOS,
                   INST=1.0,
                   NOM_CHAM='DEPL',
                   NOM_CMP='DY',
                   GROUP_NO='A',
                   VALE=6e-05,
                   CRITERE='RELATIF',
                   PRECISION=0.0015,
                   REFERENCE='ANALYTIQUE',),
                _F(RESULTAT=EVOLOS,
                   INST=1.0,
                   NOM_CHAM='DEPL',
                   NOM_CMP='DX',
                   GROUP_NO='F',
                   VALE=-2.1213203e-05,
                   CRITERE='RELATIF',
                   PRECISION=0.001,
                   REFERENCE='ANALYTIQUE',),
                _F(RESULTAT=EVOLOS,
                   INST=1.0,
                   NOM_CHAM='DEPL',
                   NOM_CMP='DY',
                   GROUP_NO='F',
                   VALE=2.1213203e-05,
                   CRITERE='RELATIF',
                   PRECISION=0.001,
                   REFERENCE='ANALYTIQUE',),),);

TEST_RESU(RESU=(_F(RESULTAT=EVOLOS,
                   INST=1.0,
                   NOM_CHAM='EPSI_NOEU',
                   NOM_CMP='EPXX',
                   GROUP_NO='A',
                   VALE=0.0006,
                   CRITERE='RELATIF',
                   PRECISION=0.005,
                   REFERENCE='ANALYTIQUE',),
                _F(RESULTAT=EVOLOS,
                   INST=1.0,
                   NOM_CHAM='EPSI_NOEU',
                   NOM_CMP='EPYY',
                   GROUP_NO='A',
                   VALE=-0.0006,
                   CRITERE='RELATIF',
                   PRECISION=0.07,
                   REFERENCE='ANALYTIQUE',),
                _F(RESULTAT=EVOLOS,
                   INST=1.0,
                   NOM_CHAM='EPSI_NOEU',
                   NOM_CMP='EPZZ',
                   GROUP_NO='A',
                   VALE=0.0,
                   CRITERE='ABSOLU',
                   PRECISION=1e-05,
                   REFERENCE='ANALYTIQUE',),
                _F(RESULTAT=EVOLOS,
                   INST=1.0,
                   NOM_CHAM='EPSI_NOEU',
                   NOM_CMP='EPXY',
                   GROUP_NO='A',
                   VALE=0.0,
                   CRITERE='ABSOLU',
                   PRECISION=3e-05,
                   REFERENCE='ANALYTIQUE',),
                _F(RESULTAT=EVOLOS,
                   INST=1.0,
                   NOM_CHAM='EPSI_NOEU',
                   NOM_CMP='EPXX',
                   GROUP_NO='F',
                   VALE=0.0,
                   CRITERE='ABSOLU',
                   PRECISION=1e-05,
                   REFERENCE='ANALYTIQUE',),
                _F(RESULTAT=EVOLOS,
                   INST=1.0,
                   NOM_CHAM='EPSI_NOEU',
                   NOM_CMP='EPYY',
                   GROUP_NO='F',
                   VALE=0.0,
                   CRITERE='ABSOLU',
                   PRECISION=1e-05,
                   REFERENCE='ANALYTIQUE',),
                _F(RESULTAT=EVOLOS,
                   INST=1.0,
                   NOM_CHAM='EPSI_NOEU',
                   NOM_CMP='EPXY',
                   GROUP_NO='F',
                   VALE=0.00015,
                   CRITERE='RELATIF',
                   PRECISION=0.02,
                   REFERENCE='ANALYTIQUE',),),);

TEST_RESU(RESU=(_F(RESULTAT=EVOLOS,
                   INST=1.0,
                   NOM_CHAM='SIGM_NOEU',
                   NOM_CMP='SIXX',
                   GROUP_NO='A',
                   VALE=100.0,
                   CRITERE='RELATIF',
                   PRECISION=0.015,
                   REFERENCE='ANALYTIQUE',),
                _F(RESULTAT=EVOLOS,
                   INST=1.0,
                   NOM_CHAM='SIGM_NOEU',
                   NOM_CMP='SIYY',
                   GROUP_NO='A',
                   VALE=-60.0,
                   CRITERE='RELATIF',
                   PRECISION=0.09,
                   REFERENCE='ANALYTIQUE',),
                _F(RESULTAT=EVOLOS,
                   INST=1.0,
                   NOM_CHAM='SIGM_NOEU',
                   NOM_CMP='SIZZ',
                   GROUP_NO='A',
                   VALE=20.0,
                   CRITERE='RELATIF',
                   PRECISION=0.05,
                   REFERENCE='ANALYTIQUE',),
                _F(RESULTAT=EVOLOS,
                   NUME_ORDRE=1,
                   NOM_CHAM='SIGM_NOEU',
                   NOM_CMP='SIXY',
                   GROUP_NO='A',
                   VALE=0.0,
                   CRITERE='ABSOLU',
                   PRECISION=5.,
                   REFERENCE='ANALYTIQUE',),
                _F(RESULTAT=EVOLOS,
                   INST=1.0,
                   NOM_CHAM='SIGM_NOEU',
                   NOM_CMP='SIXX',
                   GROUP_NO='F',
                   VALE=20.0,
                   CRITERE='RELATIF',
                   PRECISION=0.03,
                   REFERENCE='ANALYTIQUE',),
                _F(RESULTAT=EVOLOS,
                   INST=1.0,
                   NOM_CHAM='SIGM_NOEU',
                   NOM_CMP='SIYY',
                   GROUP_NO='F',
                   VALE=20.0,
                   CRITERE='RELATIF',
                   PRECISION=0.06,
                   REFERENCE='ANALYTIQUE',),
                _F(RESULTAT=EVOLOS,
                   INST=1.0,
                   NOM_CHAM='SIGM_NOEU',
                   NOM_CMP='SIZZ',
                   GROUP_NO='F',
                   VALE=20.0,
                   CRITERE='RELATIF',
                   PRECISION=0.01,
                   REFERENCE='ANALYTIQUE',),
                _F(RESULTAT=EVOLOS,
                   INST=1.0,
                   NOM_CHAM='SIGM_NOEU',
                   NOM_CMP='SIXY',
                   GROUP_NO='F',
                   VALE=20.0,
                   CRITERE='RELATIF',
                   PRECISION=0.02,
                   REFERENCE='ANALYTIQUE',),),);

TEST_RESU(RESU=(_F(RESULTAT=EVOLOS,
                   INST=1.0,
                   NOM_CHAM='EPEQ_NOEU',
                   NOM_CMP='INVA_2',
                   MAILLE='M1',
                   GROUP_NO='A',
                   VALE=0.00069282,
                   CRITERE='RELATIF',
                   PRECISION=0.05,
                   REFERENCE='ANALYTIQUE',),
                _F(RESULTAT=EVOLOS,
                   INST=1.0,
                   NOM_CHAM='EPEQ_NOEU',
                   NOM_CMP='PRIN_1',
                   MAILLE='M1',
                   GROUP_NO='A',
                   VALE=-0.0006,
                   CRITERE='RELATIF',
                   PRECISION=0.07,
                   REFERENCE='ANALYTIQUE',),
                _F(RESULTAT=EVOLOS,
                   INST=1.0,
                   NOM_CHAM='EPEQ_NOEU',
                   NOM_CMP='PRIN_2',
                   MAILLE='M1',
                   GROUP_NO='A',
                   VALE=0.0,
                   CRITERE='ABSOLU',
                   PRECISION=1e-05,
                   REFERENCE='ANALYTIQUE',),
                _F(RESULTAT=EVOLOS,
                   INST=1.0,
                   NOM_CHAM='EPEQ_NOEU',
                   NOM_CMP='PRIN_3',
                   MAILLE='M1',
                   GROUP_NO='A',
                   VALE=0.0006,
                   CRITERE='RELATIF',
                   PRECISION=0.005,
                   REFERENCE='ANALYTIQUE',),),);

TEST_RESU(RESU=(_F(RESULTAT=EVOLOS,
                   INST=1.0,
                   NOM_CHAM='SIEQ_NOEU',
                   NOM_CMP='VMIS',
                   MAILLE='M1',
                   GROUP_NO='A',
                   VALE=138.5641,
                   CRITERE='RELATIF',
                   PRECISION=0.05,
                   REFERENCE='ANALYTIQUE',),
                _F(RESULTAT=EVOLOS,
                   INST=1.0,
                   NOM_CHAM='SIEQ_NOEU',
                   NOM_CMP='TRESCA',
                   MAILLE='M1',
                   GROUP_NO='A',
                   VALE=160.0,
                   CRITERE='RELATIF',
                   PRECISION=0.05,
                   REFERENCE='ANALYTIQUE',),
                _F(RESULTAT=EVOLOS,
                   INST=1.0,
                   NOM_CHAM='SIEQ_NOEU',
                   NOM_CMP='PRIN_1',
                   MAILLE='M1',
                   GROUP_NO='A',
                   VALE=-60.0,
                   CRITERE='RELATIF',
                   PRECISION=0.1,
                   REFERENCE='ANALYTIQUE',),
                _F(RESULTAT=EVOLOS,
                   INST=1.0,
                   NOM_CHAM='SIEQ_NOEU',
                   NOM_CMP='PRIN_2',
                   MAILLE='M1',
                   GROUP_NO='A',
                   VALE=20.0,
                   CRITERE='RELATIF',
                   PRECISION=0.05,
                   REFERENCE='ANALYTIQUE',),
                _F(RESULTAT=EVOLOS,
                   INST=1.0,
                   NOM_CHAM='SIEQ_NOEU',
                   NOM_CMP='PRIN_3',
                   MAILLE='M1',
                   GROUP_NO='A',
                   VALE=100.0,
                   CRITERE='RELATIF',
                   PRECISION=0.015,
                   REFERENCE='ANALYTIQUE',),
                _F(RESULTAT=EVOLOS,
                   INST=1.0,
                   NOM_CHAM='SIEQ_NOEU',
                   NOM_CMP='VMIS_SG',
                   MAILLE='M1',
                   GROUP_NO='A',
                   VALE=138.5641,
                   CRITERE='RELATIF',
                   PRECISION=0.05,
                   REFERENCE='ANALYTIQUE',),),);

FIN();

#

