# TITRE CYLINDRE EN C.P. (TRIA3 QUAD4) AXISYM
# ======================================================================
# COPYRIGHT (C) 1991 - 2015  EDF R&D                  WWW.CODE-ASTER.ORG
# THIS PROGRAM IS FREE SOFTWARE; YOU CAN REDISTRIBUTE IT AND/OR MODIFY
# IT UNDER THE TERMS OF THE GNU GENERAL PUBLIC LICENSE AS PUBLISHED BY
# THE FREE SOFTWARE FOUNDATION; EITHER VERSION 2 OF THE LICENSE, OR
# (AT YOUR OPTION) ANY LATER VERSION.
#
# THIS PROGRAM IS DISTRIBUTED IN THE HOPE THAT IT WILL BE USEFUL, BUT
# WITHOUT ANY WARRANTY; WITHOUT EVEN THE IMPLIED WARRANTY OF
# MERCHANTABILITY OR FITNESS FOR A PARTICULAR PURPOSE. SEE THE GNU
# GENERAL PUBLIC LICENSE FOR MORE DETAILS.
#
# YOU SHOULD HAVE RECEIVED A COPY OF THE GNU GENERAL PUBLIC LICENSE
# ALONG WITH THIS PROGRAM; IF NOT, WRITE TO EDF R&D CODE_ASTER,
#    1 AVENUE DU GENERAL DE GAULLE, 92141 CLAMART CEDEX, FRANCE.
# ======================================================================
#
# ----------------------------------------------------------------------
# SSLV04 H                  COMMANDES                           22/08/91
# CYLINDRE CREUX EN CONTRAINTES PLANES
#
# MODELISATION : ELEMENTS MECANIQUE C_PLAN (TRIA3 QUAD4)     AXIS
# MAILLAGE     : ALIBABA > ASTER
# ----------------------------------------------------------------------
# GROUPES DE NOEUDS ET MAILLES: A B C D E F
#              BORDAB=GRNM11    FACEEF=GRMA12    FACEAE=GRMA13
# ----------------------------------------------------------------------
#

DEBUT( CODE=_F(NIV_PUB_WEB='INTERNET'),DEBUG=_F(SDVERI='OUI'))

M=LIRE_MAILLAGE(FORMAT='MED',   )

MO=AFFE_MODELE(            MAILLAGE=M,

                                  AFFE=_F(  TOUT = 'OUI',
                                         PHENOMENE = 'MECANIQUE',
                                         MODELISATION = 'AXIS'))

MA=DEFI_MATERIAU(   ELAS=_F(  E     = 200000.,
                              NU    = 0.3,
                              ALPHA = 0.     ),
                    RCCM=_F(  M_KE  = 1.7,
                              N_KE  = 0.3,
                              SM    = 200.   ),
                )

CM=AFFE_MATERIAU(        MAILLAGE=M,
                                  AFFE=_F(  TOUT = 'OUI',
                                         MATER = MA))

CH=AFFE_CHAR_MECA(         MODELE=MO,
                              DDL_IMPO=_F(  GROUP_NO = 'F',       DY = 0.),
                              PRES_REP=_F(  GROUP_MA = 'GRMA13',  PRES = 60.))


RESU=MECA_STATIQUE(MODELE=MO,
                   CHAM_MATER=CM,
                   EXCIT=_F(CHARGE=CH,),
                   );

RESU=CALC_CHAMP(reuse= RESU,
                RESULTAT=RESU,
                NUME_ORDRE=1,
                CONTRAINTE=('SIGM_ELNO',),
                DEFORMATION=('EPSI_ELNO',),);

TEST_RESU(RESU=(_F(NUME_ORDRE=1,
                   GROUP_NO='A',
                   REFERENCE='ANALYTIQUE',
                   RESULTAT=RESU,
                   NOM_CHAM='DEPL',
                   NOM_CMP='DX',
                   VALE_CALC=5.89917605328E-05,
                   VALE_REFE=5.8999999999999998E-05,
                   CRITERE='RELATIF',
                   PRECISION=1.E-3,),
                _F(NUME_ORDRE=1,
                   GROUP_NO='B',
                   REFERENCE='ANALYTIQUE',
                   RESULTAT=RESU,
                   NOM_CHAM='DEPL',
                   NOM_CMP='DX',
                   VALE_CALC=3.99974365652E-05,
                   VALE_REFE=4.0000000000000003E-05,
                   CRITERE='RELATIF',
                   PRECISION=1.E-3,),
                _F(NUME_ORDRE=1,
                   GROUP_NO='E',
                   REFERENCE='ANALYTIQUE',
                   RESULTAT=RESU,
                   NOM_CHAM='DEPL',
                   NOM_CMP='DX',
                   VALE_CALC=5.89917605328E-05,
                   VALE_REFE=5.8999999999999998E-05,
                   CRITERE='RELATIF',
                   PRECISION=1.E-3,),
                _F(NUME_ORDRE=1,
                   GROUP_NO='F',
                   REFERENCE='ANALYTIQUE',
                   RESULTAT=RESU,
                   NOM_CHAM='DEPL',
                   NOM_CMP='DX',
                   VALE_CALC=3.9997436566E-05,
                   VALE_REFE=4.0000000000000003E-05,
                   CRITERE='RELATIF',
                   PRECISION=1.E-3,),
                _F(NUME_ORDRE=1,
                   GROUP_NO='A',
                   REFERENCE='ANALYTIQUE',
                   RESULTAT=RESU,
                   NOM_CHAM='EPSI_ELNO',
                   NOM_CMP='EPXX',
                   VALE_CALC=-0.000436526133041,
                   VALE_REFE=-4.4999999999999999E-4,
                   CRITERE='RELATIF',
                   PRECISION=0.029999999999999999,
                   MAILLE='M119',),
                _F(NUME_ORDRE=1,
                   GROUP_NO='A',
                   REFERENCE='ANALYTIQUE',
                   RESULTAT=RESU,
                   NOM_CHAM='EPSI_ELNO',
                   NOM_CMP='EPYY',
                   VALE_CALC=-6.18381253095E-05,
                   VALE_REFE=0.0,
                   CRITERE='ABSOLU',
                   PRECISION=1.E-2,
                   MAILLE='M119',),
                _F(NUME_ORDRE=1,
                   GROUP_NO='A',
                   REFERENCE='ANALYTIQUE',
                   RESULTAT=RESU,
                   NOM_CHAM='EPSI_ELNO',
                   NOM_CMP='EPZZ',
                   VALE_CALC=0.000589813513612,
                   VALE_REFE=5.9000000000000003E-4,
                   CRITERE='RELATIF',
                   PRECISION=1.E-2,
                   MAILLE='M119',),
                _F(NUME_ORDRE=1,
                   GROUP_NO='A',
                   REFERENCE='ANALYTIQUE',
                   RESULTAT=RESU,
                   NOM_CHAM='EPSI_ELNO',
                   NOM_CMP='EPXY',
                   VALE_CALC=-1.06259264578E-06,
                   VALE_REFE=0.0,
                   CRITERE='ABSOLU',
                   PRECISION=1.E-2,
                   MAILLE='M119',),
                _F(NUME_ORDRE=1,
                   GROUP_NO='B',
                   REFERENCE='ANALYTIQUE',
                   RESULTAT=RESU,
                   NOM_CHAM='EPSI_ELNO',
                   NOM_CMP='EPXX',
                   VALE_CALC=-6.32596780298E-05,
                   VALE_REFE=-6.0000000000000002E-05,
                   CRITERE='RELATIF',
                   PRECISION=0.059999999999999998,
                   MAILLE='M1',),
                _F(NUME_ORDRE=1,
                   GROUP_NO='B',
                   REFERENCE='ANALYTIQUE',
                   RESULTAT=RESU,
                   NOM_CHAM='EPSI_ELNO',
                   NOM_CMP='EPYY',
                   VALE_CALC=-6.01106958955E-05,
                   VALE_REFE=0.0,
                   CRITERE='ABSOLU',
                   PRECISION=1.E-2,
                   MAILLE='M1',),
                _F(NUME_ORDRE=1,
                   GROUP_NO='B',
                   REFERENCE='ANALYTIQUE',
                   RESULTAT=RESU,
                   NOM_CHAM='EPSI_ELNO',
                   NOM_CMP='EPZZ',
                   VALE_CALC=0.000203311520672,
                   VALE_REFE=2.0000000000000001E-4,
                   CRITERE='RELATIF',
                   PRECISION=0.02,
                   MAILLE='M1',),
                _F(NUME_ORDRE=1,
                   GROUP_NO='B',
                   REFERENCE='ANALYTIQUE',
                   RESULTAT=RESU,
                   NOM_CHAM='EPSI_ELNO',
                   NOM_CMP='EPXY',
                   VALE_CALC=-8.32460546496E-07,
                   VALE_REFE=0.0,
                   CRITERE='ABSOLU',
                   PRECISION=1.E-2,
                   MAILLE='M1',),
                _F(NUME_ORDRE=1,
                   GROUP_NO='E',
                   REFERENCE='ANALYTIQUE',
                   RESULTAT=RESU,
                   NOM_CHAM='EPSI_ELNO',
                   NOM_CMP='EPXX',
                   VALE_CALC=-0.000436526133042,
                   VALE_REFE=-4.4999999999999999E-4,
                   CRITERE='RELATIF',
                   PRECISION=0.029999999999999999,
                   MAILLE='M120',),
                _F(NUME_ORDRE=1,
                   GROUP_NO='E',
                   REFERENCE='ANALYTIQUE',
                   RESULTAT=RESU,
                   NOM_CHAM='EPSI_ELNO',
                   NOM_CMP='EPYY',
                   VALE_CALC=-6.18381253096E-05,
                   VALE_REFE=0.0,
                   CRITERE='ABSOLU',
                   PRECISION=1.E-2,
                   MAILLE='M120',),
                _F(NUME_ORDRE=1,
                   GROUP_NO='E',
                   REFERENCE='ANALYTIQUE',
                   RESULTAT=RESU,
                   NOM_CHAM='EPSI_ELNO',
                   NOM_CMP='EPZZ',
                   VALE_CALC=0.000589813513612,
                   VALE_REFE=5.9000000000000003E-4,
                   CRITERE='RELATIF',
                   PRECISION=1.E-2,
                   MAILLE='M120',),
                _F(NUME_ORDRE=1,
                   GROUP_NO='E',
                   REFERENCE='ANALYTIQUE',
                   RESULTAT=RESU,
                   NOM_CHAM='EPSI_ELNO',
                   NOM_CMP='EPXY',
                   VALE_CALC=1.0625926458E-06,
                   VALE_REFE=0.0,
                   CRITERE='ABSOLU',
                   PRECISION=1.E-2,
                   MAILLE='M120',),
                _F(NUME_ORDRE=1,
                   GROUP_NO='F',
                   REFERENCE='ANALYTIQUE',
                   RESULTAT=RESU,
                   NOM_CHAM='EPSI_ELNO',
                   NOM_CMP='EPXX',
                   VALE_CALC=-6.14707169729E-05,
                   VALE_REFE=-6.0000000000000002E-05,
                   CRITERE='RELATIF',
                   PRECISION=0.029999999999999999,
                   MAILLE='M5',),
                _F(NUME_ORDRE=1,
                   GROUP_NO='F',
                   REFERENCE='ANALYTIQUE',
                   RESULTAT=RESU,
                   NOM_CHAM='EPSI_ELNO',
                   NOM_CMP='EPYY',
                   VALE_CALC=-6.02091800928E-05,
                   VALE_REFE=0.0,
                   CRITERE='ABSOLU',
                   PRECISION=1.E-2,
                   MAILLE='M5',),
                _F(NUME_ORDRE=1,
                   GROUP_NO='F',
                   REFERENCE='ANALYTIQUE',
                   RESULTAT=RESU,
                   NOM_CHAM='EPSI_ELNO',
                   NOM_CMP='EPZZ',
                   VALE_CALC=0.000201079951371,
                   VALE_REFE=2.0000000000000001E-4,
                   CRITERE='RELATIF',
                   PRECISION=1.E-2,
                   MAILLE='M5',),
                _F(NUME_ORDRE=1,
                   GROUP_NO='F',
                   REFERENCE='ANALYTIQUE',
                   RESULTAT=RESU,
                   NOM_CHAM='EPSI_ELNO',
                   NOM_CMP='EPXY',
                   VALE_CALC=-1.27996459593E-08,
                   VALE_REFE=0.0,
                   CRITERE='ABSOLU',
                   PRECISION=1.E-2,
                   MAILLE='M5',),
                ),
          )

#--------------------------------------------------------------------
T_RESU=MACR_LIGN_COUPE(RESULTAT=RESU,  NOM_CHAM='SIGM_ELNO',
                  LIGN_COUPE=(
                     _F(TYPE='SEGMENT', NB_POINTS=15, INTITULE='LIGNE',
                        COOR_ORIG=( 0.1,  0.0,  ),
                        COOR_EXTR=( 0.2,  0.0,  ),
                 )))

T1=POST_RCCM(  OPTION='PM_PB',
               TYPE_RESU_MECA='EVOLUTION',
               MATER=MA,
               TRANSITOIRE=_F( TABL_RESU_MECA=T_RESU, ),
             )

IMPR_TABLE( TABLE=T1,
            NOM_PARA=('LIEU','PM','PB','PMB'),  )

TEST_TABLE(
           VALE_CALC=82.9178532655,
           NOM_PARA='PM',
           TABLE=T1,
           FILTRE=_F(NOM_PARA='LIEU',
                     VALE_K='ORIG',),
           )

TEST_TABLE(CRITERE='RELATIF',
           VALE_CALC=54.0181555865,
           NOM_PARA='PB',
           TABLE=T1,
           FILTRE=_F(NOM_PARA='LIEU',
                     VALE_K='ORIG',),
           )

TEST_TABLE(
           VALE_CALC=136.934821576,
           NOM_PARA='PMB',
           TABLE=T1,
           FILTRE=_F(NOM_PARA='LIEU',
                     VALE_K='ORIG',),
           )

TEST_TABLE(
           VALE_CALC=34.4782457711,
           NOM_PARA='PMB',
           TABLE=T1,
           FILTRE=_F(NOM_PARA='LIEU',
                     VALE_K='EXTR',),
           )

#-----------------------------------------------------------------

TEST_RESU(RESU=(_F(NUME_ORDRE=1,
                   GROUP_NO='A',
                   REFERENCE='ANALYTIQUE',
                   RESULTAT=RESU,
                   NOM_CHAM='SIGM_ELNO',
                   NOM_CMP='SIXX',
                   VALE_CALC=-56.6060294763,
                   VALE_REFE=-60.0,
                   CRITERE='RELATIF',
                   PRECISION=0.059999999999999998,
                   MAILLE='M119',),
                _F(NUME_ORDRE=1,
                   GROUP_NO='A',
                   REFERENCE='ANALYTIQUE',
                   RESULTAT=RESU,
                   NOM_CHAM='SIGM_ELNO',
                   NOM_CMP='SIYY',
                   VALE_CALC=1.03827940558,
                   VALE_REFE=0.0,
                   CRITERE='ABSOLU',
                   PRECISION=1.1000000000000001,
                   MAILLE='M119',),
                _F(NUME_ORDRE=1,
                   GROUP_NO='A',
                   REFERENCE='ANALYTIQUE',
                   RESULTAT=RESU,
                   NOM_CHAM='SIGM_ELNO',
                   NOM_CMP='SIZZ',
                   VALE_CALC=101.292377701,
                   VALE_REFE=100.0,
                   CRITERE='RELATIF',
                   PRECISION=0.014999999999999999,
                   MAILLE='M119',),
                _F(NUME_ORDRE=1,
                   GROUP_NO='A',
                   REFERENCE='ANALYTIQUE',
                   RESULTAT=RESU,
                   NOM_CHAM='SIGM_ELNO',
                   NOM_CMP='SIXY',
                   VALE_CALC=-0.163475791658,
                   VALE_REFE=0.0,
                   CRITERE='ABSOLU',
                   PRECISION=1.2,
                   MAILLE='M119',),
                ),
          )

#-----------------------------------------------------------------

TEST_RESU(RESU=(_F(NUME_ORDRE=1,
                   GROUP_NO='B',
                   REFERENCE='ANALYTIQUE',
                   RESULTAT=RESU,
                   NOM_CHAM='SIGM_ELNO',
                   NOM_CMP='SIXX',
                   VALE_CALC=-0.508279687652,
                   VALE_REFE=0.0,
                   CRITERE='ABSOLU',
                   PRECISION=1.0,
                   MAILLE='M1',),
                _F(NUME_ORDRE=1,
                   GROUP_NO='B',
                   REFERENCE='ANALYTIQUE',
                   RESULTAT=RESU,
                   NOM_CHAM='SIGM_ELNO',
                   NOM_CMP='SIYY',
                   VALE_CALC=-0.0238208977468,
                   VALE_REFE=0.0,
                   CRITERE='ABSOLU',
                   PRECISION=0.5,
                   MAILLE='M1',),
                _F(NUME_ORDRE=1,
                   GROUP_NO='B',
                   REFERENCE='ANALYTIQUE',
                   RESULTAT=RESU,
                   NOM_CHAM='SIGM_ELNO',
                   NOM_CMP='SIZZ',
                   VALE_CALC=40.5026739588,
                   VALE_REFE=40.0,
                   CRITERE='RELATIF',
                   PRECISION=0.012999999999999999,
                   MAILLE='M1',),
                _F(NUME_ORDRE=1,
                   GROUP_NO='B',
                   REFERENCE='ANALYTIQUE',
                   RESULTAT=RESU,
                   NOM_CHAM='SIGM_ELNO',
                   NOM_CMP='SIXY',
                   VALE_CALC=-0.128070853307,
                   VALE_REFE=0.0,
                   CRITERE='ABSOLU',
                   PRECISION=0.14999999999999999,
                   MAILLE='M1',),
                ),
          )

#-----------------------------------------------------------------

TEST_RESU(RESU=(_F(NUME_ORDRE=1,
                   GROUP_NO='E',
                   REFERENCE='ANALYTIQUE',
                   RESULTAT=RESU,
                   NOM_CHAM='SIGM_ELNO',
                   NOM_CMP='SIXX',
                   VALE_CALC=-56.6060294762,
                   VALE_REFE=-60.0,
                   CRITERE='RELATIF',
                   PRECISION=0.059999999999999998,
                   MAILLE='M120',),
                _F(NUME_ORDRE=1,
                   GROUP_NO='E',
                   REFERENCE='ANALYTIQUE',
                   RESULTAT=RESU,
                   NOM_CHAM='SIGM_ELNO',
                   NOM_CMP='SIYY',
                   VALE_CALC=1.03827940561,
                   VALE_REFE=0.0,
                   CRITERE='ABSOLU',
                   PRECISION=1.1000000000000001,
                   MAILLE='M120',),
                _F(NUME_ORDRE=1,
                   GROUP_NO='E',
                   REFERENCE='ANALYTIQUE',
                   RESULTAT=RESU,
                   NOM_CHAM='SIGM_ELNO',
                   NOM_CMP='SIZZ',
                   VALE_CALC=101.292377701,
                   VALE_REFE=100.0,
                   CRITERE='RELATIF',
                   PRECISION=0.014999999999999999,
                   MAILLE='M120',),
                _F(NUME_ORDRE=1,
                   GROUP_NO='E',
                   REFERENCE='ANALYTIQUE',
                   RESULTAT=RESU,
                   NOM_CHAM='SIGM_ELNO',
                   NOM_CMP='SIXY',
                   VALE_CALC=0.163475791661,
                   VALE_REFE=0.0,
                   CRITERE='ABSOLU',
                   PRECISION=1.2,
                   MAILLE='M120',),
                ),
          )

#-----------------------------------------------------------------

TEST_RESU(RESU=(_F(NUME_ORDRE=1,
                   GROUP_NO='F',
                   REFERENCE='ANALYTIQUE',
                   RESULTAT=RESU,
                   NOM_CHAM='SIGM_ELNO',
                   NOM_CMP='SIXX',
                   VALE_CALC=-0.295488652861,
                   VALE_REFE=0.0,
                   CRITERE='ABSOLU',
                   PRECISION=1.0,
                   MAILLE='M5',),
                _F(NUME_ORDRE=1,
                   GROUP_NO='F',
                   REFERENCE='ANALYTIQUE',
                   RESULTAT=RESU,
                   NOM_CHAM='SIGM_ELNO',
                   NOM_CMP='SIYY',
                   VALE_CALC=-0.101406055926,
                   VALE_REFE=0.0,
                   CRITERE='ABSOLU',
                   PRECISION=0.5,
                   MAILLE='M5',),
                _F(NUME_ORDRE=1,
                   GROUP_NO='F',
                   REFERENCE='ANALYTIQUE',
                   RESULTAT=RESU,
                   NOM_CHAM='SIGM_ELNO',
                   NOM_CMP='SIZZ',
                   VALE_CALC=40.0969218616,
                   VALE_REFE=40.0,
                   CRITERE='RELATIF',
                   PRECISION=1.E-2,
                   MAILLE='M5',),
                _F(NUME_ORDRE=1,
                   GROUP_NO='F',
                   REFERENCE='ANALYTIQUE',
                   RESULTAT=RESU,
                   NOM_CHAM='SIGM_ELNO',
                   NOM_CMP='SIXY',
                   VALE_CALC=-0.00196917630143,
                   VALE_REFE=0.0,
                   CRITERE='ABSOLU',
                   PRECISION=0.14999999999999999,
                   MAILLE='M5',),
                ),
          )

#--------------------------------------------------------------------

FIN( )
#
