# TITRE TEST DE NON-REGRESSION D ASTER : MECANIQUE LINEAIRE 3D_SI
# person_in_charge: jacques.pellet at edf.fr
# ======================================================================
# COPYRIGHT (C) 1991 - 2012  EDF R&D                  WWW.CODE-ASTER.ORG
# THIS PROGRAM IS FREE SOFTWARE; YOU CAN REDISTRIBUTE IT AND/OR MODIFY
# IT UNDER THE TERMS OF THE GNU GENERAL PUBLIC LICENSE AS PUBLISHED BY
# THE FREE SOFTWARE FOUNDATION; EITHER VERSION 2 OF THE LICENSE, OR
# (AT YOUR OPTION) ANY LATER VERSION.
#
# THIS PROGRAM IS DISTRIBUTED IN THE HOPE THAT IT WILL BE USEFUL, BUT
# WITHOUT ANY WARRANTY; WITHOUT EVEN THE IMPLIED WARRANTY OF
# MERCHANTABILITY OR FITNESS FOR A PARTICULAR PURPOSE. SEE THE GNU
# GENERAL PUBLIC LICENSE FOR MORE DETAILS.
#
# YOU SHOULD HAVE RECEIVED A COPY OF THE GNU GENERAL PUBLIC LICENSE
# ALONG WITH THIS PROGRAM; IF NOT, WRITE TO EDF R&D CODE_ASTER,
#    1 AVENUE DU GENERAL DE GAULLE, 92141 CLAMART CEDEX, FRANCE.
# ======================================================================
DEBUT(CODE=_F(NOM='SSLV200B', NIV_PUB_WEB='INTERNET'), DEBUG=_F(SDVERI='OUI'))

# ========================================================================
# TEST DE NON REGRESSION :
# (les valeurs de reference ont ete obtenues par Code_Aster)
#
# - On utilise dans le maillage de nombreux types de mailles
#   (pour valider le plus d'elements finis)
#
# - domaines testes :
#      MECANIQUE LINEAIRE, MODELISATION='3D_SI'
# =========================================================================

# ----------------------------------------------------------------------
#    DEFINITION DU MODELE
# ----------------------------------------------------------------------
MA=LIRE_MAILLAGE(FORMAT='MED')

DEFI_GROUP( reuse=MA,   MAILLAGE=MA,
  CREA_GROUP_MA=_F(  NOM = 'TOUT', TOUT = 'OUI'))

DEFI_GROUP( reuse=MA, MAILLAGE=MA,
                   CREA_GROUP_MA=_F(  NOM = 'GMX1', MAILLE = 'M109'),
                   CREA_GROUP_NO=_F(  NOM = 'GNX1', NOEUD = 'N666')  )


# MAILLAGE COMPORTANT TOUS LES TYPES D ELEMENTS ISOPARAMETRIQUES 3D :
#      TETRA4   PENTA6    HEXA8          PYRAM5
#      TETRA10  PENTA15   HEXA20 HEXA27  PYRAM13

MO=AFFE_MODELE(    MAILLAGE=MA, VERI_JACOBIEN='OUI',
                         AFFE=(
                               _F(  TOUT = 'OUI',
                                PHENOMENE = 'MECANIQUE',
                                MODELISATION = '3D') ,
                               _F(  GROUP_MA = 'VCUB20',
                                PHENOMENE = 'MECANIQUE',
                                MODELISATION = '3D_SI'),
                                ) )

MOTH=AFFE_MODELE(    MAILLAGE=MA,  VERI_JACOBIEN='OUI',
                           AFFE=_F(  TOUT = 'OUI',
                                  PHENOMENE = 'THERMIQUE',
                                  MODELISATION = '3D') )

# ----------------------------------------------------------------------
#    DEFINITION DE CHAMPS
# ----------------------------------------------------------------------
LR1=DEFI_LIST_REEL(         DEBUT=-0.5,
                         INTERVALLE=_F(  JUSQU_A = 11.5,
                                      NOMBRE = 2) )

FO1=DEFI_FONCTION(    NOM_PARA='TEMP',
                        VALE=( -5.1, 1.05,
                                4.8, 1.12,
                               17.3, 1.14,   ),
                         PROL_DROITE='LINEAIRE',
                        PROL_GAUCHE='CONSTANT' )

FO2=DEFI_FONCTION(    NOM_PARA='TEMP',
                        VALE=( -8.1,  0.28,
                               12.5,  0.33,
                               25.7,  0.31,      ),
                         PROL_DROITE='LINEAIRE',
                        PROL_GAUCHE='CONSTANT' )

FO2_NU=DEFI_FONCTION(    NOM_PARA='TEMP',
                        VALE=( -8.1,  0.155652174,
                               12.5,  0.185909619,
                               25.7,  0.253593191,      ),
                         PROL_DROITE='LINEAIRE',
                        PROL_GAUCHE='CONSTANT' )

FO3=DEFI_FONCTION(    NOM_PARA='TEMP',
                        VALE=( -5.1, 1.06,
                                4.8, 1.11,
                               17.3, 1.02,   ),
                         PROL_DROITE='LINEAIRE',
                        PROL_GAUCHE='CONSTANT' )

FO4=DEFI_FONCTION(    NOM_PARA='INST',
                        VALE=( -1.5, 0.85,
                                0.8, 0.98,
                                8.5, 0.94,   ),
                         PROL_DROITE='LINEAIRE',
                        PROL_GAUCHE='CONSTANT' )

FO5=DEFI_FONCTION(    NOM_PARA='X',
                        VALE=(  0.8, -0.91,
                                1.5, -0.94,
                                3.8, -0.89,  ),
                         PROL_DROITE='CONSTANT',
                        PROL_GAUCHE='LINEAIRE' )

FO6=DEFI_FONCTION(    NOM_PARA='Y',
                        VALE=( -2.1,  1.02,
                                3.3,  0.98,
                                8.9,  1.13,  ),
                         PROL_DROITE='LINEAIRE',
                        PROL_GAUCHE='LINEAIRE' )

FO7=DEFI_FONCTION(    NOM_PARA='Z',
                        VALE=(  0.8, -0.91,   1.5, -1.14,     3.8, -1.05,  ),
                         PROL_DROITE='CONSTANT',  PROL_GAUCHE='LINEAIRE' )
FO7B=DEFI_FONCTION(    NOM_PARA='Z',
                        VALE=(  0.8, -0.91E4,   1.5, -1.14E4,     3.8, -1.05E4,  ),
                         PROL_DROITE='CONSTANT',  PROL_GAUCHE='LINEAIRE' )

FO8=DEFI_FONCTION(    NOM_PARA='INST',
                        VALE=(  0.,  -4.91,
                               11.2, -1.98,  ),
                         PROL_DROITE='LINEAIRE',
                        PROL_GAUCHE='LINEAIRE' )

FO9=DEFI_FONCTION(    NOM_PARA='X',
                        VALE=( -5.2,  6.11,
                                8.5,  6.04,  ),
                         PROL_DROITE='CONSTANT',
                        PROL_GAUCHE='CONSTANT' )

FO10=DEFI_FONCTION(    NOM_PARA='Y',
                        VALE=( -0.5, -6.05,
                               15.7, -5.88,  ),
                         PROL_DROITE='CONSTANT',
                        PROL_GAUCHE='LINEAIRE' )

FO11=DEFI_FONCTION(    NOM_PARA='Z',
                        VALE=( 1.8,   5.82,
                               6.5,   6.06,
                              11.8,   5.91,  ),
                         PROL_DROITE='LINEAIRE',
                        PROL_GAUCHE='CONSTANT' )

FO12=DEFI_FONCTION(    NOM_PARA='INST',
                        VALE=(  2.6,  11.6,
                               19.2,  15.2,      ),
                         PROL_DROITE='CONSTANT',
                        PROL_GAUCHE='LINEAIRE' )

FO13=DEFI_FONCTION(    NOM_PARA='INST',
                         VALE=(  0.6,  0.94,
                                37.3,  1.02,      ),
                          PROL_DROITE='CONSTANT',
                         PROL_GAUCHE='LINEAIRE' )

FO14=DEFI_FONCTION(    NOM_PARA='INST',
                         VALE=( -5.4,  0.91,
                                31.4,  1.08,      ),
                          PROL_DROITE='LINEAIRE',
                         PROL_GAUCHE='LINEAIRE' )

FO15=DEFI_FONCTION(    NOM_PARA='TEMP',
                         VALE=( -1.1, 1.15,
                                 7.8, 1.82,
                                22.4, 1.41,   ),
                          PROL_DROITE='CONSTANT',
                         PROL_GAUCHE='CONSTANT' )

FO16=DEFI_FONCTION(    NOM_PARA='TEMP',
                         VALE=( -8.1,  0.19,
                                12.5,  0.25,
                                25.7,  0.34,      ),
                          PROL_DROITE='CONSTANT',
                         PROL_GAUCHE='CONSTANT' )

FO17=DEFI_FONCTION(    NOM_PARA='TEMP',
                         VALE=( 9.2,  2.2,
                               11.4,  1.7,
                               15.8,  2.4,    ),
                          PROL_DROITE='CONSTANT',
                         PROL_GAUCHE='CONSTANT' )

FO18=DEFI_FONCTION(    NOM_PARA='TEMP',
                         VALE=(  8.4, 5.15,
                                19.8, 2.82,
                                21.4, 4.74,   ),
                          PROL_DROITE='CONSTANT',
                         PROL_GAUCHE='CONSTANT' )

FO19=DEFI_FONCTION(    NOM_PARA='TEMP',
                         VALE=( -12.5, 5.2,
                                  6.4, 6.8,
                                 11.2, 3.7,   ),
                          PROL_DROITE='CONSTANT',
                         PROL_GAUCHE='CONSTANT' )

# ----------------------------------------------------------------------
#    DEFINITION DES CARACTERISTIQUES ELEMENTAIRES : AXES LOCAUX
# ----------------------------------------------------------------------
CARA1=AFFE_CARA_ELEM(    MODELE=MO,MASSIF=(
                           _F(
       GROUP_MA = 'TOUT',

                                    ANGL_REP = (21.4, 5.8, -16.7,)),
                           _F(  GROUP_MA = ('GMA16', 'GMA17', 'GMA18',),
                                    ANGL_AXE = (57.4, 22.7,),
                                    ORIG_AXE = (1.1, 0.5, 0.6,))) )

# ----------------------------------------------------------------------
#    DEFINITION ET AFFECTATION DU MATERIAU
# ----------------------------------------------------------------------
MAT1=DEFI_MATERIAU(    ELAS=_F(  E = 1.2,
                                NU = 0.3,
                                RHO = 7800.,
                                ALPHA = 1.),
                         THER=_F(  RHO_CP = 1.4,
                                LAMBDA = 0.8) )

MAT2=DEFI_MATERIAU(    ELAS_FO=_F(  E = FO1,
                                   NU = FO2,
                                   RHO = 7820.,
                                   ALPHA = FO3,TEMP_DEF_ALPHA=2.9),
                         THER=_F(  RHO_CP = 1.2,
                                LAMBDA = 0.9) )

MAT3=DEFI_MATERIAU(    ELAS_ISTR=_F(  E_L = 1.5,
                                     E_N = 1.4,
                                     NU_LT = 0.25,
                                     NU_LN = 0.4,
                                     G_LN = 3.1,
                                     RHO = 8500.,
                                     ALPHA_L = 2.1,
                                     ALPHA_N = 0.8),
                         THER=_F(  RHO_CP = 2.2,
                                LAMBDA = 1.9) )

MAT4=DEFI_MATERIAU(    ELAS_ISTR_FO=_F(  E_L = FO1,
                                        E_N = FO15,
                                        NU_LT = FO2,
                                        NU_LN = FO16,
                                        G_LN = FO18,
                                        RHO = 6700.,
                                        ALPHA_L = FO3,
                                        ALPHA_N = FO17,
                                        TEMP_DEF_ALPHA=1.7),
                         THER=_F(  RHO_CP = 2.7,
                                LAMBDA = 0.4) )

MAT5=DEFI_MATERIAU(    ELAS_ORTH=_F(  E_L = 1.6,
                                     E_T = 1.8,
                                     E_N = 2.8,
                                     NU_LT = 0.177777778,
                                     NU_LN = 0.3,
                                     NU_TN = 0.4,
                                     G_LT = 1.1,
                                     G_LN = 2.2,
                                     G_TN = 3.5,
                                     RHO = 6820.,
                                     ALPHA_L = 3.2,
                                     ALPHA_T = 1.9,
                                     ALPHA_N = 1.7,
                                     XT = 1.2,
                                     XC = 3.5,
                                     YT = 2.7,
                                     YC = 3.4,
                                     S_LT = 2.6),
                         THER=_F(  RHO_CP = 3.2,
                                LAMBDA = 1.9) )

MAT6=DEFI_MATERIAU(    ELAS_ORTH_FO=_F(  E_L = FO1,
                                        E_T = FO15,
                                        E_N = FO1,
                                        NU_LT = FO2_NU,
                                        NU_LN = FO16,
                                        NU_TN = FO16,
                                        G_LT = FO18,
                                        G_LN = FO19,
                                        G_TN = FO18,
                                        RHO = 5240.,
                                        ALPHA_L = FO3,
                                        ALPHA_T = FO17,
                                        ALPHA_N = FO17,
                                        TEMP_DEF_ALPHA=0.),
                         THER=_F(  RHO_CP = 2.5,
                                LAMBDA = 1.7) )

CHMAT=AFFE_MATERIAU(    MAILLAGE=MA,AFFE=(
                          _F(  TOUT = 'OUI',
                                 MATER = MAT1,),
                          _F(  GROUP_MA = 'GMA0',
                                 MATER = MAT2,),
                          _F(  GROUP_MA = 'GMA16',
                                 MATER = MAT3),
                          _F(  GROUP_MA = 'GMA17',
                                 MATER = MAT4,),
                          _F(  GROUP_MA = 'GMA18',
                                 MATER = MAT5),
                          _F(  GROUP_MA = 'GMA19',
                                 MATER = MAT6)) )

# DANS CHAQUE GROUP_MA, TOUS LES TYPES DE MAILLES SONT REPRESENTES

# ----------------------------------------------------------------------
#    AFFECTATION DES CHARGEMENTS ET DES CONDITIONS LIMITES
# ----------------------------------------------------------------------
CHTHF=AFFE_CHAR_THER_F(       MODELE=MOTH,TEMP_IMPO=(
                             _F(  TOUT = 'OUI',
                                         TEMP = FO13),
                             _F(  NOEUD = ('N85', 'N109', 'N387', 'N473',),
                                         TEMP = FO12)) )

THLIN=THER_LINEAIRE(        MODELE=MOTH,
                          CHAM_MATER=CHMAT,
                           CARA_ELEM=CARA1,
                           INCREMENT=_F(  LIST_INST = LR1),
                               EXCIT=_F(  CHARGE = CHTHF) )

#ENGENDRE_TEST (  CO = THLIN, )

TEST_RESU(RESU=(_F(NUME_ORDRE=0,
                   TYPE_TEST='SOMM_ABS',
                   RESULTAT=THLIN,
                   NOM_CHAM='TEMP',
                   VALE_CALC=865.96416120128004,
                   ),
                _F(NUME_ORDRE=1,
                   TYPE_TEST='SOMM_ABS',
                   RESULTAT=THLIN,
                   NOM_CHAM='TEMP',
                   VALE_CALC=895.19813433787999,
                   ),
                _F(NUME_ORDRE=2,
                   TYPE_TEST='SOMM_ABS',
                   RESULTAT=THLIN,
                   NOM_CHAM='TEMP',
                   VALE_CALC=934.72707508637995,
                   ),
                ),
          )

CHMAT2=AFFE_MATERIAU(    MAILLAGE=MA,AFFE=(
                          _F(  TOUT = 'OUI',
                                 MATER = MAT1,),
                          _F(  GROUP_MA = 'GMA0',
                                 MATER = MAT2,),
                          _F(  GROUP_MA = 'GMA16',
                                 MATER = MAT3),
                          _F(  GROUP_MA = 'GMA17',
                                 MATER = MAT4,),
                          _F(  GROUP_MA = 'GMA18',
                                 MATER = MAT5),
                          _F(  GROUP_MA = 'GMA19',
                                 MATER = MAT6)),


                                    AFFE_VARC=(
                          _F(  TOUT = 'OUI',
                                 EVOL=THLIN,
                                 NOM_VARC='TEMP',
                                 VALE_REF = 1.8),
                          _F(  GROUP_MA = 'GMA0',
                                 EVOL=THLIN,
                                 NOM_VARC='TEMP',
                                 VALE_REF = 2.9),
                          _F(  GROUP_MA = 'GMA16',
                                 EVOL=THLIN,VALE_REF=0.,
                                 NOM_VARC='TEMP'),
                          _F(  GROUP_MA = 'GMA17',
                                 EVOL=THLIN,
                                 NOM_VARC='TEMP',
                                 VALE_REF=1.7),
                          _F(  GROUP_MA = 'GMA18',
                                 EVOL=THLIN,VALE_REF=0.,
                                 NOM_VARC='TEMP'),
                          _F(  GROUP_MA = 'GMA19',
                                 EVOL=THLIN,VALE_REF=0.,
                                 NOM_VARC='TEMP')) )


CHMEC=AFFE_CHAR_MECA(           MODELE=MO,
                                VERI_NORM='NON',
                                PESANTEUR=_F(GRAVITE=9.8,
                                             DIRECTION=(0.3,  0.1, -0.4,),),
                                ROTATION=_F(VITESSE = 0.2,
                                            AXE = (0.5, -0.2, 0.2,),),
                                FORCE_INTERNE=(
#  ----  MAILLES 3D
                           _F(  GROUP_MA = 'GMA1',
                                           FY = 0.51,
                                           FZ = 0.70),
                           _F(  MAILLE = ('M140', 'M192',),
                                           FX = 0.84)),PRE_EPSI=(
                           _F(  GROUP_MA = 'GMA3',
                                       EPYZ = -1.8,
                                       EPXY = 1.4),
                           _F(  MAILLE = ('M7', 'M201', 'M178',),
                                       EPXX = 2.2)),FACE_IMPO=(
#  ----  MAILLES DE FACE 2D
                           _F(  GROUP_MA = 'GMA5',
                                       DX = -6.03,
                                       DZ = -5.91),
                           _F(  MAILLE = 'M267',
                                       DNOR = -6.07)),FORCE_FACE=(
                           _F(  GROUP_MA = 'GMA7',
                                        FZ = -1.01),
                           _F(  MAILLE = 'M471',
                                        FY = -0.74)),PRES_REP=(
                           _F(  GROUP_MA = 'GMA9',
                                      PRES = 0.82),
                           _F(  MAILLE = 'M257',
                                      PRES = -1.07)),FORCE_ARETE=(
#  ----  MAILLES ARETES 1D
                           _F(  GROUP_MA = 'GMA11',
                                         MX = 0.91,
                                         MZ = -1.13),
                           _F(  MAILLE = 'M540',
                                         FX = 0.87)),
#  ----  MAILLES DE TYPE QUELCONQUE
                           LIAISON_GROUP=_F(  MAILLE_1 = 'M599',
                                           GROUP_MA_2 = 'GMA13',
                                           DDL_1 = 'DZ',
                                           COEF_MULT_1 = 1.8,
                                           DDL_2 = 'DY',
                                           COEF_MULT_2 = 0.7,
                                           COEF_IMPO = -5.22,
                                           SOMMET = 'OUI'),LIAISON_UNIF=(
                           _F(  GROUP_MA = 'GMA14',
                                          DDL = ('DX', 'DY',)),
                           _F(  NOEUD = ('N34', 'N128',),
                                          DDL = ('DX', 'DZ',))),LIAISON_SOLIDE=(
                           _F(  MAILLE = ('M488', 'M598',),
                                            NUME_LAGR = 'NORMAL'),
                           _F(  GROUP_NO = ('GNO11', 'GNO12',),
                                            NUME_LAGR = 'NORMAL')),DDL_IMPO=(
#  ----  NOEUDS
                           _F(  GROUP_NO = 'GNO1',
                                      DX = 6.3),
                           _F(  NOEUD = 'N620',
                                      DY = 7.1,
                                      DZ = -5.9)),LIAISON_DDL=(
                           _F(  GROUP_NO = ('GNO3', 'GNO4',),
                                         DDL = ('DX', 'DZ',),
                                         COEF_MULT = (-1.2, 0.7, ),
                                         COEF_IMPO = 5.9),
                           _F(  NOEUD = ('N187', 'N666',),
                                         DDL = ('DY', 'DY',),
                                         COEF_MULT = (1.3,   1.1,),
                                         COEF_IMPO = 6.1)),LIAISON_OBLIQUE=(
                           _F(  GROUP_NO = 'GNO6',
                                             ANGL_NAUT = ( 20.3, 15.8,
                                                         -44.1, ),
                                             DZ = 4.17),
                           _F(  NOEUD = 'N73',
                                             ANGL_NAUT = (18.7, 35.1,),
                                             DZ = 5.95)),
                           LIAISON_MAIL=_F(  GROUP_MA_MAIT = 'GMX1',
                                          GROUP_NO_ESCL = 'GNX1'),
                                          FORCE_NODALE=

                           _F(  GROUP_NO = 'GNO13',
                                          FY = 0.87E4,
                                          FZ = -0.92E4),)

CHMEC2=AFFE_CHAR_MECA(           MODELE=MO,
                                VERI_NORM='NON',
                                          FORCE_NODALE=
                           _F(  NOEUD = 'N162',
                                          FX = 0.86E4,
                                          FY = 0.98E4,
#                                         ANGL_NAUT = (22.8, -56.1, 11.7,)
                                          ))

CHMECF=AFFE_CHAR_MECA_F(         MODELE=MO,
                                VERI_NORM='NON',FORCE_INTERNE=(
#  ----  MAILLES 3D
                              _F(  GROUP_MA = 'GMA2',
                                              FY = FO4),
                              _F(  MAILLE = ('M157', 'M184',),
                                              FZ = FO5)),PRE_EPSI=(
                              _F(  GROUP_MA = 'GMA4',
                                          EPYY = FO8),
                              _F(  MAILLE = ('M95', 'M206',),
                                          EPXZ = FO8,
                                          EPYZ = FO9)),FACE_IMPO=(
#  ----  MAILLES DE BORD 2D
                              _F(  GROUP_MA = 'GMA6',
                                          DX = FO10),
                              _F(  MAILLE = 'M326',
                                          DNOR = FO11)),FORCE_FACE=(
                              _F(  GROUP_MA = 'GMA8',
                                           FZ = FO6),
                              _F(  MAILLE = 'M436',
                                           FY = FO4)),PRES_REP=(
                              _F(  GROUP_MA = 'GMA10',
                                         PRES = FO6),
                              _F(  MAILLE = 'M363',
                                         PRES = FO7)),FORCE_ARETE=(
#  ----  MAILLES ARETE 1D
                              _F(  GROUP_MA = 'GMA12',
                                            FY = FO4,
                                            FZ = FO5),
                              _F(  MAILLE = 'M512',
                                            MY = FO7)),LIAISON_UNIF=(
#  ----  MAILLES DE TYPE QUELCONQUE
                              _F(  MAILLE = 'M460',
                                             DDL = 'DY'),
                              _F(  GROUP_NO = 'GNO10',
                                             DDL = ('DZ', 'DX',))),DDL_IMPO=(
#  ----  NOEUDS
                              _F(  GROUP_NO = 'GNO2',
                                         DY = FO8),
                              _F(  NOEUD = ('N115', 'N615',),
                                         DX = FO11)),LIAISON_DDL=(
                              _F(  GROUP_NO = 'GNO5',
                                            DDL = ('DZ', 'DZ',),
                                            COEF_MULT = (2.5,  -1.3,),
                                            COEF_IMPO = FO10),
                              _F(  NOEUD = ('N143', 'N655',),
                                            DDL = ('DX', 'DZ',),
                                            COEF_MULT = (1.4,   2.8,),
                                            COEF_IMPO = FO9)),LIAISON_OBLIQUE=(
                              _F(  GROUP_NO = 'GNO7',
                                                ANGL_NAUT = (-25.4, 2.7,
                                                              18.9, ),
                                                DX = FO10),
                              _F(  NOEUD = 'N69',
                                                ANGL_NAUT = (12.3, 44.5,
                                                             -9.6,  ),
                                                DY = FO9)),
                              LIAISON_GROUP=_F(  NOEUD_1 = ('N597', 'N601',
                                                             'N604',),
                                              GROUP_NO_2 = ('GNO8', 'GNO9',),
                                              SANS_NOEUD = 'N622',
                                              DDL_1 = ('DY', 'DZ',),
                                              COEF_MULT_1 = (1.1,  -3.7,),
                                              DDL_2 = 'DZ',
                                              COEF_MULT_2 = 2.8,
                                              COEF_IMPO = FO9),FORCE_NODALE=(
                              _F(  GROUP_NO = 'GNO14',
                                             FY = FO6),
                              _F(  NOEUD = ('N113', 'N659',),
                                             FZ = FO7,
                                             ANGL_NAUT = FO12)) )

CHCI=AFFE_CHAR_CINE(       MODELE=MO,MECA_IMPO=(
                          _F(  GROUP_NO = 'GNO15',
                                      DY = -5.2,
                                      DZ = 6.1),
                          _F(  NOEUD = ('N368', 'N669',),
                                      DY = 0.0)) )

CHCIF=AFFE_CHAR_CINE_F(       MODELE=MO,MECA_IMPO=(
                             _F(  GROUP_NO = ('GNO16', 'GNO17',),
                                         DZ = FO8,
                                         DY = FO10),
                             _F(  NOEUD = 'N261',
                                         DY = FO9)) )

# ----------------------------------------------------------------------
#   COMMANDES GLOBALES DE MECANIQUE : STATIQUE LINEAIRE
# ----------------------------------------------------------------------

MSLIN=MECA_STATIQUE(        MODELE=MO,
                            CARA_ELEM=CARA1,
                           CHAM_MATER=CHMAT2,EXCIT=(
                           _F(  CHARGE = CHMEC,
                                   FONC_MULT = FO13),
                           _F(  CHARGE = CHMEC2,
                                   FONC_MULT = FO13),
                           _F(  CHARGE = CHCI,
                                   FONC_MULT = FO14),
                           _F(  CHARGE = CHMECF,
                                   FONC_MULT = FO14),
                           _F(  CHARGE = CHCIF,
                                   FONC_MULT = FO13)),
                           LIST_INST=LR1,
                           )

CALC_CHAMP(reuse=MSLIN,RESULTAT=MSLIN,LIST_INST=LR1,CRITERES=('SIEQ_ELNO','SIEQ_ELGA','EPEQ_ELNO','EPEQ_ELGA'),DEFORMATION=('EPSG_ELGA','EPSG_ELNO','EPME_ELNO','EPME_ELGA','EPSI_ELGA','EPSI_ELNO'),ENERGIE=('EPOT_ELEM'),CONTRAINTE=('SIGM_ELNO'))


CALC_CHAMP( reuse=MSLIN,  RESULTAT=MSLIN,
         DEFORMATION='EPSI_NOEU',CRITERES=('SIEQ_NOEU','EPEQ_NOEU'),CONTRAINTE='SIGM_NOEU',
        )


#ENGENDRE_TEST (  CO = MSLIN )

TEST_RESU(RESU=(_F(NUME_ORDRE=1,
                   TYPE_TEST='SOMM_ABS',
                   RESULTAT=MSLIN,
                   NOM_CHAM='DEPL',
                   VALE_CALC=1.1745376677972E+09,
                   TOLE_MACHINE=1.E-4,
                   ),
                _F(NUME_ORDRE=2,
                   TYPE_TEST='SOMM_ABS',
                   RESULTAT=MSLIN,
                   NOM_CHAM='DEPL',
                   VALE_CALC=1.1908785831967E+09,
                   TOLE_MACHINE=1.E-4,
                   ),
                _F(NUME_ORDRE=3,
                   TYPE_TEST='SOMM_ABS',
                   RESULTAT=MSLIN,
                   NOM_CHAM='DEPL',
                   VALE_CALC=1.207218280468E+09,
                   TOLE_MACHINE=1.E-4,
                   ),
                _F(NUME_ORDRE=1,
                   TYPE_TEST='SOMM_ABS',
                   RESULTAT=MSLIN,
                   NOM_CHAM='EPSI_ELGA',
                   VALE_CALC=7.9562803643884003E8,
                   ),
                _F(NUME_ORDRE=2,
                   TYPE_TEST='SOMM_ABS',
                   RESULTAT=MSLIN,
                   NOM_CHAM='EPSI_ELGA',
                   VALE_CALC=8.0667909483403003E8,
                   ),
                _F(NUME_ORDRE=3,
                   TYPE_TEST='SOMM_ABS',
                   RESULTAT=MSLIN,
                   NOM_CHAM='EPSI_ELGA',
                   VALE_CALC=8.1772904002231002E8,
                   ),
                _F(NUME_ORDRE=1,
                   TYPE_TEST='SOMM_ABS',
                   RESULTAT=MSLIN,
                   NOM_CHAM='EPSI_ELNO',
                   VALE_CALC=9.0052795727441001E8,
                   ),
                _F(NUME_ORDRE=2,
                   TYPE_TEST='SOMM_ABS',
                   RESULTAT=MSLIN,
                   NOM_CHAM='EPSI_ELNO',
                   VALE_CALC=9.1303324909686995E8,
                   ),
                _F(NUME_ORDRE=3,
                   TYPE_TEST='SOMM_ABS',
                   RESULTAT=MSLIN,
                   NOM_CHAM='EPSI_ELNO',
                   VALE_CALC=9.2553721779268003E8,
                   ),
                _F(NUME_ORDRE=1,
                   TYPE_TEST='SOMM_ABS',
                   RESULTAT=MSLIN,
                   NOM_CHAM='EPSI_NOEU',
                   VALE_CALC=2.4663484078211001E8,
                   ),
                _F(NUME_ORDRE=2,
                   TYPE_TEST='SOMM_ABS',
                   RESULTAT=MSLIN,
                   NOM_CHAM='EPSI_NOEU',
                   VALE_CALC=2.5005752380030999E8,
                   ),
                _F(NUME_ORDRE=3,
                   TYPE_TEST='SOMM_ABS',
                   RESULTAT=MSLIN,
                   NOM_CHAM='EPSI_NOEU',
                   VALE_CALC=2.5347989055458999E8,
                   ),
                _F(NUME_ORDRE=1,
                   TYPE_TEST='SOMM_ABS',
                   RESULTAT=MSLIN,
                   NOM_CHAM='SIEF_ELGA',
                   VALE_CALC=1.4755208459123001E9,
                   ),
                _F(NUME_ORDRE=2,
                   TYPE_TEST='SOMM_ABS',
                   RESULTAT=MSLIN,
                   NOM_CHAM='SIEF_ELGA',
                   VALE_CALC=1.4960847881745999E9,
                   ),
                _F(NUME_ORDRE=3,
                   TYPE_TEST='SOMM_ABS',
                   RESULTAT=MSLIN,
                   NOM_CHAM='SIEF_ELGA',
                   VALE_CALC=1.5166493973872001E9,
                   ),
                _F(NUME_ORDRE=1,
                   TYPE_TEST='SOMM_ABS',
                   RESULTAT=MSLIN,
                   NOM_CHAM='SIGM_ELNO',
                   VALE_CALC=1.6447316436501999E9,
                   ),
                _F(NUME_ORDRE=2,
                   TYPE_TEST='SOMM_ABS',
                   RESULTAT=MSLIN,
                   NOM_CHAM='SIGM_ELNO',
                   VALE_CALC=1.6676760137720001E9,
                   ),
                _F(NUME_ORDRE=3,
                   TYPE_TEST='SOMM_ABS',
                   RESULTAT=MSLIN,
                   NOM_CHAM='SIGM_ELNO',
                   VALE_CALC=1.6906215470476999E9,
                   ),
                _F(NUME_ORDRE=1,
                   TYPE_TEST='SOMM_ABS',
                   RESULTAT=MSLIN,
                   NOM_CHAM='SIGM_NOEU',
                   VALE_CALC=4.1856312969423997E8,
                   ),
                _F(NUME_ORDRE=2,
                   TYPE_TEST='SOMM_ABS',
                   RESULTAT=MSLIN,
                   NOM_CHAM='SIGM_NOEU',
                   VALE_CALC=4.2440490878833997E8,
                   ),
                _F(NUME_ORDRE=3,
                   TYPE_TEST='SOMM_ABS',
                   RESULTAT=MSLIN,
                   NOM_CHAM='SIGM_NOEU',
                   VALE_CALC=4.3024654847100002E8,
                   ),
                _F(NUME_ORDRE=1,
                   TYPE_TEST='SOMM_ABS',
                   RESULTAT=MSLIN,
                   NOM_CHAM='SIEQ_ELGA',
                   VALE_CALC=4.8312031217251997E9,
                   ),
                _F(NUME_ORDRE=2,
                   TYPE_TEST='SOMM_ABS',
                   RESULTAT=MSLIN,
                   NOM_CHAM='SIEQ_ELGA',
                   VALE_CALC=4.8985225744274998E9,
                   ),
                _F(NUME_ORDRE=3,
                   TYPE_TEST='SOMM_ABS',
                   RESULTAT=MSLIN,
                   NOM_CHAM='SIEQ_ELGA',
                   VALE_CALC=4.9658420754172001E9,
                   ),
                _F(NUME_ORDRE=1,
                   TYPE_TEST='SOMM_ABS',
                   RESULTAT=MSLIN,
                   NOM_CHAM='SIEQ_ELNO',
                   VALE_CALC=5.3444639075635E+09,
                   ),
                _F(NUME_ORDRE=2,
                   TYPE_TEST='SOMM_ABS',
                   RESULTAT=MSLIN,
                   NOM_CHAM='SIEQ_ELNO',
                   VALE_CALC=5.4190251519676E+09,
                   ),
                _F(NUME_ORDRE=3,
                   TYPE_TEST='SOMM_ABS',
                   RESULTAT=MSLIN,
                   NOM_CHAM='SIEQ_ELNO',
                   VALE_CALC=5.4935889148585E+09,
                   ),
                _F(NUME_ORDRE=1,
                   TYPE_TEST='SOMM',
                   RESULTAT=MSLIN,
                   NOM_CHAM='SIEQ_NOEU',
                   VALE_CALC=6.811649062438E+08  ,
                   ),
                _F(NUME_ORDRE=2,
                   TYPE_TEST='SOMM',
                   RESULTAT=MSLIN,
                   NOM_CHAM='SIEQ_NOEU',
                   VALE_CALC=6.9065970991269E+08 ,
                   ),
                _F(NUME_ORDRE=3,
                   TYPE_TEST='SOMM',
                   RESULTAT=MSLIN,
                   NOM_CHAM='SIEQ_NOEU',
                   VALE_CALC=7.001556488024E+08  ,
                   ),
                _F(NUME_ORDRE=1,
                   TYPE_TEST='SOMM_ABS',
                   RESULTAT=MSLIN,
                   NOM_CHAM='EPEQ_ELGA',
                   VALE_CALC=1.4781491323622E9,
                   ),
                _F(NUME_ORDRE=2,
                   TYPE_TEST='SOMM_ABS',
                   RESULTAT=MSLIN,
                   NOM_CHAM='EPEQ_ELGA',
                   VALE_CALC=1.4986819379737E9,
                   ),
                _F(NUME_ORDRE=3,
                   TYPE_TEST='SOMM_ABS',
                   RESULTAT=MSLIN,
                   NOM_CHAM='EPEQ_ELGA',
                   VALE_CALC=1.5192125841543E9,
                   ),
                _F(NUME_ORDRE=1,
                   TYPE_TEST='SOMM_ABS',
                   RESULTAT=MSLIN,
                   NOM_CHAM='EPEQ_ELNO',
                   VALE_CALC=1.6552960430607E+09,
                   ),
                _F(NUME_ORDRE=2,
                   TYPE_TEST='SOMM_ABS',
                   RESULTAT=MSLIN,
                   NOM_CHAM='EPEQ_ELNO',
                   VALE_CALC=1.6782859083013E+09,
                   ),
                _F(NUME_ORDRE=3,
                   TYPE_TEST='SOMM_ABS',
                   RESULTAT=MSLIN,
                   NOM_CHAM='EPEQ_ELNO',
                   VALE_CALC=1.7012732888179E+09,
                   ),
                _F(NUME_ORDRE=1,
                   TYPE_TEST='SOMM',
                   RESULTAT=MSLIN,
                   NOM_CHAM='EPEQ_NOEU',
                   VALE_CALC=1.4529237633012E+08 ,
                   ),
                _F(NUME_ORDRE=2,
                   TYPE_TEST='SOMM',
                   RESULTAT=MSLIN,
                   NOM_CHAM='EPEQ_NOEU',
                   VALE_CALC=1.4731585620809E+08 ,
                   ),
                _F(NUME_ORDRE=3,
                   TYPE_TEST='SOMM',
                   RESULTAT=MSLIN,
                   NOM_CHAM='EPEQ_NOEU',
                   VALE_CALC=1.4933915038293E+08 ,
                   ),
                _F(NUME_ORDRE=1,
                   TYPE_TEST='SOMM_ABS',
                   RESULTAT=MSLIN,
                   NOM_CHAM='EPOT_ELEM',
                   VALE_CALC=3.9181920181477002E12,
                   ),
                _F(NUME_ORDRE=2,
                   TYPE_TEST='SOMM_ABS',
                   RESULTAT=MSLIN,
                   NOM_CHAM='EPOT_ELEM',
                   VALE_CALC=4.0279811614627002E12,
                   ),
                _F(NUME_ORDRE=3,
                   TYPE_TEST='SOMM_ABS',
                   RESULTAT=MSLIN,
                   NOM_CHAM='EPOT_ELEM',
                   VALE_CALC=4.1392806525972998E12,
                   ),
                _F(NUME_ORDRE=1,
                   TYPE_TEST='SOMM_ABS',
                   RESULTAT=MSLIN,
                   NOM_CHAM='EPSG_ELGA',
                   VALE_CALC=1.107865084359400E15,
                   ),
                _F(NUME_ORDRE=2,
                   TYPE_TEST='SOMM_ABS',
                   RESULTAT=MSLIN,
                   NOM_CHAM='EPSG_ELGA',
                   VALE_CALC=1.138942416378400E15,
                   ),
                _F(NUME_ORDRE=3,
                   TYPE_TEST='SOMM_ABS',
                   RESULTAT=MSLIN,
                   NOM_CHAM='EPSG_ELGA',
                   VALE_CALC=1.170448892938700E15,
                   ),
                _F(NUME_ORDRE=1,
                   TYPE_TEST='SOMM_ABS',
                   RESULTAT=MSLIN,
                   NOM_CHAM='EPSG_ELNO',
                   VALE_CALC=1.409751679171200E15,
                   ),
                _F(NUME_ORDRE=2,
                   TYPE_TEST='SOMM_ABS',
                   RESULTAT=MSLIN,
                   NOM_CHAM='EPSG_ELNO',
                   VALE_CALC=1.449347643359200E15,
                   ),
                _F(NUME_ORDRE=3,
                   TYPE_TEST='SOMM_ABS',
                   RESULTAT=MSLIN,
                   NOM_CHAM='EPSG_ELNO',
                   VALE_CALC=1.489492168340500E15,
                   ),
                _F(NUME_ORDRE=1,
                   TYPE_TEST='SOMM_ABS',
                   RESULTAT=MSLIN,
                   NOM_CHAM='EPME_ELNO',
                   VALE_CALC=9.0052785542013001E8,
                   ),
                _F(NUME_ORDRE=2,
                   TYPE_TEST='SOMM_ABS',
                   RESULTAT=MSLIN,
                   NOM_CHAM='EPME_ELNO',
                   VALE_CALC=9.1303314433370996E8,
                   ),
                _F(NUME_ORDRE=3,
                   TYPE_TEST='SOMM_ABS',
                   RESULTAT=MSLIN,
                   NOM_CHAM='EPME_ELNO',
                   VALE_CALC=9.2553711858165002E8,
                   ),
                _F(NUME_ORDRE=1,
                   TYPE_TEST='SOMM_ABS',
                   RESULTAT=MSLIN,
                   NOM_CHAM='EPME_ELGA',
                   VALE_CALC=7.9562785221996999E8,
                   ),
                _F(NUME_ORDRE=2,
                   TYPE_TEST='SOMM_ABS',
                   RESULTAT=MSLIN,
                   NOM_CHAM='EPME_ELGA',
                   VALE_CALC=8.0667891328281999E8,
                   ),
                _F(NUME_ORDRE=3,
                   TYPE_TEST='SOMM_ABS',
                   RESULTAT=MSLIN,
                   NOM_CHAM='EPME_ELGA',
                   VALE_CALC=8.1772887265128005E8,
                   ),
                ),
          )

# ----------------------------------------------------------------------------------

# VALIDATION DE PROJ_CHAMP/METHODE:'COLLOCATION' EN 3D :

MSLINP=PROJ_CHAMP(RESULTAT=MSLIN,     METHODE='COLLOCATION',
                     MODELE_1=MO,        MODELE_2=MO  )

#ENGENDRE_TEST (  CO = MSLINP, )

TEST_RESU(RESU=(_F(NUME_ORDRE=1,
                   TYPE_TEST='SOMM_ABS',
                   RESULTAT=MSLINP,
                   NOM_CHAM='DEPL',
                   VALE_CALC=1.1615754487017E9,
                   ),
                _F(NUME_ORDRE=2,
                   TYPE_TEST='SOMM_ABS',
                   RESULTAT=MSLINP,
                   NOM_CHAM='DEPL',
                   VALE_CALC=1.1777351688747001E9,
                   ),
                _F(NUME_ORDRE=3,
                   TYPE_TEST='SOMM_ABS',
                   RESULTAT=MSLINP,
                   NOM_CHAM='DEPL',
                   VALE_CALC=1.1938936671909001E9,
                   ),
                ),
          )

# ----------------------------------------------------------------------

CHAMNO1=CREA_CHAMP(  OPERATION='EXTR', TYPE_CHAM='NOEU_DEPL_R',
                     NOM_CHAM='DEPL', RESULTAT=MSLIN,
                       INST=0.7,
                       INTERPOL='LIN'
                        )

CHAMNO2=CREA_CHAMP(  OPERATION='EXTR', TYPE_CHAM='NOEU_DEPL_R',
                      NOM_CHAM='DEPL', RESULTAT=MSLIN,
                         TYPE_MAXI='NORM_TRAN',
                         TYPE_RESU='INST',
                         LIST_INST=LR1    )

CHAMEL1=CREA_CHAMP(  OPERATION='EXTR', TYPE_CHAM='ELGA_SIEF_R',
                     NOM_CHAM='SIEF_ELGA', RESULTAT=MSLIN,
                       INST=1.8,
                       INTERPOL='LIN'
                        )

CHAMEL2=CREA_CHAMP(  OPERATION='EXTR', TYPE_CHAM='ELGA_EPSI_R',
                     NOM_CHAM='EPSI_ELGA', RESULTAT=MSLIN,
                       INST=4.1,
                       INTERPOL='LIN'
                        )

CHAMEL3=CREA_CHAMP(  OPERATION='EXTR', TYPE_CHAM='ELNO_SIEF_R',
                     NOM_CHAM='SIGM_ELNO', RESULTAT=MSLIN,
                       INST=1.8,
                       INTERPOL='LIN'
                        )

CHAMEL4=CREA_CHAMP(  OPERATION='EXTR', TYPE_CHAM='ELNO_EPSI_R',
                     NOM_CHAM='EPSI_ELNO', RESULTAT=MSLIN,
                       INST=4.1,
                       INTERPOL='LIN'
                        )

CHAMEL5=CREA_CHAMP(  OPERATION='EXTR', TYPE_CHAM='ELNO_SIEF_R',
                      NOM_CHAM='SIEQ_ELNO', RESULTAT=MSLIN,
                        INST=3.4,
                        INTERPOL='LIN' )

CHAMEL6=CREA_CHAMP(  OPERATION='EXTR', TYPE_CHAM='ELGA_EPSI_R',
                     NOM_CHAM='EPSI_ELGA', RESULTAT=MSLIN,
                        TYPE_MAXI='MINI',
                        TYPE_RESU='VALE',
                         )

CHAMEL7=CALC_CHAM_ELEM(    MODELE=MO,
                              CARA_ELEM=CARA1,
                             GROUP_MA='GMA20',
                             OPTION='COOR_ELGA' )

#ENGENDRE_TEST (  CO = (CHAMNO1, CHAMNO2 ), )
#ENGENDRE_TEST (  CO = (CHAMEL1,CHAMEL2,CHAMEL3,CHAMEL4,CHAMEL5,CHAMEL6,CHAMEL7 ), )

TEST_RESU(CHAM_NO=_F(
                     TYPE_TEST='SOMM_ABS',
                     CHAM_GD=CHAMNO1,
                     VALE_CALC=1.1778058508771E+09,),
          )

TEST_RESU(CHAM_NO=_F(
                     TYPE_TEST='SOMM_ABS',
                     CHAM_GD=CHAMNO2,
                     VALE_CALC=1.2993562479674E+07,),
          )

TEST_RESU(CHAM_ELEM=_F(
                       TYPE_TEST='SOMM_ABS',
                       CHAM_GD=CHAMEL1,
                       VALE_CALC=1.4834035716961E9,),
          )

TEST_RESU(CHAM_ELEM=_F(
                       TYPE_TEST='SOMM_ABS',
                       CHAM_GD=CHAMEL2,
                       VALE_CALC=8.0410051413656998E8,),
          )

TEST_RESU(CHAM_ELEM=_F(
                       TYPE_TEST='SOMM_ABS',
                       CHAM_GD=CHAMEL3,
                       VALE_CALC=1.6535269369721E9,),
          )

TEST_RESU(CHAM_ELEM=_F(
                       TYPE_TEST='SOMM_ABS',
                       CHAM_GD=CHAMEL4,
                       VALE_CALC=9.1011534115121996E8,),
          )

TEST_RESU(CHAM_ELEM=_F(
                       TYPE_TEST='SOMM_ABS',
                       CHAM_GD=CHAMEL5,
                       VALE_CALC=5.392928697551E+09,),
          )

TEST_RESU(CHAM_ELEM=_F(
                       TYPE_TEST='SOMM_ABS',
                       CHAM_GD=CHAMEL6,
                       VALE_CALC=8.0754597086341E8,),
          )

TEST_RESU(CHAM_ELEM=_F(
                       TYPE_TEST='SOMM_ABS',
                       CHAM_GD=CHAMEL7,
                       VALE_CALC=1117.7090874406999,),
          )

# ----------------------------------------------------------------------------------

TABLE1=POST_ELEM( RESULTAT=MSLIN,
                 MASS_INER=( _F( GROUP_MA = 'GMA21'),
                             _F( TOUT = 'OUI'),
                             _F( MAILLE = 'M54')) )

TABLE2=POST_ELEM(         RESULTAT=MSLIN,
                              INST=5.5,
                          ENER_POT=(_F( TOUT = 'OUI',),
                                    _F(GROUP_MA = 'GMA21',),
                                    _F(MAILLE = ('M44', 'M99',))) )

#ENGENDRE_TEST (  CO=(TABLE1,TABLE2), )

TEST_TABLE(
           VALE_CALC=7.3376049871684995E5,
           NOM_PARA='MASSE',
           TYPE_TEST='SOMM_ABS',
           TABLE=TABLE1,
           )

TEST_TABLE(
           VALE_CALC=14.769511267226999,
           NOM_PARA='CDG_X',
           TYPE_TEST='SOMM_ABS',
           TABLE=TABLE1,
           )

TEST_TABLE(
           VALE_CALC=9.6366984221353995,
           NOM_PARA='CDG_Y',
           TYPE_TEST='SOMM_ABS',
           TABLE=TABLE1,
           )

TEST_TABLE(
           VALE_CALC=0.80230010830055998,
           NOM_PARA='CDG_Z',
           TYPE_TEST='SOMM_ABS',
           TABLE=TABLE1,
           )

TEST_TABLE(
           VALE_CALC=4.2186674210631E6,
           NOM_PARA='IX_G',
           TYPE_TEST='SOMM_ABS',
           TABLE=TABLE1,
           )

TEST_TABLE(
           VALE_CALC=7.7660403279903E6,
           NOM_PARA='IY_G',
           TYPE_TEST='SOMM_ABS',
           TABLE=TABLE1,
           )

TEST_TABLE(
           VALE_CALC=1.0596533434253E7,
           NOM_PARA='IZ_G',
           TYPE_TEST='SOMM_ABS',
           TABLE=TABLE1,
           )

TEST_TABLE(
           VALE_CALC=2.1999892729582E6,
           NOM_PARA='IXY_G',
           TYPE_TEST='SOMM_ABS',
           TABLE=TABLE1,
           )

TEST_TABLE(
           VALE_CALC=1.4243200124373999E6,
           NOM_PARA='IXZ_G',
           TYPE_TEST='SOMM_ABS',
           TABLE=TABLE1,
           )

TEST_TABLE(
           VALE_CALC=7.6405822064185003E5,
           NOM_PARA='IYZ_G',
           TYPE_TEST='SOMM_ABS',
           TABLE=TABLE1,
           )

TEST_TABLE(
           VALE_CALC=2.8230806603167001E6,
           NOM_PARA='IX_PRIN_G',
           TYPE_TEST='SOMM_ABS',
           TABLE=TABLE1,
           )

TEST_TABLE(
           VALE_CALC=8.8204854711633995E6,
           NOM_PARA='IY_PRIN_G',
           TYPE_TEST='SOMM_ABS',
           TABLE=TABLE1,
           )

TEST_TABLE(
           VALE_CALC=1.0937675051826E7,
           NOM_PARA='IZ_PRIN_G',
           TYPE_TEST='SOMM_ABS',
           TABLE=TABLE1,
           )

TEST_TABLE(
           VALE_CALC=73.269110500535007,
           NOM_PARA='ALPHA',
           TYPE_TEST='SOMM_ABS',
           TABLE=TABLE1,
           )

TEST_TABLE(
           VALE_CALC=56.289435629773998,
           NOM_PARA='BETA',
           TYPE_TEST='SOMM_ABS',
           TABLE=TABLE1,
           )

TEST_TABLE(
           VALE_CALC=43.572373101221999,
           NOM_PARA='GAMMA',
           TYPE_TEST='SOMM_ABS',
           TABLE=TABLE1,
           )

TEST_TABLE(
           VALE_CALC_I=8,
           NOM_PARA='NUME_ORDRE',
           TYPE_TEST='SOMM_ABS',
           TABLE=TABLE2,
           )

TEST_TABLE(
           VALE_CALC=4.368858294111E12,
           NOM_PARA='TOTALE',
           TYPE_TEST='SOMM_ABS',
           TABLE=TABLE2,
           )

TEST_TABLE(
           VALE_CALC=108.46272906908,
           NOM_PARA='POUR_CENT',
           TYPE_TEST='SOMM_ABS',
           TABLE=TABLE2,
           )

LR3=DEFI_LIST_REEL(         DEBUT=0.,
                         INTERVALLE=_F(  JUSQU_A = 10.,
                                      NOMBRE = 5) )

FO20=RECU_FONCTION(       RESULTAT=MSLIN,
                            NOM_CHAM='SIGM_ELNO',
                              MAILLE='M4',
                            GROUP_NO='GNO4',
                             NOM_CMP='SIXY',
                           LIST_INST=LR3,
                         INTERP_NUME='LIN',
                            NOM_PARA='INST',
                            NOM_RESU='VITE',
                            INTERPOL=('LIN',  'LIN',),
                          PROL_DROITE='LINEAIRE',
                         PROL_GAUCHE='CONSTANT'  )

FO21=RECU_FONCTION(        CHAM_GD=CHAMEL2,
                              MAILLE='M214',
                               POINT=2,
                             NOM_CMP='EPXX',
                            INTERPOL=('LIN', 'LIN',),
                          PROL_DROITE='CONSTANT',
                         PROL_GAUCHE='CONSTANT'  )

FO22=RECU_FONCTION(        CHAM_GD=CHAMNO1,
                             NOM_CMP='DZ',
                               NOEUD='N341',
                            INTERPOL=('LIN', 'LIN',),
                          PROL_DROITE='CONSTANT',
                         PROL_GAUCHE='CONSTANT'  )

FO23=CALC_FONCTION( COMB=(   _F(  FONCTION = FO12,
                                COEF = 5.1),
                         _F(  FONCTION = FO13,
                                COEF = -3.7),
                         _F(  FONCTION = FO14,
                                COEF = 0.8)),
                            NOM_PARA='INST',
                            NOM_RESU='VITE',
                          PROL_DROITE='LINEAIRE',
                         PROL_GAUCHE='LINEAIRE'  )

FO24=CALC_FONCTION(    DERIVE=_F(  FONCTION = FO20) )

FO25=CALC_FONCTION(    INTEGRE=_F(  FONCTION = FO23,
                                   COEF = 1.4) )

FO26=INFO_FONCTION(         MAX=_F(  FONCTION = FO23), )

FO27=CALC_FONCTION(    ENVELOPPE=_F(  FONCTION = ( FO12, FO13, FO14, ),
                                     CRITERE = 'INF') )

FO28=CALC_FONCTION(    ENVELOPPE=_F(  FONCTION = ( FO13, FO14, ),
                                     CRITERE = 'SUP') )

FIN( )
#
