# TITRE ESTIMATEUR D'ERREUR SUR UNE PLAQUE TROUEE EN TRACTION
# ======================================================================
# COPYRIGHT (C) 1991 - 2015  EDF R&D                  WWW.CODE-ASTER.ORG
# THIS PROGRAM IS FREE SOFTWARE; YOU CAN REDISTRIBUTE IT AND/OR MODIFY  
# IT UNDER THE TERMS OF THE GNU GENERAL PUBLIC LICENSE AS PUBLISHED BY  
# THE FREE SOFTWARE FOUNDATION; EITHER VERSION 2 OF THE LICENSE, OR     
# (AT YOUR OPTION) ANY LATER VERSION.                                                    
#                                                                       
# THIS PROGRAM IS DISTRIBUTED IN THE HOPE THAT IT WILL BE USEFUL, BUT   
# WITHOUT ANY WARRANTY; WITHOUT EVEN THE IMPLIED WARRANTY OF            
# MERCHANTABILITY OR FITNESS FOR A PARTICULAR PURPOSE. SEE THE GNU      
# GENERAL PUBLIC LICENSE FOR MORE DETAILS.                              
#                                                                       
# YOU SHOULD HAVE RECEIVED A COPY OF THE GNU GENERAL PUBLIC LICENSE     
# ALONG WITH THIS PROGRAM; IF NOT, WRITE TO EDF R&D CODE_ASTER,         
#    1 AVENUE DU GENERAL DE GAULLE, 92141 CLAMART CEDEX, FRANCE.        
# ======================================================================
#
# MODELISATION 1 : ELEMENTS MECANIQUE 3D HEXA8 PYRAM5 TETRA4
# ----------------------------------------------------------------------

DEBUT(CODE=_F(
              NIV_PUB_WEB='INTERNET',),
      DEBUG=_F(SDVERI='OUI',));


M=LIRE_MAILLAGE(FORMAT='MED',);

MO=AFFE_MODELE(MAILLAGE=M,
               
               AFFE=_F(TOUT='OUI',
                       PHENOMENE='MECANIQUE',
                       MODELISATION='3D',),);

MA=DEFI_MATERIAU(ELAS=_F(E=1000.,
                         NU=0.3,
                         ALPHA=0.,),
                 THER=_F(LAMBDA=0.,
                         RHO_CP=1.,),);

CM=AFFE_MATERIAU(MAILLAGE=M,
                 AFFE=_F(TOUT='OUI',
                         MATER=MA,),);

F1 = FORMULE(VALE=
"""
1.-(1.5*cos(2.*atan2(Y,4.))+cos(4.*atan2(Y,4.))) /(16.+Y*Y)
                            +(3.*cos(4.*atan2(Y,4.)))/(2.*(16.+Y*Y)**2)
              """,
             NOM_PARA='Y',);

F2 = FORMULE(VALE=
"""
-(0.5*sin(2.*atan2(Y,4.))+sin(4.*atan2(Y,4.))) /(16.+Y*Y)
                             +(3.*sin(4.*atan2(Y,4.)))/(2.*(16.+Y*Y)**2)
              """,
             NOM_PARA='Y',);

F3 = FORMULE(VALE=
"""
-(0.5*sin(2.*atan2(4.,X))+sin(4.*atan2(4.,X))) /(16.+X*X)
                             +(3.*sin(4.*atan2(4.,X)))/(2.*(16.+X*X)**2)
              """,
             NOM_PARA='X',);

F4 = FORMULE(VALE=
"""
-(0.5*cos(2.*atan2(4.,X))-cos(4.*atan2(4.,X))) /(16.+X*X)
                             -(3.*cos(4.*atan2(4.,X)))/(2.*(16.+X*X)**2)
              """,
             NOM_PARA='X',);

SIXX = FORMULE(VALE="""
1.-(1.5*cos(2.*TH)+cos(4.*TH)) /(R*R)
          +(1.5*cos(4.*TH))/(R**4)
       """,
               NOM_PARA=('R','TH',),);

SIYY = FORMULE(VALE="""
-(0.5*cos(2.*TH)-cos(4.*TH)) /(R*R)
          -(1.5*cos(4.*TH))/(R**4)
              """,
               NOM_PARA=('R','TH',),);

SIXY = FORMULE(VALE="""
-(0.5*sin(2.*TH)+sin(4.*TH)) /(R*R)
          +(1.5*sin(4.*TH))/(R**4)
              """,
               NOM_PARA=('R','TH',),);

CH1=AFFE_CHAR_MECA(MODELE=MO,
                   FACE_IMPO=(_F(GROUP_MA='GRMA1',
                                 DY=0.,),
                              _F(GROUP_MA='GRMA2',
                                 DX=0.,),
                              _F(GROUP_MA='GRMA5',
                                DZ=0.,),
                             ),
                 );

CH2=AFFE_CHAR_MECA_F(MODELE=MO,
                     FORCE_FACE=(_F(GROUP_MA='GRMA3',
                                    FX=F1,
                                    FY=F2,),
                                 _F(GROUP_MA='GRMA4',
                                    FX=F3,
                                    FY=F4,),),);

RESU=MECA_STATIQUE(MODELE=MO,
                   CHAM_MATER=CM,
                   EXCIT=(_F(CHARGE=CH1,),
                          _F(CHARGE=CH2,),),);

RESU=CALC_ERREUR(reuse =RESU,
                 RESULTAT=RESU,
                 TOUT_ORDRE='OUI',
                 OPTION=('ERZ1_ELEM','ERME_ELEM','ERME_ELNO',),);

SIGZZ1=CREA_CHAMP(TYPE_CHAM='NOEU_SIEF_R',
                  OPERATION='EXTR',
                  RESULTAT=RESU,
                  NOM_CHAM='SIZ1_NOEU',
                  NUME_ORDRE=1,);


TEST_RESU(CHAM_NO=(_F(NOEUD='N17',
                      CRITERE='RELATIF',
                      NOM_CMP='SIXX',
                      PRECISION=0.059999999999999998,
                      CHAM_GD=SIGZZ1,
                      VALE_CALC=3.142209311,
                      VALE_REFE=SIXX(1.0,1.57079632679,),
                      REFERENCE='ANALYTIQUE',),
                   _F(NOEUD='N145',
                      CRITERE='RELATIF',
                      NOM_CMP='SIXX',
                      PRECISION=0.014999999999999999,
                      CHAM_GD=SIGZZ1,
                      VALE_CALC=1.162575632,
                      VALE_REFE=SIXX(2.0,0.785398163397,),
                      REFERENCE='ANALYTIQUE',),
                   _F(NOEUD='N341',
                      CRITERE='RELATIF',
                      NOM_CMP='SIXX',
                      PRECISION=1.E-2,
                      CHAM_GD=SIGZZ1,
                      VALE_CALC=1.028825330,
                      VALE_REFE=SIXX(5.656854,0.785398163397,),
                      REFERENCE='ANALYTIQUE',),
                   _F(NOEUD='N1',
                      CRITERE='ABSOLU',
                      NOM_CMP='SIXX',
                      PRECISION=0.29999999999999999,
                      CHAM_GD=SIGZZ1,
                      VALE_CALC=-0.066791494,
                      VALE_REFE=SIXX(1.0,0.0,),
                      REFERENCE='ANALYTIQUE',),
                   _F(NOEUD='N17',
                      CRITERE='ABSOLU',
                      NOM_CMP='SIYY',
                      PRECISION=0.29999999999999999,
                      CHAM_GD=SIGZZ1,
                      VALE_CALC=0.130728849,
                      VALE_REFE=SIYY(1.0,1.57079632679,),
                      REFERENCE='ANALYTIQUE',),
                   _F(NOEUD='N145',
                      CRITERE='RELATIF',
                      NOM_CMP='SIYY',
                      PRECISION=0.040000000000000001,
                      CHAM_GD=SIGZZ1,
                      VALE_CALC=-0.155204161,
                      VALE_REFE=SIYY(2.0,0.785398163397,),
                      REFERENCE='ANALYTIQUE',),
                   _F(NOEUD='N341',
                      CRITERE='RELATIF',
                      NOM_CMP='SIYY',
                      PRECISION=0.044999999999999998,
                      CHAM_GD=SIGZZ1,
                      VALE_CALC=-0.028478931,
                      VALE_REFE=SIYY(5.656854,0.785398163397,),
                      REFERENCE='ANALYTIQUE',),
                   _F(NOEUD='N1',
                      CRITERE='RELATIF',
                      NOM_CMP='SIYY',
                      PRECISION=0.14999999999999999,
                      CHAM_GD=SIGZZ1,
                      VALE_CALC=-1.115470586,
                      VALE_REFE=SIYY(1.0,0.0,),
                      REFERENCE='ANALYTIQUE',),
                   _F(NOEUD='N17',
                      CRITERE='ABSOLU',
                      NOM_CMP='SIXY',
                      PRECISION=0.10000000000000001,
                      CHAM_GD=SIGZZ1,
                      VALE_CALC=-1.67958187E-03,
                      VALE_REFE=SIXY(1.0,1.57079632679,),
                      REFERENCE='ANALYTIQUE',),
                   _F(NOEUD='N145',
                      CRITERE='RELATIF',
                      NOM_CMP='SIXY',
                      PRECISION=0.070000000000000007,
                      CHAM_GD=SIGZZ1,
                      VALE_CALC=-0.122978576,
                      VALE_REFE=SIXY(2.0,0.785398163397,),
                      REFERENCE='ANALYTIQUE',),
                   _F(NOEUD='N341',
                      CRITERE='RELATIF',
                      NOM_CMP='SIXY',
                      PRECISION=0.089999999999999997,
                      CHAM_GD=SIGZZ1,
                      VALE_CALC=-0.016745787,
                      VALE_REFE=SIXY(5.656854,0.785398163397,),
                      REFERENCE='ANALYTIQUE',),
                   _F(NOEUD='N1',
                      CRITERE='ABSOLU',
                      NOM_CMP='SIXY',
                      PRECISION=0.050000000000000003,
                      CHAM_GD=SIGZZ1,
                      VALE_CALC=-0.011906322,
                      VALE_REFE=SIXY(1.0,0.0,),
                      REFERENCE='ANALYTIQUE',),
                   ),
          )

IMPR_RESU(MODELE=MO,
          RESU=(_F(RESULTAT=RESU,
                   NOM_CHAM='SIZ1_NOEU',
                   NUME_ORDRE=1,
                   VALE_MAX='OUI',
                   VALE_MIN='OUI',
                   SOUS_TITRE='CONTRAINTES AUX NOEUDS ZZ1',),
                _F(RESULTAT=RESU,
                   NOM_CHAM='ERZ1_ELEM',
                   NUME_ORDRE=1,
                   VALE_MAX='OUI',
                   VALE_MIN='OUI',
                   SOUS_TITRE='ESTIMATEUR DERREUR ZZ1',),
                _F(RESULTAT=RESU,
                   NOM_CHAM='ERZ1_ELEM',
                   NUME_ORDRE=1,
                   NOM_CMP='NUEST',
                   BORNE_INF=10.0,
                   SOUS_TITRE=('ESTIMATEUR DERREUR ZZ1:LISTE DES MAILLES OU LERREUR RELATIVE ','EST SUPERIEURE A 10 POUR CENT',),),
                _F(RESULTAT=RESU,
                   NOM_CHAM='ERME_ELEM',
                   NUME_ORDRE=1,
                   VALE_MAX='OUI',
                   VALE_MIN='OUI',
                   SOUS_TITRE='ESTIMATEUR DERREUR EN RESIDU',),
                _F(RESULTAT=RESU,
                   NOM_CHAM='ERME_ELEM',
                   NUME_ORDRE=1,
                   NOM_CMP='NUEST',
                   BORNE_INF=10.0,
                   SOUS_TITRE=
                   ('ESTIMATEUR DERREUR EN RESIDU :LISTE DES MAILLES OU LERREUR  ',
                                'RELATIVE EST SUPERIEURE A 10 POUR CENT',),),),);


TEST_RESU(RESU=(_F(NUME_ORDRE=1,
                   POINT=1,
                   RESULTAT=RESU,
                   NOM_CHAM='ERZ1_ELEM',
                   NOM_CMP='NUEST',
                   VALE_CALC=7.6851959877089,
                   VALE_REFE=0.0,
                   PRECISION=7.7,
                   REFERENCE='ANALYTIQUE',
                   CRITERE='ABSOLU',
                   MAILLE='M6727',),
                _F(NUME_ORDRE=1,
                   POINT=1,
                   RESULTAT=RESU,
                   NOM_CHAM='ERME_ELEM',
                   NOM_CMP='ERREST',
                   VALE_CALC= 2.49626024E-03,
                   VALE_REFE=0.0,
                   REFERENCE='ANALYTIQUE',
                   CRITERE='ABSOLU',
                   PRECISION=0.02,
                   MAILLE='M6727',),
                _F(NUME_ORDRE=1,
                   POINT=1,
                   RESULTAT=RESU,
                   NOM_CHAM='ERME_ELEM',
                   NOM_CMP='NUEST',
                   VALE_CALC=12.910076253,
                   VALE_REFE=0.0,
                   REFERENCE='ANALYTIQUE',
                   CRITERE='ABSOLU',
                   PRECISION=23.0,
                   MAILLE='M6727',),
                _F(NUME_ORDRE=1,
                   POINT=1,
                   RESULTAT=RESU,
                   NOM_CHAM='ERME_ELNO',
                   NOM_CMP='ERREST',
                   VALE_CALC= 2.49626024E-03,
                   VALE_REFE=0.0,
                   REFERENCE='ANALYTIQUE',
                   CRITERE='ABSOLU',
                   PRECISION=6.0000000000000001E-3,
                   MAILLE='M6727',),
                _F(NUME_ORDRE=1,
                   POINT=1,
                   RESULTAT=RESU,
                   NOM_CHAM='ERME_ELNO',
                   NOM_CMP='NUEST',
                   VALE_CALC=12.910076253,
                   VALE_REFE=0.0,
                   REFERENCE='ANALYTIQUE',
                   CRITERE='ABSOLU',
                   PRECISION=13.5,
                   MAILLE='M6727',),
                ),
          )

FIN();
