# MODIF  DATE 22/10/2007   AUTEUR PELLET J.PELLET 
# TITRE CYLINDRE EN INCOMPRESSIBLE (PENTA15 HEXA20)
#            CONFIGURATION MANAGEMENT OF EDF VERSION
# ======================================================================
# COPYRIGHT (C) 1991 - 2001  EDF R&D                  WWW.CODE-ASTER.ORG
# THIS PROGRAM IS FREE SOFTWARE; YOU CAN REDISTRIBUTE IT AND/OR MODIFY
# IT UNDER THE TERMS OF THE GNU GENERAL PUBLIC LICENSE AS PUBLISHED BY
# THE FREE SOFTWARE FOUNDATION; EITHER VERSION 2 OF THE LICENSE, OR
# (AT YOUR OPTION) ANY LATER VERSION.
#
# THIS PROGRAM IS DISTRIBUTED IN THE HOPE THAT IT WILL BE USEFUL, BUT
# WITHOUT ANY WARRANTY; WITHOUT EVEN THE IMPLIED WARRANTY OF
# MERCHANTABILITY OR FITNESS FOR A PARTICULAR PURPOSE. SEE THE GNU
# GENERAL PUBLIC LICENSE FOR MORE DETAILS.
#
# YOU SHOULD HAVE RECEIVED A COPY OF THE GNU GENERAL PUBLIC LICENSE
# ALONG WITH THIS PROGRAM; IF NOT, WRITE TO EDF R&D CODE_ASTER,
#    1 AVENUE DU GENERAL DE GAULLE, 92141 CLAMART CEDEX, FRANCE.
# ======================================================================
# CAS_TEST__: SSLV130A
#
# ----------------------------------------------------------------------
#
# CYLINDRE CREUX EN INCOMPRESSIBLE (NU=0.4999)
# SOUS PRESSION INTERNE (60 MPA)
#
# MODELISATION : ELEMENTS MECANIQUE 3D INCOMP.(HEXA20+QUAD8)
# MAILLAGE     : GIBI
# ----------------------------------------------------------------------
# GROUPES DE NOEUDS ET MAILLES :
# GRNO: A B C D E F  NOEUMI
# GRMA: FACEEF     FACEAE   FACEAB   FACSUP   FACINF VOLUME
# ----------------------------------------------------------------------
#

DEBUT(CODE=_F(NOM='SSLV130A',NIV_PUB_WEB='INTERNET'),DEBUG=_F(SDVERI='OUI'))
PRE_GIBI ();
M=LIRE_MAILLAGE(VERI_MAIL=_F(VERIF='OUI'),   )

MO=AFFE_MODELE( MAILLAGE=M,
                VERIF='MAILLE',
                AFFE=_F(  GROUP_MA = ('VOLUME','FACEEF','FACEAE','FACEAB','FACSUP','FACINF'),
                          PHENOMENE = 'MECANIQUE',
                          MODELISATION = '3D_INCO' ))

M=MODI_MAILLAGE( reuse=M,
                 MAILLAGE=M,
                 ORIE_PEAU_3D=_F(  GROUP_MA = ( 'FACEEF', 'FACEAE', ),  )
                      )
M = DEFI_GROUP( reuse         = M,
                MAILLAGE      = M,
                CREA_GROUP_NO = _F (GROUP_MA = ('FACEAB','FACSUP','FACINF'),),)
MA=DEFI_MATERIAU( ELAS=_F(  E = 200000.,
                            NU = 0.4999,
                            ALPHA = 0.,    ))

CM=AFFE_MATERIAU( MAILLAGE=M,
                  AFFE=_F(  TOUT = 'OUI',
                  MATER = MA,            ))

CH=AFFE_CHAR_MECA(MODELE=MO,
                  DDL_IMPO=(
                         _F(  GROUP_NO = 'FACEAB',   DX = 0.,     ),
                         _F(  GROUP_NO = 'FACSUP',   DZ = 0.,     ),
                         _F(  GROUP_NO = 'FACINF',   DZ = 0.,     )),
                  FACE_IMPO=_F(  GROUP_MA = 'FACEEF',   DNOR = 0.,   ),
                  PRES_REP =_F(  GROUP_MA = 'FACEAE',   PRES = 60., )
                  )
INSTANTS = DEFI_LIST_REEL (
             DEBUT= 0.,
             INTERVALLE= _F(JUSQU_A= 1.,
                            NOMBRE=1),
             ) ;


RAMPE    = DEFI_FONCTION (
             NOM_PARA= 'INST',
             VALE    = (
               0., 0.,
               1., 1.,
               ),
             ) ;
EVOL   = STAT_NON_LINE (
             MODELE= MO,
             CHAM_MATER= CM,
             EXCIT= (_F(CHARGE= CH,
                        FONC_MULT= RAMPE),
                     ),
             INCREMENT= _F(
               LIST_INST= INSTANTS,
               ),
             COMP_INCR= _F(
               RELATION= 'ELAS',
               ),
             SOLVEUR=_F(RENUM='MD'),
             NEWTON= _F(
               REAC_ITER= 1,
               ),
            ) ;
EVOL = CALC_ELEM (reuse=EVOL,
              RESULTAT= EVOL,
              OPTION= (
               'EPSI_ELNO_DEPL',
               'SIEF_ELNO_ELGA',
               'EQUI_ELNO_SIGM',
               'EQUI_ELNO_EPSI'
           ),   ) ;

EVOL = CALC_NO (reuse=EVOL,
                RESULTAT= EVOL,
                 OPTION  = (
               'EPSI_NOEU_DEPL',
               'SIEF_NOEU_ELGA',
               'EQUI_NOEU_EPSI',
               'EQUI_NOEU_SIGM',
                ),
              ) ;
#--------------------------------------------------------------
#       COMPARAISON DES RESULTATS A LA SOLUTION ANALYTIQUE
#        POUR UN  SOLIDE INCOMPRESSIBLE NU = 0.5
#---------------------------------------------------------------
TEST_RESU(RESU=(
#     DEPLACEMENTS
         _F(  RESULTAT = EVOL, INST = 1., NOM_CHAM = 'DEPL',  CRITERE = 'ABSOLU',   PRECISION = 1.E-5,
         GROUP_NO = 'A',     NOM_CMP = 'DX',            VALE = 0., REFERENCE = 'ANALYTIQUE'),
         _F(  RESULTAT = EVOL, INST = 1., NOM_CHAM = 'DEPL',  CRITERE = 'RELATIF',   PRECISION = 1.E-3,
         GROUP_NO = 'A',     NOM_CMP = 'DY',            VALE = 6.E-5, REFERENCE = 'ANALYTIQUE'),

        _F(  RESULTAT = EVOL, INST = 1., NOM_CHAM = 'DEPL',  CRITERE = 'RELATIF',   PRECISION = 1.E-3,
         GROUP_NO = 'F',     NOM_CMP = 'DX',            VALE = -2.1213203E-5, REFERENCE = 'ANALYTIQUE'),
        _F(  RESULTAT = EVOL, INST = 1., NOM_CHAM = 'DEPL',  CRITERE = 'RELATIF',   PRECISION = 1.E-3,
         GROUP_NO = 'F',     NOM_CMP = 'DY',            VALE =  2.1213203E-5, REFERENCE = 'ANALYTIQUE'),
),)
TEST_RESU(RESU=(
    # DEFORMATIONS
           _F( RESULTAT = EVOL, INST = 1., NOM_CHAM = 'EPSI_NOEU_DEPL',   CRITERE = 'RELATIF',    PRECISION = 5.E-3,
GROUP_NO = 'A',    NOM_CMP = 'EPXX',      VALE = 6.0E-4, REFERENCE = 'ANALYTIQUE'),
           _F( RESULTAT = EVOL, INST = 1., NOM_CHAM = 'EPSI_NOEU_DEPL',   CRITERE = 'RELATIF',    PRECISION = 5.E-3,
 GROUP_NO = 'A',   NOM_CMP = 'EPYY',      VALE = -6.0E-4, REFERENCE = 'ANALYTIQUE'),
           _F( RESULTAT = EVOL, INST = 1., NOM_CHAM = 'EPSI_NOEU_DEPL',    CRITERE = 'ABSOLU',    PRECISION = 1.E-5,
 GROUP_NO = 'A',   NOM_CMP = 'EPZZ',      VALE = 0., REFERENCE = 'ANALYTIQUE'),
           _F(  RESULTAT = EVOL, INST = 1., NOM_CHAM = 'EPSI_NOEU_DEPL',    CRITERE = 'ABSOLU',     PRECISION = 1.E-5,
 GROUP_NO = 'A',   NOM_CMP = 'EPXY',      VALE = 0., REFERENCE = 'ANALYTIQUE'),


           _F( RESULTAT = EVOL, INST = 1., NOM_CHAM = 'EPSI_NOEU_DEPL',    CRITERE = 'ABSOLU',    PRECISION = 1.E-5,
 GROUP_NO = 'F',   NOM_CMP = 'EPXX',      VALE = 0., REFERENCE = 'ANALYTIQUE'),
           _F( RESULTAT = EVOL, INST = 1., NOM_CHAM = 'EPSI_NOEU_DEPL',   CRITERE = 'ABSOLU',    PRECISION = 1.E-5,
 GROUP_NO = 'F',   NOM_CMP = 'EPYY',      VALE = 0., REFERENCE = 'ANALYTIQUE'),
           _F( RESULTAT = EVOL, INST = 1., NOM_CHAM = 'EPSI_NOEU_DEPL',   CRITERE = 'RELATIF',    PRECISION = 5.E-3,
 GROUP_NO = 'F',   NOM_CMP = 'EPXY',      VALE = 1.5E-4, REFERENCE = 'ANALYTIQUE'))
           )

TEST_RESU(RESU=(
    # CONTRAINTES
           _F( RESULTAT = EVOL, INST = 1., NOM_CHAM = 'SIEF_NOEU_ELGA',   CRITERE = 'RELATIF',    PRECISION = 5.E-3,
 GROUP_NO = 'A',   NOM_CMP = 'SIXX',      VALE = 100., REFERENCE = 'ANALYTIQUE'),
           _F( RESULTAT = EVOL, INST = 1., NOM_CHAM = 'SIEF_NOEU_ELGA',   CRITERE = 'RELATIF',    PRECISION = 5.E-3,
 GROUP_NO = 'A',   NOM_CMP = 'SIYY',      VALE = -60., REFERENCE = 'ANALYTIQUE'),
           _F( RESULTAT = EVOL, INST = 1., NOM_CHAM = 'SIEF_NOEU_ELGA',    CRITERE = 'RELATIF',    PRECISION = 5.E-3,
 GROUP_NO = 'A',   NOM_CMP = 'SIZZ',      VALE = 20., REFERENCE = 'ANALYTIQUE'),
           _F(  RESULTAT = EVOL, INST = 1., NOM_CHAM = 'SIEF_NOEU_ELGA',    CRITERE = 'ABSOLU',     PRECISION = 5.E-2,
 GROUP_NO = 'A',   NOM_CMP = 'SIXY',      VALE = 0., REFERENCE = 'ANALYTIQUE'),


           _F( RESULTAT = EVOL, INST = 1., NOM_CHAM = 'SIEF_NOEU_ELGA',    CRITERE = 'RELATIF',    PRECISION = 5.E-3,
 GROUP_NO = 'F', NOM_CMP = 'SIXX',      VALE = 20., REFERENCE = 'ANALYTIQUE'),
           _F( RESULTAT = EVOL, INST = 1., NOM_CHAM = 'SIEF_NOEU_ELGA',   CRITERE = 'RELATIF',    PRECISION = 5.E-3,
 GROUP_NO = 'F', NOM_CMP = 'SIYY',      VALE = 20., REFERENCE = 'ANALYTIQUE'),
           _F(  RESULTAT = EVOL, INST = 1., NOM_CHAM = 'SIEF_NOEU_ELGA',   CRITERE = 'RELATIF',    PRECISION = 5.E-3,
 GROUP_NO = 'F', NOM_CMP = 'SIZZ',      VALE = 20., REFERENCE = 'ANALYTIQUE'),
           _F( RESULTAT = EVOL, INST = 1., NOM_CHAM = 'SIEF_NOEU_ELGA',   CRITERE = 'RELATIF',    PRECISION = 5.E-3,
 GROUP_NO = 'F', NOM_CMP = 'SIXY',      VALE = 20., REFERENCE = 'ANALYTIQUE'))
          )
TEST_RESU(RESU=(
    # DEFORMATIONS EQUIVALENTES
           _F( RESULTAT = EVOL, INST = 1., NOM_CHAM = 'EQUI_NOEU_EPSI',   CRITERE = 'RELATIF',    PRECISION = 5.E-3,
 GROUP_NO = 'A',    MAILLE = 'M1',      NOM_CMP = 'INVA_2',      VALE = 6.9282E-4, REFERENCE='ANALYTIQUE'),
           _F( RESULTAT = EVOL, INST = 1., NOM_CHAM = 'EQUI_NOEU_EPSI',   CRITERE = 'RELATIF',    PRECISION = 5.E-3,
 GROUP_NO = 'A',    MAILLE = 'M1',      NOM_CMP = 'PRIN_1',      VALE = -6.E-4, REFERENCE='ANALYTIQUE'),
            _F( RESULTAT = EVOL, INST = 1., NOM_CHAM = 'EQUI_NOEU_EPSI',   CRITERE = 'ABSOLU',    PRECISION = 1.E-5,
 GROUP_NO = 'A',    MAILLE = 'M1',      NOM_CMP = 'PRIN_2',      VALE = 0., REFERENCE='ANALYTIQUE'),
           _F( RESULTAT = EVOL, INST = 1., NOM_CHAM = 'EQUI_NOEU_EPSI',   CRITERE = 'RELATIF',    PRECISION = 5.E-3,
 GROUP_NO = 'A',    MAILLE = 'M1',      NOM_CMP = 'PRIN_3',      VALE = 6.E-4, REFERENCE='ANALYTIQUE'),
),)

TEST_RESU(RESU=(
    # CONTRAINTES EQUIVALENTES
           _F( RESULTAT = EVOL, INST = 1., NOM_CHAM = 'EQUI_NOEU_SIGM',   CRITERE = 'RELATIF',    PRECISION = 5.E-3,
 GROUP_NO = 'A',    MAILLE = 'M1',      NOM_CMP = 'VMIS',      VALE = 138.5641, REFERENCE='ANALYTIQUE'),
           _F( RESULTAT = EVOL, INST = 1., NOM_CHAM = 'EQUI_NOEU_SIGM',   CRITERE = 'RELATIF',    PRECISION = 5.E-3,
 GROUP_NO = 'A',    MAILLE = 'M1',      NOM_CMP = 'TRESCA',      VALE = 160., REFERENCE='ANALYTIQUE'),
           _F( RESULTAT = EVOL, INST = 1., NOM_CHAM = 'EQUI_NOEU_SIGM',   CRITERE = 'RELATIF',    PRECISION = 5.E-3,
 GROUP_NO = 'A',    MAILLE = 'M1',      NOM_CMP = 'PRIN_1',      VALE = -60., REFERENCE='ANALYTIQUE'),
            _F( RESULTAT = EVOL, INST = 1., NOM_CHAM = 'EQUI_NOEU_SIGM',   CRITERE = 'RELATIF',    PRECISION = 5.E-3,
 GROUP_NO = 'A',    MAILLE = 'M1',      NOM_CMP = 'PRIN_2',      VALE = 20., REFERENCE='ANALYTIQUE'),
           _F( RESULTAT = EVOL, INST = 1., NOM_CHAM = 'EQUI_NOEU_SIGM',   CRITERE = 'RELATIF',    PRECISION = 5.E-3,
 GROUP_NO = 'A',    MAILLE = 'M1',      NOM_CMP = 'PRIN_3',      VALE = 100., REFERENCE='ANALYTIQUE'),
           _F( RESULTAT = EVOL, INST = 1., NOM_CHAM = 'EQUI_NOEU_SIGM',   CRITERE = 'RELATIF',    PRECISION = 5.E-3,
 GROUP_NO = 'A',    MAILLE = 'M1',      NOM_CMP = 'VMIS_SG',      VALE = 138.5641, REFERENCE='ANALYTIQUE'),
),)



#-----------------------------------------------------------------
#  TEST IDENTIQUE EN IMPOSANT LA CONDITION TR(EPS)=0
#------------------------------------------------------------------
M = DEFI_GROUP(reuse = M,
               MAILLAGE=M,
               CREA_GROUP_NO =_F(NOM = 'MSOMMET',
                                 CRIT_NOEUD='SOMMET',
                                 GROUP_MA = 'VOLUME'))

CH_AC1=AFFE_CHAR_CINE(MODELE=MO, INFO=2,
                  MECA_IMPO=(
                         _F(  GROUP_NO = 'FACEAB',     DX = 0., ),
                         _F(  GROUP_NO = 'FACSUP',     DZ = 0., ),
                         _F(  GROUP_NO = 'FACINF',     DZ = 0., ),),
                  )
CH_AC2=AFFE_CHAR_CINE(MODELE=MO, INFO=2,
                  MECA_IMPO=(
                         _F(  GROUP_NO = 'MSOMMET',  GONF = 0., ) ),
                  )
CH2=AFFE_CHAR_MECA(MODELE=MO,
                  FACE_IMPO=_F(  GROUP_MA = 'FACEEF',   DNOR = 0.,   ),
                  PRES_REP =_F(  GROUP_MA = 'FACEAE',   PRES = 60., )
                  )
EVOL2   = STAT_NON_LINE (
             MODELE= MO,
             CHAM_MATER= CM,
             EXCIT= (_F(CHARGE= CH_AC1,),
                     _F(CHARGE= CH_AC2,),
                     _F(CHARGE= CH2,
                        FONC_MULT= RAMPE),
                     ),
             INCREMENT= _F(
               LIST_INST= INSTANTS,
               ),
             COMP_INCR= _F(
               RELATION= 'ELAS',
               ),
             SOLVEUR=_F(RENUM='MD'),
             NEWTON= _F(
               REAC_ITER= 1,
               ),
            ) ;

IMPR_RESU( RESU=_F( RESULTAT= EVOL2, NOM_CHAM='DEPL', INST = 1., ) , )

EVOL2 = CALC_ELEM (reuse=EVOL2,
              RESULTAT= EVOL2,

              OPTION= (
               'EPSI_ELNO_DEPL',
               'SIEF_ELNO_ELGA',
               'EQUI_ELNO_SIGM',
               'EQUI_ELNO_EPSI',
               'ERRE_ELEM_SIGM',
               'ERRE_ELNO_ELEM',
           ),   ) ;

EVOL2 = CALC_NO (reuse=EVOL2,
                RESULTAT= EVOL2,
                 OPTION  = (
               'EPSI_NOEU_DEPL',
               'SIEF_NOEU_ELGA',
               'EQUI_NOEU_EPSI',
               'EQUI_NOEU_SIGM',
                ),) ;
TEST_RESU(RESU=(
#     DEPLACEMENTS
         _F(  RESULTAT = EVOL2, INST = 1., NOM_CHAM = 'DEPL',  CRITERE = 'ABSOLU',   PRECISION = 1.E-5,
         GROUP_NO = 'A',     NOM_CMP = 'DX',            VALE = 0., REFERENCE = 'ANALYTIQUE'),
         _F(  RESULTAT = EVOL2, INST = 1., NOM_CHAM = 'DEPL',  CRITERE = 'RELATIF',   PRECISION = 1.E-3,
         GROUP_NO = 'A',     NOM_CMP = 'DY',            VALE = 6.E-5, REFERENCE = 'ANALYTIQUE'),

        _F(  RESULTAT = EVOL2, INST = 1., NOM_CHAM = 'DEPL',  CRITERE = 'RELATIF',   PRECISION = 1.E-3,
         GROUP_NO = 'F',     NOM_CMP = 'DX',            VALE = -2.1213203E-5, REFERENCE = 'ANALYTIQUE'),
        _F(  RESULTAT = EVOL2, INST = 1., NOM_CHAM = 'DEPL',  CRITERE = 'RELATIF',   PRECISION = 1.E-3,
         GROUP_NO = 'F',     NOM_CMP = 'DY',            VALE =  2.1213203E-5, REFERENCE = 'ANALYTIQUE'),
),)
TEST_RESU(RESU=(
    # DEFORMATIONS
           _F( RESULTAT = EVOL2, INST = 1., NOM_CHAM = 'EPSI_NOEU_DEPL',   CRITERE = 'RELATIF',    PRECISION = 5.E-3,
GROUP_NO = 'A',    NOM_CMP = 'EPXX',      VALE = 6.0E-4, REFERENCE = 'ANALYTIQUE'),
           _F( RESULTAT = EVOL2, INST = 1., NOM_CHAM = 'EPSI_NOEU_DEPL',   CRITERE = 'RELATIF',    PRECISION = 5.E-3,
 GROUP_NO = 'A',   NOM_CMP = 'EPYY',      VALE = -6.0E-4, REFERENCE = 'ANALYTIQUE'),
           _F( RESULTAT = EVOL2, INST = 1., NOM_CHAM = 'EPSI_NOEU_DEPL',    CRITERE = 'ABSOLU',    PRECISION = 1.E-5,
 GROUP_NO = 'A',   NOM_CMP = 'EPZZ',      VALE = 0., REFERENCE = 'ANALYTIQUE'),
           _F(  RESULTAT = EVOL2, INST = 1., NOM_CHAM = 'EPSI_NOEU_DEPL',    CRITERE = 'ABSOLU',     PRECISION = 1.E-5,
 GROUP_NO = 'A',   NOM_CMP = 'EPXY',      VALE = 0., REFERENCE = 'ANALYTIQUE'),

           _F( RESULTAT = EVOL2, INST = 1., NOM_CHAM = 'EPSI_NOEU_DEPL',    CRITERE = 'ABSOLU',    PRECISION = 1.E-5,
 GROUP_NO = 'F',   NOM_CMP = 'EPXX',      VALE = 0., REFERENCE = 'ANALYTIQUE'),
           _F( RESULTAT = EVOL2, INST = 1., NOM_CHAM = 'EPSI_NOEU_DEPL',   CRITERE = 'ABSOLU',    PRECISION = 1.E-5,
 GROUP_NO = 'F',   NOM_CMP = 'EPYY',      VALE = 0., REFERENCE = 'ANALYTIQUE'),
           _F( RESULTAT = EVOL2, INST = 1., NOM_CHAM = 'EPSI_NOEU_DEPL',   CRITERE = 'RELATIF',    PRECISION = 5.E-3,
 GROUP_NO = 'F',   NOM_CMP = 'EPXY',      VALE = 1.5E-4, REFERENCE = 'ANALYTIQUE'))
           )
TEST_RESU(RESU=(
    # CONTRAINTES
           _F( RESULTAT = EVOL2, INST = 1., NOM_CHAM = 'SIEF_NOEU_ELGA',   CRITERE = 'RELATIF',    PRECISION = 5.E-3,
 GROUP_NO = 'A',    NOM_CMP = 'SIXX',      VALE = 100., REFERENCE = 'ANALYTIQUE'),
           _F( RESULTAT = EVOL2, INST = 1., NOM_CHAM = 'SIEF_NOEU_ELGA',   CRITERE = 'RELATIF',    PRECISION = 5.E-3,
 GROUP_NO = 'A',    NOM_CMP = 'SIYY',      VALE = -60., REFERENCE = 'ANALYTIQUE'),
           _F( RESULTAT = EVOL2, INST = 1., NOM_CHAM = 'SIEF_NOEU_ELGA',    CRITERE = 'RELATIF',    PRECISION = 5.E-3,
 GROUP_NO = 'A',    NOM_CMP = 'SIZZ',      VALE = 20., REFERENCE = 'ANALYTIQUE'),
           _F(  RESULTAT = EVOL2, INST = 1., NOM_CHAM = 'SIEF_NOEU_ELGA',    CRITERE = 'ABSOLU',     PRECISION = 5.E-2,
 GROUP_NO = 'A',    NOM_CMP = 'SIXY',      VALE = 0., REFERENCE = 'ANALYTIQUE'),


           _F( RESULTAT = EVOL2, INST = 1., NOM_CHAM = 'SIEF_NOEU_ELGA',    CRITERE = 'RELATIF',    PRECISION = 5.E-3,
 GROUP_NO = 'F',   NOM_CMP = 'SIXX',      VALE = 20., REFERENCE = 'ANALYTIQUE'),
           _F( RESULTAT = EVOL2, INST = 1., NOM_CHAM = 'SIEF_NOEU_ELGA',   CRITERE = 'RELATIF',    PRECISION = 5.E-3,
 GROUP_NO = 'F',   NOM_CMP = 'SIYY',      VALE = 20., REFERENCE = 'ANALYTIQUE'),
           _F(  RESULTAT = EVOL2, INST = 1., NOM_CHAM = 'SIEF_NOEU_ELGA',   CRITERE = 'RELATIF',    PRECISION = 5.E-3,
 GROUP_NO = 'F',   NOM_CMP = 'SIZZ',      VALE = 20., REFERENCE = 'ANALYTIQUE'),
           _F( RESULTAT = EVOL2, INST = 1., NOM_CHAM = 'SIEF_NOEU_ELGA',   CRITERE = 'RELATIF',    PRECISION = 5.E-3,
 GROUP_NO = 'F',   NOM_CMP = 'SIXY',      VALE = 20., REFERENCE = 'ANALYTIQUE'))
          )
TEST_RESU(RESU=(
    # DEFORMATIONS EQUIVALENTES
           _F( RESULTAT = EVOL2, INST = 1., NOM_CHAM = 'EQUI_NOEU_EPSI',   CRITERE = 'RELATIF',    PRECISION = 5.E-3,
 GROUP_NO = 'A',    MAILLE = 'M1',      NOM_CMP = 'INVA_2',      VALE = 6.9282E-4, REFERENCE='ANALYTIQUE'),
           _F( RESULTAT = EVOL2, INST = 1., NOM_CHAM = 'EQUI_NOEU_EPSI',   CRITERE = 'RELATIF',    PRECISION = 5.E-3,
 GROUP_NO = 'A',    MAILLE = 'M1',      NOM_CMP = 'PRIN_1',      VALE = -6.E-4, REFERENCE='ANALYTIQUE'),
            _F( RESULTAT = EVOL2, INST = 1., NOM_CHAM = 'EQUI_NOEU_EPSI',   CRITERE = 'ABSOLU',    PRECISION = 1.E-5,
 GROUP_NO = 'A',    MAILLE = 'M1',      NOM_CMP = 'PRIN_2',      VALE = 0., REFERENCE='ANALYTIQUE'),
           _F( RESULTAT = EVOL2, INST = 1., NOM_CHAM = 'EQUI_NOEU_EPSI',   CRITERE = 'RELATIF',    PRECISION = 5.E-3,
 GROUP_NO = 'A',    MAILLE = 'M1',      NOM_CMP = 'PRIN_3',      VALE = 6.E-4, REFERENCE='ANALYTIQUE'),
),)
TEST_RESU(RESU=(
    # CONTRAINTES EQUIVALENTES
           _F( RESULTAT = EVOL2, INST = 1., NOM_CHAM = 'EQUI_NOEU_SIGM',   CRITERE = 'RELATIF',    PRECISION = 5.E-3,
 GROUP_NO = 'A',    MAILLE = 'M1',      NOM_CMP = 'VMIS',      VALE = 138.5641, REFERENCE='ANALYTIQUE'),
           _F( RESULTAT = EVOL2, INST = 1., NOM_CHAM = 'EQUI_NOEU_SIGM',   CRITERE = 'RELATIF',    PRECISION = 5.E-3,
 GROUP_NO = 'A',    MAILLE = 'M1',      NOM_CMP = 'TRESCA',      VALE = 160., REFERENCE='ANALYTIQUE'),
           _F( RESULTAT = EVOL2, INST = 1., NOM_CHAM = 'EQUI_NOEU_SIGM',   CRITERE = 'RELATIF',    PRECISION = 5.E-3,
 GROUP_NO = 'A',    MAILLE = 'M1',      NOM_CMP = 'PRIN_1',      VALE = -60., REFERENCE='ANALYTIQUE'),
            _F( RESULTAT = EVOL2, INST = 1., NOM_CHAM = 'EQUI_NOEU_SIGM',   CRITERE = 'RELATIF',    PRECISION = 5.E-3,
 GROUP_NO = 'A',    MAILLE = 'M1',      NOM_CMP = 'PRIN_2',      VALE = 20., REFERENCE='ANALYTIQUE'),
           _F( RESULTAT = EVOL2, INST = 1., NOM_CHAM = 'EQUI_NOEU_SIGM',   CRITERE = 'RELATIF',    PRECISION = 5.E-3,
 GROUP_NO = 'A',    MAILLE = 'M1',      NOM_CMP = 'PRIN_3',      VALE = 100., REFERENCE='ANALYTIQUE'),
           _F( RESULTAT = EVOL2, INST = 1., NOM_CHAM = 'EQUI_NOEU_SIGM',   CRITERE = 'RELATIF',    PRECISION = 5.E-3,
 GROUP_NO = 'A',    MAILLE = 'M1',      NOM_CMP = 'VMIS_SG',      VALE = 138.5641, REFERENCE='ANALYTIQUE'),
),)

#--------------------------------------------------------------------------------

#  TEST SUR UN NOEUD SITUE EN MILIEU DE MAILLE POUR TESTER LE PASSAGE AUX NOEUDS MILIEUX
#  NOEUMI = A + (0 0 1/2 pas )

TEST_RESU(RESU=(
         _F( RESULTAT = EVOL, INST = 1., NOM_CHAM = 'EPSI_NOEU_DEPL',   CRITERE = 'RELATIF',    PRECISION = 5.E-3,
             GROUP_NO = 'NOEUMI',   NOM_CMP = 'EPXX',      VALE = 6.0E-4, REFERENCE = 'ANALYTIQUE'),
         _F( RESULTAT = EVOL, INST = 1., NOM_CHAM = 'EPSI_NOEU_DEPL',   CRITERE = 'RELATIF',    PRECISION = 5.E-3,
             GROUP_NO = 'NOEUMI',   NOM_CMP = 'EPYY',      VALE = -6.0E-4, REFERENCE = 'ANALYTIQUE'),
         _F( RESULTAT = EVOL, INST = 1., NOM_CHAM = 'SIEF_NOEU_ELGA',   CRITERE = 'RELATIF',    PRECISION = 5.E-3,
             GROUP_NO = 'NOEUMI',   NOM_CMP = 'SIXX',      VALE = 100., REFERENCE = 'ANALYTIQUE'),
         _F( RESULTAT = EVOL, INST = 1., NOM_CHAM = 'SIEF_NOEU_ELGA',   CRITERE = 'RELATIF',    PRECISION = 5.E-3,
             GROUP_NO = 'NOEUMI',   NOM_CMP = 'SIYY',      VALE = -60., REFERENCE = 'ANALYTIQUE'),
         _F( RESULTAT = EVOL, INST = 1., NOM_CHAM = 'SIEF_NOEU_ELGA',    CRITERE = 'RELATIF',    PRECISION = 5.E-3,
             GROUP_NO = 'NOEUMI',   NOM_CMP = 'SIZZ',      VALE = 20., REFERENCE = 'ANALYTIQUE'),),)
#--------------------------------------------------------------------------------
#
#  TEST SUR L'ESTIMATEUR D'ERREUR EN RESIDU

TEST_RESU(RESU=(
           _F( RESULTAT = EVOL2,
               INST = 1.,
               NOM_CHAM = 'ERRE_ELEM_SIGM',
               CRITERE = 'RELATIF',
               PRECISION = 0.001,
               POINT = 1,
               MAILLE='M1',
               NOM_CMP = 'NUEST',
               VALE = 9.3646517567771,
               REFERENCE = 'NON_REGRESSION',VERSION = '9.00.13'),
             ),
            );

TEST_RESU(RESU=(
           _F( RESULTAT = EVOL2,
               INST = 1.,
               NOM_CHAM = 'ERRE_ELNO_ELEM',
               CRITERE = 'RELATIF',
               PRECISION = 0.001,
               GROUP_NO= 'A',
               MAILLE='M1',
               NOM_CMP = 'ERREST',
               VALE = 6.0242884446932E-03,
               REFERENCE = 'NON_REGRESSION',VERSION = '9.00.13'),
             ),
            );


FIN( )
#

