# MODIF  DATE 13/01/2011   AUTEUR PELLET J.PELLET 
# TITRE CYLINDRE EN INCOMPRESSIBLE (TRIA6 QUAD8) PLAN
# sslv130c.para = tps_job 60 mem_job 512Mo ncpus 1 liste_test R
#            CONFIGURATION MANAGEMENT OF EDF VERSION
# ======================================================================
# COPYRIGHT (C) 1991 - 2011  EDF R&D                  WWW.CODE-ASTER.ORG
# THIS PROGRAM IS FREE SOFTWARE; YOU CAN REDISTRIBUTE IT AND/OR MODIFY
# IT UNDER THE TERMS OF THE GNU GENERAL PUBLIC LICENSE AS PUBLISHED BY
# THE FREE SOFTWARE FOUNDATION; EITHER VERSION 2 OF THE LICENSE, OR
# (AT YOUR OPTION) ANY LATER VERSION.
#
# THIS PROGRAM IS DISTRIBUTED IN THE HOPE THAT IT WILL BE USEFUL, BUT
# WITHOUT ANY WARRANTY; WITHOUT EVEN THE IMPLIED WARRANTY OF
# MERCHANTABILITY OR FITNESS FOR A PARTICULAR PURPOSE. SEE THE GNU
# GENERAL PUBLIC LICENSE FOR MORE DETAILS.
#
# YOU SHOULD HAVE RECEIVED A COPY OF THE GNU GENERAL PUBLIC LICENSE
# ALONG WITH THIS PROGRAM; IF NOT, WRITE TO EDF R&D CODE_ASTER,
#    1 AVENUE DU GENERAL DE GAULLE, 92141 CLAMART CEDEX, FRANCE.
# ======================================================================
# CAS_TEST__: SSLV130C
#
# ----------------------------------------------------------------------
#
# CYLINDRE CREUX EN INCOMPRESSIBLE (NU=0.4999)
# SOUS PRESSION INTERNE (60 MPA)
#
# MODELISATION : ELEMENTS MECANIQUE PLAN_INCO (TRIA6 QUAD8)
# MAILLAGE     : ALIBABA > ASTER
# ----------------------------------------------------------------------
# GROUPES DE NOEUDS ET MAILLES: A B C D E F
#              BORDAB=GRNM11    FACEEF=GRMA12     FACEAE=GRMA13
# ----------------------------------------------------------------------

DEBUT(CODE=_F(NOM='SSLV130C',
              NIV_PUB_WEB='INTERNET',),
      DEBUG=_F(SDVERI='OUI',),);

M=LIRE_MAILLAGE();

MO=AFFE_MODELE(MAILLAGE=M,
               VERIF='MAILLE',
               AFFE=_F(TOUT='OUI',
                       PHENOMENE='MECANIQUE',
                       MODELISATION='D_PLAN_INCO',),);

# POUR TESTER LA POSSIBILITE DE FOURNIR DIRECTEMENT LE CHAMP DE MODULE D'YOUNG :
#-------------------------------------------------------------------------------

CHYOUNG=CREA_CHAMP(TYPE_CHAM='ELNO_NEUT_R',
                   OPERATION='AFFE',
                   MODELE=MO,
                   PROL_ZERO='OUI',
                   AFFE=_F(GROUP_MA='VOLUME',
                           NOM_CMP='X1',
                           VALE=200000.,),
                   INFO=1,);

NU_F=DEFI_CONSTANTE(VALE=0.4999,);

E_F=DEFI_FONCTION(NOM_PARA='NEUT1',VALE=(-1.E-9,-1.E-9,
                        1.E+9,1.E+9,
                        ),);

MA=DEFI_MATERIAU(ELAS_FO=_F(E=E_F,
                            NU=NU_F,),);

CM=AFFE_MATERIAU(MAILLAGE=M,
                 AFFE=_F(TOUT='OUI',
                         MATER=MA,),
                 AFFE_VARC=_F(NOM_VARC='NEUT1',
                              CHAMP_GD=CHYOUNG,),);

CLIM=AFFE_CHAR_MECA(MODELE=MO,
                    DDL_IMPO=_F(GROUP_NO='GRNM11',
                                DX=0.,),
                    FACE_IMPO=_F(GROUP_MA='GRMA12',
                                 DNOR=0.,),);

CH=AFFE_CHAR_MECA(MODELE=MO,
                  PRES_REP=_F(GROUP_MA='GRMA13',
                              PRES=60.,),);

L_INST1=DEFI_LIST_REEL(DEBUT=0.,
                       INTERVALLE=_F(JUSQU_A=1.,
                                     NOMBRE=1,),);

RAMPE=DEFI_FONCTION(NOM_PARA='INST',VALE=(0.,0.,
                          1.,1.,
                          ),PROL_DROITE='CONSTANT',);

EVOL=STAT_NON_LINE(MODELE=MO,
                   CHAM_MATER=CM,
                   EXCIT=(_F(CHARGE=CLIM,),
                          _F(CHARGE=CH,
                             FONC_MULT=RAMPE,),),
                   COMP_INCR=_F(RELATION='ELAS',),
                   INCREMENT=_F(LIST_INST=L_INST1,),
                   NEWTON=_F(REAC_ITER=1,),
                   SOLVEUR=_F(RENUM='MD',),);

EVOL=CALC_ELEM(reuse =EVOL,
               RESULTAT=EVOL,
               OPTION=('EPSI_ELNO_DEPL','SIEF_ELNO','EQUI_ELNO_SIGM','EQUI_ELNO_EPSI',),);

EVOL=CALC_NO(reuse =EVOL,
             RESULTAT=EVOL,
             OPTION=('EPSI_NOEU','SIEF_NOEU','EQUI_NOEU_EPSI','EQUI_NOEU_SIGM',),);

#---------------------------------------------------------------
#       TEST DE SOLIDE INCOMPRESSIBLE NU = 0.5
#---------------------------------------------------------------

TEST_RESU(RESU=(_F(RESULTAT=EVOL,
                   INST=1.0,
                   NOM_CHAM='DEPL',
                   NOM_CMP='DX',
                   GROUP_NO='A',
                   VALE=0.0,
                   CRITERE='ABSOLU',
                   PRECISION=1e-05,
                   REFERENCE='ANALYTIQUE',),
                _F(RESULTAT=EVOL,
                   INST=1.0,
                   NOM_CHAM='DEPL',
                   NOM_CMP='DY',
                   GROUP_NO='A',
                   VALE=6e-05,
                   CRITERE='RELATIF',
                   PRECISION=0.005,
                   REFERENCE='ANALYTIQUE',),
                _F(RESULTAT=EVOL,
                   INST=1.0,
                   NOM_CHAM='DEPL',
                   NOM_CMP='DX',
                   GROUP_NO='F',
                   VALE=-2.1213203e-05,
                   CRITERE='RELATIF',
                   PRECISION=0.005,
                   REFERENCE='ANALYTIQUE',),
                _F(RESULTAT=EVOL,
                   INST=1.0,
                   NOM_CHAM='DEPL',
                   NOM_CMP='DY',
                   GROUP_NO='F',
                   VALE=2.1213203e-05,
                   CRITERE='RELATIF',
                   PRECISION=0.005,
                   REFERENCE='ANALYTIQUE',),),);

TEST_RESU(RESU=(_F(RESULTAT=EVOL,
                   INST=1.0,
                   NOM_CHAM='EPSI_NOEU',
                   NOM_CMP='EPXX',
                   MAILLE='M1',
                   GROUP_NO='A',
                   VALE=0.0006,
                   CRITERE='RELATIF',
                   PRECISION=0.005,
                   REFERENCE='ANALYTIQUE',),
                _F(RESULTAT=EVOL,
                   INST=1.0,
                   NOM_CHAM='EPSI_NOEU',
                   NOM_CMP='EPYY',
                   MAILLE='M1',
                   GROUP_NO='A',
                   VALE=-0.0006,
                   CRITERE='RELATIF',
                   PRECISION=0.005,
                   REFERENCE='ANALYTIQUE',),
                _F(RESULTAT=EVOL,
                   INST=1.0,
                   NOM_CHAM='EPSI_NOEU',
                   NOM_CMP='EPXY',
                   MAILLE='M1',
                   GROUP_NO='A',
                   VALE=0.0,
                   CRITERE='ABSOLU',
                   PRECISION=1e-05,
                   REFERENCE='ANALYTIQUE',),
                _F(RESULTAT=EVOL,
                   INST=1.0,
                   NOM_CHAM='EPSI_NOEU',
                   NOM_CMP='EPXX',
                   MAILLE='M223',
                   GROUP_NO='F',
                   VALE=0.0,
                   CRITERE='ABSOLU',
                   PRECISION=1e-05,
                   REFERENCE='ANALYTIQUE',),
                _F(RESULTAT=EVOL,
                   INST=1.0,
                   NOM_CHAM='EPSI_NOEU',
                   NOM_CMP='EPYY',
                   MAILLE='M223',
                   GROUP_NO='F',
                   VALE=0.0,
                   CRITERE='ABSOLU',
                   PRECISION=1e-05,
                   REFERENCE='ANALYTIQUE',),
                _F(RESULTAT=EVOL,
                   INST=1.0,
                   NOM_CHAM='EPSI_NOEU',
                   NOM_CMP='EPXY',
                   MAILLE='M223',
                   GROUP_NO='F',
                   VALE=0.00015,
                   CRITERE='RELATIF',
                   PRECISION=0.005,
                   REFERENCE='ANALYTIQUE',),),);

TEST_RESU(RESU=(_F(RESULTAT=EVOL,
                   INST=1.0,
                   NOM_CHAM='SIEF_NOEU',
                   NOM_CMP='SIXX',
                   MAILLE='M1',
                   GROUP_NO='A',
                   VALE=100.0,
                   CRITERE='RELATIF',
                   PRECISION=0.005,
                   REFERENCE='ANALYTIQUE',),
                _F(RESULTAT=EVOL,
                   INST=1.0,
                   NOM_CHAM='SIEF_NOEU',
                   NOM_CMP='SIYY',
                   MAILLE='M1',
                   GROUP_NO='A',
                   VALE=-60.0,
                   CRITERE='RELATIF',
                   PRECISION=0.005,
                   REFERENCE='ANALYTIQUE',),
                _F(RESULTAT=EVOL,
                   INST=1.0,
                   NOM_CHAM='SIEF_NOEU',
                   NOM_CMP='SIZZ',
                   MAILLE='M1',
                   GROUP_NO='A',
                   VALE=20.0,
                   CRITERE='RELATIF',
                   PRECISION=0.005,
                   REFERENCE='ANALYTIQUE',),
                _F(RESULTAT=EVOL,
                   INST=1.0,
                   NOM_CHAM='SIEF_NOEU',
                   NOM_CMP='SIXY',
                   MAILLE='M1',
                   GROUP_NO='A',
                   VALE=0.0,
                   CRITERE='ABSOLU',
                   PRECISION=0.3,
                   REFERENCE='ANALYTIQUE',),
                _F(RESULTAT=EVOL,
                   INST=1.0,
                   NOM_CHAM='SIEF_NOEU',
                   NOM_CMP='SIXX',
                   MAILLE='M223',
                   GROUP_NO='F',
                   VALE=20.0,
                   CRITERE='RELATIF',
                   PRECISION=0.005,
                   REFERENCE='ANALYTIQUE',),
                _F(RESULTAT=EVOL,
                   INST=1.0,
                   NOM_CHAM='SIEF_NOEU',
                   NOM_CMP='SIYY',
                   MAILLE='M223',
                   GROUP_NO='F',
                   VALE=20.0,
                   CRITERE='RELATIF',
                   PRECISION=0.005,
                   REFERENCE='ANALYTIQUE',),
                _F(RESULTAT=EVOL,
                   INST=1.0,
                   NOM_CHAM='SIEF_NOEU',
                   NOM_CMP='SIZZ',
                   MAILLE='M223',
                   GROUP_NO='F',
                   VALE=20.0,
                   CRITERE='RELATIF',
                   PRECISION=0.005,
                   REFERENCE='ANALYTIQUE',),
                _F(RESULTAT=EVOL,
                   INST=1.0,
                   NOM_CHAM='SIEF_NOEU',
                   NOM_CMP='SIXY',
                   MAILLE='M223',
                   GROUP_NO='F',
                   VALE=20.0,
                   CRITERE='RELATIF',
                   PRECISION=0.005,
                   REFERENCE='ANALYTIQUE',),),);

TEST_RESU(RESU=(_F(RESULTAT=EVOL,
                   INST=1.0,
                   NOM_CHAM='EQUI_NOEU_EPSI',
                   NOM_CMP='INVA_2',
                   MAILLE='M1',
                   GROUP_NO='A',
                   VALE=0.00069282,
                   CRITERE='RELATIF',
                   PRECISION=0.005,
                   REFERENCE='ANALYTIQUE',),
                _F(RESULTAT=EVOL,
                   INST=1.0,
                   NOM_CHAM='EQUI_NOEU_EPSI',
                   NOM_CMP='PRIN_1',
                   MAILLE='M1',
                   GROUP_NO='A',
                   VALE=-0.0006,
                   CRITERE='RELATIF',
                   PRECISION=0.005,
                   REFERENCE='ANALYTIQUE',),
                _F(RESULTAT=EVOL,
                   INST=1.0,
                   NOM_CHAM='EQUI_NOEU_EPSI',
                   NOM_CMP='PRIN_2',
                   MAILLE='M1',
                   GROUP_NO='A',
                   VALE=0.0,
                   CRITERE='ABSOLU',
                   PRECISION=1e-05,
                   REFERENCE='ANALYTIQUE',),
                _F(RESULTAT=EVOL,
                   INST=1.0,
                   NOM_CHAM='EQUI_NOEU_EPSI',
                   NOM_CMP='PRIN_3',
                   MAILLE='M1',
                   GROUP_NO='A',
                   VALE=0.0006,
                   CRITERE='RELATIF',
                   PRECISION=0.005,
                   REFERENCE='ANALYTIQUE',),),);

TEST_RESU(RESU=(_F(RESULTAT=EVOL,
                   INST=1.0,
                   NOM_CHAM='EQUI_NOEU_SIGM',
                   NOM_CMP='VMIS',
                   MAILLE='M1',
                   GROUP_NO='A',
                   VALE=138.5641,
                   CRITERE='RELATIF',
                   PRECISION=0.01,
                   REFERENCE='ANALYTIQUE',),
                _F(RESULTAT=EVOL,
                   INST=1.0,
                   NOM_CHAM='EQUI_NOEU_SIGM',
                   NOM_CMP='TRESCA',
                   MAILLE='M1',
                   GROUP_NO='A',
                   VALE=160.0,
                   CRITERE='RELATIF',
                   PRECISION=0.01,
                   REFERENCE='ANALYTIQUE',),
                _F(RESULTAT=EVOL,
                   INST=1.0,
                   NOM_CHAM='EQUI_NOEU_SIGM',
                   NOM_CMP='PRIN_1',
                   MAILLE='M1',
                   GROUP_NO='A',
                   VALE=-60.0,
                   CRITERE='RELATIF',
                   PRECISION=0.01,
                   REFERENCE='ANALYTIQUE',),
                _F(RESULTAT=EVOL,
                   INST=1.0,
                   NOM_CHAM='EQUI_NOEU_SIGM',
                   NOM_CMP='PRIN_2',
                   MAILLE='M1',
                   GROUP_NO='A',
                   VALE=20.0,
                   CRITERE='RELATIF',
                   PRECISION=0.01,
                   REFERENCE='ANALYTIQUE',),
                _F(RESULTAT=EVOL,
                   INST=1.0,
                   NOM_CHAM='EQUI_NOEU_SIGM',
                   NOM_CMP='PRIN_3',
                   MAILLE='M1',
                   GROUP_NO='A',
                   VALE=100.0,
                   CRITERE='RELATIF',
                   PRECISION=0.01,
                   REFERENCE='ANALYTIQUE',),
                _F(RESULTAT=EVOL,
                   INST=1.0,
                   NOM_CHAM='EQUI_NOEU_SIGM',
                   NOM_CMP='VMIS_SG',
                   MAILLE='M1',
                   GROUP_NO='A',
                   VALE=138.5641,
                   CRITERE='RELATIF',
                   PRECISION=0.01,
                   REFERENCE='ANALYTIQUE',),),);

#-----------------------------------------------------------------
#  TEST IDENTIQUE EN IMPOSANT LA CONDITION TR(EPS)=0
#------------------------------------------------------------------

M=DEFI_GROUP(reuse =M,
             MAILLAGE=M,
             CREA_GROUP_NO=_F(GROUP_MA='VOLUME',
                              NOM='MSOMMET',
                              CRIT_NOEUD='SOMMET',),);

CLIM2=AFFE_CHAR_MECA(MODELE=MO,
                     DDL_IMPO=(_F(GROUP_NO='GRNM11',
                                  DX=0.,),
                               _F(GROUP_NO='MSOMMET',
                                  GONF=0.,),),
                     FACE_IMPO=_F(GROUP_MA='GRMA12',
                                  DNOR=0.,),);

EVOL2=STAT_NON_LINE(MODELE=MO,
                    CHAM_MATER=CM,
                    EXCIT=(_F(CHARGE=CLIM2,),
                           _F(CHARGE=CH,
                              FONC_MULT=RAMPE,),),
                    COMP_INCR=_F(RELATION='ELAS',),
                    INCREMENT=_F(LIST_INST=L_INST1,),
                    NEWTON=_F(REAC_ITER=1,),
                    SOLVEUR=_F(RENUM='MD',),);

EVOL2=CALC_ELEM(reuse =EVOL2,
                RESULTAT=EVOL2,
                OPTION=('EPSI_ELNO_DEPL','SIEF_ELNO','EQUI_ELNO_SIGM','EQUI_ELNO_EPSI',),);

EVOL2=CALC_NO(reuse =EVOL2,
              RESULTAT=EVOL2,
              OPTION=('EPSI_NOEU','SIEF_NOEU','EQUI_NOEU_EPSI','EQUI_NOEU_SIGM',),);

TEST_RESU(RESU=(_F(RESULTAT=EVOL2,
                   INST=1.0,
                   NOM_CHAM='DEPL',
                   NOM_CMP='DX',
                   GROUP_NO='A',
                   VALE=0.0,
                   CRITERE='ABSOLU',
                   PRECISION=1e-05,
                   REFERENCE='ANALYTIQUE',),
                _F(RESULTAT=EVOL2,
                   INST=1.0,
                   NOM_CHAM='DEPL',
                   NOM_CMP='DY',
                   GROUP_NO='A',
                   VALE=6e-05,
                   CRITERE='RELATIF',
                   PRECISION=0.005,
                   REFERENCE='ANALYTIQUE',),
                _F(RESULTAT=EVOL2,
                   INST=1.0,
                   NOM_CHAM='DEPL',
                   NOM_CMP='DX',
                   GROUP_NO='F',
                   VALE=-2.1213203e-05,
                   CRITERE='RELATIF',
                   PRECISION=0.005,
                   REFERENCE='ANALYTIQUE',),
                _F(RESULTAT=EVOL2,
                   INST=1.0,
                   NOM_CHAM='DEPL',
                   NOM_CMP='DY',
                   GROUP_NO='F',
                   VALE=2.1213203e-05,
                   CRITERE='RELATIF',
                   PRECISION=0.005,
                   REFERENCE='ANALYTIQUE',),),);

TEST_RESU(RESU=(_F(RESULTAT=EVOL2,
                   INST=1.0,
                   NOM_CHAM='EPSI_NOEU',
                   NOM_CMP='EPXX',
                   MAILLE='M1',
                   GROUP_NO='A',
                   VALE=0.0006,
                   CRITERE='RELATIF',
                   PRECISION=0.005,
                   REFERENCE='ANALYTIQUE',),
                _F(RESULTAT=EVOL2,
                   INST=1.0,
                   NOM_CHAM='EPSI_NOEU',
                   NOM_CMP='EPYY',
                   MAILLE='M1',
                   GROUP_NO='A',
                   VALE=-0.0006,
                   CRITERE='RELATIF',
                   PRECISION=0.005,
                   REFERENCE='ANALYTIQUE',),
                _F(RESULTAT=EVOL2,
                   INST=1.0,
                   NOM_CHAM='EPSI_NOEU',
                   NOM_CMP='EPXY',
                   MAILLE='M1',
                   GROUP_NO='A',
                   VALE=0.0,
                   CRITERE='ABSOLU',
                   PRECISION=1e-05,
                   REFERENCE='ANALYTIQUE',),
                _F(RESULTAT=EVOL2,
                   INST=1.0,
                   NOM_CHAM='EPSI_NOEU',
                   NOM_CMP='EPXX',
                   MAILLE='M223',
                   GROUP_NO='F',
                   VALE=0.0,
                   CRITERE='ABSOLU',
                   PRECISION=1e-05,
                   REFERENCE='ANALYTIQUE',),
                _F(RESULTAT=EVOL2,
                   INST=1.0,
                   NOM_CHAM='EPSI_NOEU',
                   NOM_CMP='EPYY',
                   MAILLE='M223',
                   GROUP_NO='F',
                   VALE=0.0,
                   CRITERE='ABSOLU',
                   PRECISION=1e-05,
                   REFERENCE='ANALYTIQUE',),
                _F(RESULTAT=EVOL2,
                   INST=1.0,
                   NOM_CHAM='EPSI_NOEU',
                   NOM_CMP='EPXY',
                   MAILLE='M223',
                   GROUP_NO='F',
                   VALE=0.00015,
                   CRITERE='RELATIF',
                   PRECISION=0.005,
                   REFERENCE='ANALYTIQUE',),),);

TEST_RESU(RESU=(_F(RESULTAT=EVOL2,
                   INST=1.0,
                   NOM_CHAM='SIEF_NOEU',
                   NOM_CMP='SIXX',
                   MAILLE='M1',
                   GROUP_NO='A',
                   VALE=100.0,
                   CRITERE='RELATIF',
                   PRECISION=0.005,
                   REFERENCE='ANALYTIQUE',),
                _F(RESULTAT=EVOL2,
                   INST=1.0,
                   NOM_CHAM='SIEF_NOEU',
                   NOM_CMP='SIYY',
                   MAILLE='M1',
                   GROUP_NO='A',
                   VALE=-60.0,
                   CRITERE='RELATIF',
                   PRECISION=0.005,
                   REFERENCE='ANALYTIQUE',),
                _F(RESULTAT=EVOL2,
                   INST=1.0,
                   NOM_CHAM='SIEF_NOEU',
                   NOM_CMP='SIZZ',
                   MAILLE='M1',
                   GROUP_NO='A',
                   VALE=20.0,
                   CRITERE='RELATIF',
                   PRECISION=0.005,
                   REFERENCE='ANALYTIQUE',),
                _F(RESULTAT=EVOL2,
                   INST=1.0,
                   NOM_CHAM='SIEF_NOEU',
                   NOM_CMP='SIXY',
                   MAILLE='M1',
                   GROUP_NO='A',
                   VALE=0.0,
                   CRITERE='ABSOLU',
                   PRECISION=0.3,
                   REFERENCE='ANALYTIQUE',),
                _F(RESULTAT=EVOL2,
                   INST=1.0,
                   NOM_CHAM='SIEF_NOEU',
                   NOM_CMP='SIXX',
                   MAILLE='M223',
                   GROUP_NO='F',
                   VALE=20.0,
                   CRITERE='RELATIF',
                   PRECISION=0.005,
                   REFERENCE='ANALYTIQUE',),
                _F(RESULTAT=EVOL2,
                   INST=1.0,
                   NOM_CHAM='SIEF_NOEU',
                   NOM_CMP='SIYY',
                   MAILLE='M223',
                   GROUP_NO='F',
                   VALE=20.0,
                   CRITERE='RELATIF',
                   PRECISION=0.005,
                   REFERENCE='ANALYTIQUE',),
                _F(RESULTAT=EVOL2,
                   INST=1.0,
                   NOM_CHAM='SIEF_NOEU',
                   NOM_CMP='SIZZ',
                   MAILLE='M223',
                   GROUP_NO='F',
                   VALE=20.0,
                   CRITERE='RELATIF',
                   PRECISION=0.005,
                   REFERENCE='ANALYTIQUE',),
                _F(RESULTAT=EVOL2,
                   INST=1.0,
                   NOM_CHAM='SIEF_NOEU',
                   NOM_CMP='SIXY',
                   MAILLE='M223',
                   GROUP_NO='F',
                   VALE=20.0,
                   CRITERE='RELATIF',
                   PRECISION=0.005,
                   REFERENCE='ANALYTIQUE',),),);

TEST_RESU(RESU=(_F(RESULTAT=EVOL2,
                   INST=1.0,
                   NOM_CHAM='EQUI_NOEU_EPSI',
                   NOM_CMP='INVA_2',
                   MAILLE='M1',
                   GROUP_NO='A',
                   VALE=0.00069282,
                   CRITERE='RELATIF',
                   PRECISION=0.005,
                   REFERENCE='ANALYTIQUE',),
                _F(RESULTAT=EVOL2,
                   INST=1.0,
                   NOM_CHAM='EQUI_NOEU_EPSI',
                   NOM_CMP='PRIN_1',
                   MAILLE='M1',
                   GROUP_NO='A',
                   VALE=-0.0006,
                   CRITERE='RELATIF',
                   PRECISION=0.005,
                   REFERENCE='ANALYTIQUE',),
                _F(RESULTAT=EVOL2,
                   INST=1.0,
                   NOM_CHAM='EQUI_NOEU_EPSI',
                   NOM_CMP='PRIN_2',
                   MAILLE='M1',
                   GROUP_NO='A',
                   VALE=0.0,
                   CRITERE='ABSOLU',
                   PRECISION=1e-05,
                   REFERENCE='ANALYTIQUE',),
                _F(RESULTAT=EVOL2,
                   INST=1.0,
                   NOM_CHAM='EQUI_NOEU_EPSI',
                   NOM_CMP='PRIN_3',
                   MAILLE='M1',
                   GROUP_NO='A',
                   VALE=0.0006,
                   CRITERE='RELATIF',
                   PRECISION=0.005,
                   REFERENCE='ANALYTIQUE',),),);

TEST_RESU(RESU=(_F(RESULTAT=EVOL2,
                   INST=1.0,
                   NOM_CHAM='EQUI_NOEU_SIGM',
                   NOM_CMP='VMIS',
                   MAILLE='M1',
                   GROUP_NO='A',
                   VALE=138.5641,
                   CRITERE='RELATIF',
                   PRECISION=0.01,
                   REFERENCE='ANALYTIQUE',),
                _F(RESULTAT=EVOL2,
                   INST=1.0,
                   NOM_CHAM='EQUI_NOEU_SIGM',
                   NOM_CMP='TRESCA',
                   MAILLE='M1',
                   GROUP_NO='A',
                   VALE=160.0,
                   CRITERE='RELATIF',
                   PRECISION=0.01,
                   REFERENCE='ANALYTIQUE',),
                _F(RESULTAT=EVOL2,
                   INST=1.0,
                   NOM_CHAM='EQUI_NOEU_SIGM',
                   NOM_CMP='PRIN_1',
                   MAILLE='M1',
                   GROUP_NO='A',
                   VALE=-60.0,
                   CRITERE='RELATIF',
                   PRECISION=0.01,
                   REFERENCE='ANALYTIQUE',),
                _F(RESULTAT=EVOL2,
                   INST=1.0,
                   NOM_CHAM='EQUI_NOEU_SIGM',
                   NOM_CMP='PRIN_2',
                   MAILLE='M1',
                   GROUP_NO='A',
                   VALE=20.0,
                   CRITERE='RELATIF',
                   PRECISION=0.01,
                   REFERENCE='ANALYTIQUE',),
                _F(RESULTAT=EVOL2,
                   INST=1.0,
                   NOM_CHAM='EQUI_NOEU_SIGM',
                   NOM_CMP='PRIN_3',
                   MAILLE='M1',
                   GROUP_NO='A',
                   VALE=100.0,
                   CRITERE='RELATIF',
                   PRECISION=0.01,
                   REFERENCE='ANALYTIQUE',),
                _F(RESULTAT=EVOL2,
                   INST=1.0,
                   NOM_CHAM='EQUI_NOEU_SIGM',
                   NOM_CMP='VMIS_SG',
                   MAILLE='M1',
                   GROUP_NO='A',
                   VALE=138.5641,
                   CRITERE='RELATIF',
                   PRECISION=0.01,
                   REFERENCE='ANALYTIQUE',),),);

#--------------------------------------------------------------------------------

MOUP=AFFE_MODELE(MAILLAGE=M,
               VERIF='MAILLE',
               AFFE=_F(TOUT='OUI',
                       PHENOMENE='MECANIQUE',
                       MODELISATION='D_PLAN_INCO_UP',),);

CLIMUP=AFFE_CHAR_MECA(MODELE=MOUP,
                    DDL_IMPO=_F(GROUP_NO='GRNM11',
                                DX=0.,),
                    FACE_IMPO=_F(GROUP_MA='GRMA12',
                                 DNOR=0.,),);

CHUP=AFFE_CHAR_MECA(MODELE=MOUP,
                  PRES_REP=_F(GROUP_MA='GRMA13',
                              PRES=60.,),);

EVOLUP=STAT_NON_LINE(MODELE=MOUP,
                   CHAM_MATER=CM,
                   EXCIT=(_F(CHARGE=CLIMUP,),
                          _F(CHARGE=CHUP,
                             FONC_MULT=RAMPE,),),
                   COMP_INCR=_F(RELATION='ELAS',),
                   INCREMENT=_F(LIST_INST=L_INST1,),
                   NEWTON=_F(REAC_ITER=1,),
                   SOLVEUR=_F(RENUM='MD',),);

EVOLUP=CALC_ELEM(reuse =EVOLUP,
               RESULTAT=EVOLUP,
               OPTION=('EPSI_ELNO_DEPL','SIEF_ELNO','EQUI_ELNO_SIGM','EQUI_ELNO_EPSI',),);

EVOLUP=CALC_NO(reuse =EVOLUP,
             RESULTAT=EVOLUP,
             OPTION=('EPSI_NOEU','SIEF_NOEU','EQUI_NOEU_EPSI','EQUI_NOEU_SIGM',),);

#--------------------------------------------------------------
#       COMPARAISON DES RESULTATS A LA SOLUTION ANALYTIQUE
#       POUR UN  SOLIDE INCOMPRESSIBLE NU = 0.5
#       D_PLAN_INCO_UP ET TRIA6/QUAD8
#---------------------------------------------------------------

TEST_RESU(RESU=(_F(RESULTAT=EVOLUP,
                   INST=1.0,
                   NOM_CHAM='DEPL',
                   NOM_CMP='DX',
                   GROUP_NO='A',
                   VALE=0.0,
                   CRITERE='ABSOLU',
                   PRECISION=1e-05,
                   REFERENCE='ANALYTIQUE',),
                _F(RESULTAT=EVOLUP,
                   INST=1.0,
                   NOM_CHAM='DEPL',
                   NOM_CMP='DY',
                   GROUP_NO='A',
                   VALE=6e-05,
                   CRITERE='RELATIF',
                   PRECISION=0.005,
                   REFERENCE='ANALYTIQUE',),
                _F(RESULTAT=EVOLUP,
                   INST=1.0,
                   NOM_CHAM='DEPL',
                   NOM_CMP='DX',
                   GROUP_NO='F',
                   VALE=-2.1213203e-05,
                   CRITERE='RELATIF',
                   PRECISION=0.005,
                   REFERENCE='ANALYTIQUE',),
                _F(RESULTAT=EVOLUP,
                   INST=1.0,
                   NOM_CHAM='DEPL',
                   NOM_CMP='DY',
                   GROUP_NO='F',
                   VALE=2.1213203e-05,
                   CRITERE='RELATIF',
                   PRECISION=0.005,
                   REFERENCE='ANALYTIQUE',),),);

TEST_RESU(RESU=(_F(RESULTAT=EVOLUP,
                   INST=1.0,
                   NOM_CHAM='EPSI_NOEU',
                   NOM_CMP='EPXX',
                   MAILLE='M1',
                   GROUP_NO='A',
                   VALE=0.0006,
                   CRITERE='RELATIF',
                   PRECISION=0.005,
                   REFERENCE='ANALYTIQUE',),
                _F(RESULTAT=EVOLUP,
                   INST=1.0,
                   NOM_CHAM='EPSI_NOEU',
                   NOM_CMP='EPYY',
                   MAILLE='M1',
                   GROUP_NO='A',
                   VALE=-0.0006,
                   CRITERE='RELATIF',
                   PRECISION=0.005,
                   REFERENCE='ANALYTIQUE',),
                _F(RESULTAT=EVOLUP,
                   INST=1.0,
                   NOM_CHAM='EPSI_NOEU',
                   NOM_CMP='EPXY',
                   MAILLE='M1',
                   GROUP_NO='A',
                   VALE=0.0,
                   CRITERE='ABSOLU',
                   PRECISION=1e-05,
                   REFERENCE='ANALYTIQUE',),
                _F(RESULTAT=EVOLUP,
                   INST=1.0,
                   NOM_CHAM='EPSI_NOEU',
                   NOM_CMP='EPXX',
                   MAILLE='M223',
                   GROUP_NO='F',
                   VALE=0.0,
                   CRITERE='ABSOLU',
                   PRECISION=1e-05,
                   REFERENCE='ANALYTIQUE',),
                _F(RESULTAT=EVOLUP,
                   INST=1.0,
                   NOM_CHAM='EPSI_NOEU',
                   NOM_CMP='EPYY',
                   MAILLE='M223',
                   GROUP_NO='F',
                   VALE=0.0,
                   CRITERE='ABSOLU',
                   PRECISION=1e-05,
                   REFERENCE='ANALYTIQUE',),
                _F(RESULTAT=EVOLUP,
                   INST=1.0,
                   NOM_CHAM='EPSI_NOEU',
                   NOM_CMP='EPXY',
                   MAILLE='M223',
                   GROUP_NO='F',
                   VALE=0.00015,
                   CRITERE='RELATIF',
                   PRECISION=0.005,
                   REFERENCE='ANALYTIQUE',),),);

TEST_RESU(RESU=(_F(RESULTAT=EVOLUP,
                   INST=1.0,
                   NOM_CHAM='SIEF_NOEU',
                   NOM_CMP='SIXX',
                   MAILLE='M1',
                   GROUP_NO='A',
                   VALE=100.0,
                   CRITERE='RELATIF',
                   PRECISION=0.005,
                   REFERENCE='ANALYTIQUE',),
                _F(RESULTAT=EVOLUP,
                   INST=1.0,
                   NOM_CHAM='SIEF_NOEU',
                   NOM_CMP='SIYY',
                   MAILLE='M1',
                   GROUP_NO='A',
                   VALE=-60.0,
                   CRITERE='RELATIF',
                   PRECISION=0.005,
                   REFERENCE='ANALYTIQUE',),
                _F(RESULTAT=EVOLUP,
                   INST=1.0,
                   NOM_CHAM='SIEF_NOEU',
                   NOM_CMP='SIZZ',
                   MAILLE='M1',
                   GROUP_NO='A',
                   VALE=20.0,
                   CRITERE='RELATIF',
                   PRECISION=0.005,
                   REFERENCE='ANALYTIQUE',),
                _F(RESULTAT=EVOLUP,
                   INST=1.0,
                   NOM_CHAM='SIEF_NOEU',
                   NOM_CMP='SIXY',
                   MAILLE='M1',
                   GROUP_NO='A',
                   VALE=0.0,
                   CRITERE='ABSOLU',
                   PRECISION=0.3,
                   REFERENCE='ANALYTIQUE',),
                _F(RESULTAT=EVOLUP,
                   INST=1.0,
                   NOM_CHAM='SIEF_NOEU',
                   NOM_CMP='SIXX',
                   MAILLE='M223',
                   GROUP_NO='F',
                   VALE=20.0,
                   CRITERE='RELATIF',
                   PRECISION=0.005,
                   REFERENCE='ANALYTIQUE',),
                _F(RESULTAT=EVOLUP,
                   INST=1.0,
                   NOM_CHAM='SIEF_NOEU',
                   NOM_CMP='SIYY',
                   MAILLE='M223',
                   GROUP_NO='F',
                   VALE=20.0,
                   CRITERE='RELATIF',
                   PRECISION=0.005,
                   REFERENCE='ANALYTIQUE',),
                _F(RESULTAT=EVOLUP,
                   INST=1.0,
                   NOM_CHAM='SIEF_NOEU',
                   NOM_CMP='SIZZ',
                   MAILLE='M223',
                   GROUP_NO='F',
                   VALE=20.0,
                   CRITERE='RELATIF',
                   PRECISION=0.005,
                   REFERENCE='ANALYTIQUE',),
                _F(RESULTAT=EVOLUP,
                   INST=1.0,
                   NOM_CHAM='SIEF_NOEU',
                   NOM_CMP='SIXY',
                   MAILLE='M223',
                   GROUP_NO='F',
                   VALE=20.0,
                   CRITERE='RELATIF',
                   PRECISION=0.005,
                   REFERENCE='ANALYTIQUE',),),);

TEST_RESU(RESU=(_F(RESULTAT=EVOLUP,
                   INST=1.0,
                   NOM_CHAM='EQUI_NOEU_EPSI',
                   NOM_CMP='INVA_2',
                   MAILLE='M1',
                   GROUP_NO='A',
                   VALE=0.00069282,
                   CRITERE='RELATIF',
                   PRECISION=0.005,
                   REFERENCE='ANALYTIQUE',),
                _F(RESULTAT=EVOLUP,
                   INST=1.0,
                   NOM_CHAM='EQUI_NOEU_EPSI',
                   NOM_CMP='PRIN_1',
                   MAILLE='M1',
                   GROUP_NO='A',
                   VALE=-0.0006,
                   CRITERE='RELATIF',
                   PRECISION=0.005,
                   REFERENCE='ANALYTIQUE',),
                _F(RESULTAT=EVOLUP,
                   INST=1.0,
                   NOM_CHAM='EQUI_NOEU_EPSI',
                   NOM_CMP='PRIN_2',
                   MAILLE='M1',
                   GROUP_NO='A',
                   VALE=0.0,
                   CRITERE='ABSOLU',
                   PRECISION=1e-05,
                   REFERENCE='ANALYTIQUE',),
                _F(RESULTAT=EVOLUP,
                   INST=1.0,
                   NOM_CHAM='EQUI_NOEU_EPSI',
                   NOM_CMP='PRIN_3',
                   MAILLE='M1',
                   GROUP_NO='A',
                   VALE=0.0006,
                   CRITERE='RELATIF',
                   PRECISION=0.005,
                   REFERENCE='ANALYTIQUE',),),);

TEST_RESU(RESU=(_F(RESULTAT=EVOLUP,
                   INST=1.0,
                   NOM_CHAM='EQUI_NOEU_SIGM',
                   NOM_CMP='VMIS',
                   MAILLE='M1',
                   GROUP_NO='A',
                   VALE=138.5641,
                   CRITERE='RELATIF',
                   PRECISION=0.01,
                   REFERENCE='ANALYTIQUE',),
                _F(RESULTAT=EVOLUP,
                   INST=1.0,
                   NOM_CHAM='EQUI_NOEU_SIGM',
                   NOM_CMP='TRESCA',
                   MAILLE='M1',
                   GROUP_NO='A',
                   VALE=160.0,
                   CRITERE='RELATIF',
                   PRECISION=0.01,
                   REFERENCE='ANALYTIQUE',),
                _F(RESULTAT=EVOLUP,
                   INST=1.0,
                   NOM_CHAM='EQUI_NOEU_SIGM',
                   NOM_CMP='PRIN_1',
                   MAILLE='M1',
                   GROUP_NO='A',
                   VALE=-60.0,
                   CRITERE='RELATIF',
                   PRECISION=0.01,
                   REFERENCE='ANALYTIQUE',),
                _F(RESULTAT=EVOLUP,
                   INST=1.0,
                   NOM_CHAM='EQUI_NOEU_SIGM',
                   NOM_CMP='PRIN_2',
                   MAILLE='M1',
                   GROUP_NO='A',
                   VALE=20.0,
                   CRITERE='RELATIF',
                   PRECISION=0.01,
                   REFERENCE='ANALYTIQUE',),
                _F(RESULTAT=EVOLUP,
                   INST=1.0,
                   NOM_CHAM='EQUI_NOEU_SIGM',
                   NOM_CMP='PRIN_3',
                   MAILLE='M1',
                   GROUP_NO='A',
                   VALE=100.0,
                   CRITERE='RELATIF',
                   PRECISION=0.01,
                   REFERENCE='ANALYTIQUE',),
                _F(RESULTAT=EVOLUP,
                   INST=1.0,
                   NOM_CHAM='EQUI_NOEU_SIGM',
                   NOM_CMP='VMIS_SG',
                   MAILLE='M1',
                   GROUP_NO='A',
                   VALE=138.5641,
                   CRITERE='RELATIF',
                   PRECISION=0.01,
                   REFERENCE='ANALYTIQUE',),),);

#--------------------------------------------------------------------------------

ML=LIRE_MAILLAGE(FORMAT='MED',
                 UNITE=21,);

MOUPL=AFFE_MODELE(MAILLAGE=ML,
                  VERIF='MAILLE',
                  AFFE=_F(TOUT='OUI',
                          PHENOMENE='MECANIQUE',
                          MODELISATION='D_PLAN_INCO_UP',),);

CHYOUNGL=CREA_CHAMP(TYPE_CHAM='ELNO_NEUT_R',
                   OPERATION='AFFE',
                   MODELE=MOUPL,
                   PROL_ZERO='OUI',
                   AFFE=_F(GROUP_MA='VOLUME',
                           NOM_CMP='X1',
                           VALE=200000.,),
                   INFO=1,);

CML=AFFE_MATERIAU(MAILLAGE=ML,
                 AFFE=_F(TOUT='OUI',
                         MATER=MA,),
                 AFFE_VARC=_F(NOM_VARC='NEUT1',
                              CHAMP_GD=CHYOUNGL,),);

CLIMUPL=AFFE_CHAR_MECA(MODELE=MOUPL,
                     DDL_IMPO=_F(GROUP_MA='GRNM11',
                                 DX=0.,),
                     FACE_IMPO=_F(GROUP_MA='GRMA12',
                                  DNOR=0.,),);

CHUPL=AFFE_CHAR_MECA(MODELE=MOUPL,
                     PRES_REP=_F(GROUP_MA='GRMA13',
                                 PRES=60.,),);

EVOLUPL=STAT_NON_LINE(MODELE=MOUPL,
                   CHAM_MATER=CML,
                   EXCIT=(_F(CHARGE=CLIMUPL,),
                          _F(CHARGE=CHUPL,
                             FONC_MULT=RAMPE,),),
                   COMP_INCR=_F(RELATION='ELAS',),
                   INCREMENT=_F(LIST_INST=L_INST1,),
                   NEWTON=_F(REAC_ITER=1,),
                   SOLVEUR=_F(RENUM='MD',),);

EVOLUPL=CALC_ELEM(reuse =EVOLUPL,
               RESULTAT=EVOLUPL,
               OPTION=('EPSI_ELNO_DEPL','SIEF_ELNO','EQUI_ELNO_SIGM','EQUI_ELNO_EPSI',),);

EVOLUPL=CALC_NO(reuse =EVOLUPL,
             RESULTAT=EVOLUPL,
             OPTION=('EPSI_NOEU','SIEF_NOEU','EQUI_NOEU_EPSI','EQUI_NOEU_SIGM',),);

#--------------------------------------------------------------
#       COMPARAISON DES RESULTATS A LA SOLUTION ANALYTIQUE
#       POUR UN  SOLIDE INCOMPRESSIBLE NU = 0.5
#       D_PLAN_INCO_UP ET TRIA6/QUAD8
#---------------------------------------------------------------

TEST_RESU(RESU=(_F(RESULTAT=EVOLUPL,
                   INST=1.0,
                   NOM_CHAM='DEPL',
                   NOM_CMP='DX',
                   GROUP_NO='A',
                   VALE=0.0,
                   CRITERE='ABSOLU',
                   PRECISION=1e-05,
                   REFERENCE='ANALYTIQUE',),
                _F(RESULTAT=EVOLUPL,
                   INST=1.0,
                   NOM_CHAM='DEPL',
                   NOM_CMP='DY',
                   GROUP_NO='A',
                   VALE=6e-05,
                   CRITERE='RELATIF',
                   PRECISION=0.005,
                   REFERENCE='ANALYTIQUE',),
                _F(RESULTAT=EVOLUPL,
                   INST=1.0,
                   NOM_CHAM='DEPL',
                   NOM_CMP='DX',
                   GROUP_NO='F',
                   VALE=-2.1213203e-05,
                   CRITERE='RELATIF',
                   PRECISION=0.005,
                   REFERENCE='ANALYTIQUE',),
                _F(RESULTAT=EVOLUPL,
                   INST=1.0,
                   NOM_CHAM='DEPL',
                   NOM_CMP='DY',
                   GROUP_NO='F',
                   VALE=2.1213203e-05,
                   CRITERE='RELATIF',
                   PRECISION=0.005,
                   REFERENCE='ANALYTIQUE',),),);

TEST_RESU(RESU=(_F(RESULTAT=EVOLUPL,
                   INST=1.0,
                   NOM_CHAM='EPSI_NOEU',
                   NOM_CMP='EPXX',
                   MAILLE='M1',
                   GROUP_NO='A',
                   VALE=0.0006,
                   CRITERE='RELATIF',
                   PRECISION=0.005,
                   REFERENCE='ANALYTIQUE',),
                _F(RESULTAT=EVOLUPL,
                   INST=1.0,
                   NOM_CHAM='EPSI_NOEU',
                   NOM_CMP='EPYY',
                   MAILLE='M1',
                   GROUP_NO='A',
                   VALE=-0.0006,
                   CRITERE='RELATIF',
                   PRECISION=0.015,
                   REFERENCE='ANALYTIQUE',),
                _F(RESULTAT=EVOLUPL,
                   INST=1.0,
                   NOM_CHAM='EPSI_NOEU',
                   NOM_CMP='EPXY',
                   MAILLE='M1',
                   GROUP_NO='A',
                   VALE=0.0,
                   CRITERE='ABSOLU',
                   PRECISION=1e-05,
                   REFERENCE='ANALYTIQUE',),
                _F(RESULTAT=EVOLUPL,
                   INST=1.0,
                   NOM_CHAM='EPSI_NOEU',
                   NOM_CMP='EPXX',
                   MAILLE='M223',
                   GROUP_NO='F',
                   VALE=0.0,
                   CRITERE='ABSOLU',
                   PRECISION=1e-05,
                   REFERENCE='ANALYTIQUE',),
                _F(RESULTAT=EVOLUPL,
                   INST=1.0,
                   NOM_CHAM='EPSI_NOEU',
                   NOM_CMP='EPYY',
                   MAILLE='M223',
                   GROUP_NO='F',
                   VALE=0.0,
                   CRITERE='ABSOLU',
                   PRECISION=1e-05,
                   REFERENCE='ANALYTIQUE',),
                _F(RESULTAT=EVOLUPL,
                   INST=1.0,
                   NOM_CHAM='EPSI_NOEU',
                   NOM_CMP='EPXY',
                   MAILLE='M223',
                   GROUP_NO='F',
                   VALE=0.00015,
                   CRITERE='RELATIF',
                   PRECISION=0.005,
                   REFERENCE='ANALYTIQUE',),),);

TEST_RESU(RESU=(_F(RESULTAT=EVOLUPL,
                   INST=1.0,
                   NOM_CHAM='SIEF_NOEU',
                   NOM_CMP='SIXX',
                   MAILLE='M1',
                   GROUP_NO='A',
                   VALE=100.0,
                   CRITERE='RELATIF',
                   PRECISION=0.005,
                   REFERENCE='ANALYTIQUE',),
                _F(RESULTAT=EVOLUPL,
                   INST=1.0,
                   NOM_CHAM='SIEF_NOEU',
                   NOM_CMP='SIYY',
                   MAILLE='M1',
                   GROUP_NO='A',
                   VALE=-60.0,
                   CRITERE='RELATIF',
                   PRECISION=0.02,
                   REFERENCE='ANALYTIQUE',),
                _F(RESULTAT=EVOLUPL,
                   INST=1.0,
                   NOM_CHAM='SIEF_NOEU',
                   NOM_CMP='SIZZ',
                   MAILLE='M1',
                   GROUP_NO='A',
                   VALE=20.0,
                   CRITERE='RELATIF',
                   PRECISION=0.01,
                   REFERENCE='ANALYTIQUE',),
                _F(RESULTAT=EVOLUPL,
                   INST=1.0,
                   NOM_CHAM='SIEF_NOEU',
                   NOM_CMP='SIXY',
                   MAILLE='M1',
                   GROUP_NO='A',
                   VALE=0.0,
                   CRITERE='ABSOLU',
                   PRECISION=0.9,
                   REFERENCE='ANALYTIQUE',),
                _F(RESULTAT=EVOLUPL,
                   INST=1.0,
                   NOM_CHAM='SIEF_NOEU',
                   NOM_CMP='SIXX',
                   MAILLE='M223',
                   GROUP_NO='F',
                   VALE=20.0,
                   CRITERE='RELATIF',
                   PRECISION=0.01,
                   REFERENCE='ANALYTIQUE',),
                _F(RESULTAT=EVOLUPL,
                   INST=1.0,
                   NOM_CHAM='SIEF_NOEU',
                   NOM_CMP='SIYY',
                   MAILLE='M223',
                   GROUP_NO='F',
                   VALE=20.0,
                   CRITERE='RELATIF',
                   PRECISION=0.015,
                   REFERENCE='ANALYTIQUE',),
                _F(RESULTAT=EVOLUPL,
                   INST=1.0,
                   NOM_CHAM='SIEF_NOEU',
                   NOM_CMP='SIZZ',
                   MAILLE='M223',
                   GROUP_NO='F',
                   VALE=20.0,
                   CRITERE='RELATIF',
                   PRECISION=0.005,
                   REFERENCE='ANALYTIQUE',),
                _F(RESULTAT=EVOLUPL,
                   INST=1.0,
                   NOM_CHAM='SIEF_NOEU',
                   NOM_CMP='SIXY',
                   MAILLE='M223',
                   GROUP_NO='F',
                   VALE=20.0,
                   CRITERE='RELATIF',
                   PRECISION=0.005,
                   REFERENCE='ANALYTIQUE',),),);

TEST_RESU(RESU=(_F(RESULTAT=EVOLUPL,
                   INST=1.0,
                   NOM_CHAM='EQUI_NOEU_EPSI',
                   NOM_CMP='INVA_2',
                   MAILLE='M1',
                   GROUP_NO='A',
                   VALE=0.00069282,
                   CRITERE='RELATIF',
                   PRECISION=0.01,
                   REFERENCE='ANALYTIQUE',),
                _F(RESULTAT=EVOLUPL,
                   INST=1.0,
                   NOM_CHAM='EQUI_NOEU_EPSI',
                   NOM_CMP='PRIN_1',
                   MAILLE='M1',
                   GROUP_NO='A',
                   VALE=-0.0006,
                   CRITERE='RELATIF',
                   PRECISION=0.015,
                   REFERENCE='ANALYTIQUE',),
                _F(RESULTAT=EVOLUPL,
                   INST=1.0,
                   NOM_CHAM='EQUI_NOEU_EPSI',
                   NOM_CMP='PRIN_2',
                   MAILLE='M1',
                   GROUP_NO='A',
                   VALE=0.0,
                   CRITERE='ABSOLU',
                   PRECISION=1e-05,
                   REFERENCE='ANALYTIQUE',),
                _F(RESULTAT=EVOLUPL,
                   INST=1.0,
                   NOM_CHAM='EQUI_NOEU_EPSI',
                   NOM_CMP='PRIN_3',
                   MAILLE='M1',
                   GROUP_NO='A',
                   VALE=0.0006,
                   CRITERE='RELATIF',
                   PRECISION=0.005,
                   REFERENCE='ANALYTIQUE',),),);

TEST_RESU(RESU=(_F(RESULTAT=EVOLUPL,
                   INST=1.0,
                   NOM_CHAM='EQUI_NOEU_SIGM',
                   NOM_CMP='VMIS',
                   MAILLE='M1',
                   GROUP_NO='A',
                   VALE=138.5641,
                   CRITERE='RELATIF',
                   PRECISION=0.01,
                   REFERENCE='ANALYTIQUE',),
                _F(RESULTAT=EVOLUPL,
                   INST=1.0,
                   NOM_CHAM='EQUI_NOEU_SIGM',
                   NOM_CMP='TRESCA',
                   MAILLE='M1',
                   GROUP_NO='A',
                   VALE=160.0,
                   CRITERE='RELATIF',
                   PRECISION=0.01,
                   REFERENCE='ANALYTIQUE',),
                _F(RESULTAT=EVOLUPL,
                   INST=1.0,
                   NOM_CHAM='EQUI_NOEU_SIGM',
                   NOM_CMP='PRIN_1',
                   MAILLE='M1',
                   GROUP_NO='A',
                   VALE=-60.0,
                   CRITERE='RELATIF',
                   PRECISION=0.02,
                   REFERENCE='ANALYTIQUE',),
                _F(RESULTAT=EVOLUPL,
                   INST=1.0,
                   NOM_CHAM='EQUI_NOEU_SIGM',
                   NOM_CMP='PRIN_2',
                   MAILLE='M1',
                   GROUP_NO='A',
                   VALE=20.0,
                   CRITERE='RELATIF',
                   PRECISION=0.01,
                   REFERENCE='ANALYTIQUE',),
                _F(RESULTAT=EVOLUPL,
                   INST=1.0,
                   NOM_CHAM='EQUI_NOEU_SIGM',
                   NOM_CMP='PRIN_3',
                   MAILLE='M1',
                   GROUP_NO='A',
                   VALE=100.0,
                   CRITERE='RELATIF',
                   PRECISION=0.01,
                   REFERENCE='ANALYTIQUE',),
                _F(RESULTAT=EVOLUPL,
                   INST=1.0,
                   NOM_CHAM='EQUI_NOEU_SIGM',
                   NOM_CMP='VMIS_SG',
                   MAILLE='M1',
                   GROUP_NO='A',
                   VALE=138.5641,
                   CRITERE='RELATIF',
                   PRECISION=0.01,
                   REFERENCE='ANALYTIQUE',),),);


FIN();
