# MODIF  DATE 24/08/2009   AUTEUR GENIAUT S.GENIAUT 
# TITRE PROPAGATION DE FISSURE DEBOUCHANTE DANS UNE PLAQUE 3D DE LARGEUR FINIE AVEC X-FEM
# sslv314a.para = tps_job 230 mem_job 1024Mo liste_test R
#            CONFIGURATION MANAGEMENT OF EDF VERSION
# ======================================================================
# COPYRIGHT (C) 1991 - 2008  EDF R&D                  WWW.CODE-ASTER.ORG
# THIS PROGRAM IS FREE SOFTWARE; YOU CAN REDISTRIBUTE IT AND/OR MODIFY  
# IT UNDER THE TERMS OF THE GNU GENERAL PUBLIC LICENSE AS PUBLISHED BY  
# THE FREE SOFTWARE FOUNDATION; EITHER VERSION 2 OF THE LICENSE, OR     
# (AT YOUR OPTION) ANY LATER VERSION.                                                    
#                                                                       
# THIS PROGRAM IS DISTRIBUTED IN THE HOPE THAT IT WILL BE USEFUL, BUT   
# WITHOUT ANY WARRANTY; WITHOUT EVEN THE IMPLIED WARRANTY OF            
# MERCHANTABILITY OR FITNESS FOR A PARTICULAR PURPOSE. SEE THE GNU      
# GENERAL PUBLIC LICENSE FOR MORE DETAILS.                              
#                                                                       
# YOU SHOULD HAVE RECEIVED A COPY OF THE GNU GENERAL PUBLIC LICENSE     
# ALONG WITH THIS PROGRAM; IF NOT, WRITE TO EDF R&D CODE_ASTER,         
#    1 AVENUE DU GENERAL DE GAULLE, 92141 CLAMART CEDEX, FRANCE.        
# ======================================================================
# METHODE PAR REACTUALISATION DES LEVEL SET - FISSURE INITIALE INCLINEE

DEBUT(CODE=_F(NOM='SSLV314A', NIV_PUB_WEB='INTERNET',VISU_EFICAS='NON'),DEBUG=_F(SDVERI='OUI'),
            IGNORE_ALARM=('XFEM2_14',))

# POUR LIMITER LES TEMPS DE CALCUL, LES MAILLAGES SONT RELATIVEMENT GROSSIERS,
# D OU LE MESSAGE XFEM2_14 QUE L ON IGNORE DANS CE TEST


#----------------------------------------------
#                 MAILLAGE
#----------------------------------------------

PRE_GIBI();

nbcalc = 3

MAILLAG1=LIRE_MAILLAGE(INFO=1,);

MAILLAG1=DEFI_GROUP(reuse =MAILLAG1,
                    MAILLAGE=MAILLAG1,
                    CREA_GROUP_NO=_F(GROUP_MA=('VOL','SURFINF','LIG1','LIG5'),),);


#----------------------------------------------
#                   MODELE
#----------------------------------------------


MODELE=AFFE_MODELE(MAILLAGE=MAILLAG1,
                      AFFE=(_F(GROUP_MA=('VOL',),
                               PHENOMENE='MECANIQUE',
                               MODELISATION='3D',),
                            _F(GROUP_MA=('SURFINF','SURFSUP',),
                               PHENOMENE='MECANIQUE',
                               MODELISATION='3D',),),);

MAILLAG1=MODI_MAILLAGE(reuse =MAILLAG1,
                       MAILLAGE=MAILLAG1,
                       ORIE_PEAU_3D=_F(GROUP_MA=('SURFSUP','SURFINF',),),
                       );

#----------------------------------------------
#                   MATERIAU
#----------------------------------------------

E=205000.0E6
nu=0.
rho=7800.
ACIER=DEFI_MATERIAU(ELAS=_F(E=E,NU=nu,RHO=rho,),);

CHAMPMA1=AFFE_MATERIAU(MAILLAGE=MAILLAG1,
                       MODELE=MODELE,
                       AFFE=_F(TOUT = 'OUI',
                                MATER=ACIER,
                                ),
                             );

#----------------------------------------------
#              FISSURE INITIALE
#----------------------------------------------

FISS = [None]*nbcalc

FISS[0]=DEFI_FISS_XFEM(MODELE=MODELE,
                       DEFI_FISS=_F(
                                 FORM_FISS = 'DEMI_PLAN',
                                 PFON      =(0. , 2. ,9.),
                                 NORMALE   =(0. , 0 , 1.),
                                 DTAN      =(0. , 1. , 0.)),
                       GROUP_MA_ENRI='VOL',
                       );

#----------------------------------------------
#                   CHARGEMENTS
#----------------------------------------------

PRES=-1.E6
CH=AFFE_CHAR_MECA(MODELE=MODELE,
                   PRES_REP=_F(GROUP_MA=('SURFSUP',),PRES=PRES,),
                   DDL_IMPO=(_F(GROUP_NO='SURFINF',DZ=0.0,),
                             _F(GROUP_NO=('LIG1','LIG5'),DX=0.0,),
                             _F(GROUP_NO='P4',DY=0.0,),),);
#----------------------------------------------
#         PROPAGATION SUR 3 PAS DE TEMPS
#----------------------------------------------

MODELX = [None]*nbcalc
CHXFEM = [None]*nbcalc
RESU = [None]*nbcalc
SIF = [None]*nbcalc
LSN = [None]*nbcalc
LST = [None]*nbcalc

L_INS1=DEFI_LIST_REEL(DEBUT=0.0,INTERVALLE=_F(JUSQU_A=3.0,NOMBRE=3,),);
RI = 0.2
RS = 0.8

for i in range(nbcalc) :

   MODELX[i]=MODI_MODELE_XFEM(MODELE_IN=MODELE,FISSURE=FISS[i],INFO=1,);

   CHXFEM[i]=AFFE_CHAR_MECA(MODELE=MODELX[i],LIAISON_XFEM='OUI',INFO=1,);

   RESU[i]=STAT_NON_LINE(MODELE=MODELX[i],
                         CHAM_MATER=CHAMPMA1,
                         EXCIT=(_F(CHARGE=CHXFEM[i],),
                                _F(CHARGE=CH,),),
                         COMP_ELAS=_F(RELATION='ELAS',
                                      GROUP_MA='VOL',),
                         INCREMENT=_F(LIST_INST=L_INS1,
                                      INST_FIN=1.0,),
#                         SOLVEUR=_F(METHODE='MUMPS',),
                         NEWTON=_F(REAC_ITER=1,),
                         ARCHIVAGE=_F(CHAM_EXCLU='VARI_ELGA',),
                         INFO=1,);

   SIF[i]=CALC_G        (RESULTAT=RESU[i],
                         SYME_CHAR='SANS',
                         COMP_ELAS=_F(RELATION='ELAS',),
                         OPTION='CALC_K_G',
                         THETA=_F( FISSURE=FISS[i],
                                   R_INF=RI,
                                   R_SUP=RS,),
                         LISSAGE=_F( LISSAGE_THETA='LEGENDRE',
                                     LISSAGE_G='LEGENDRE',
                                     DEGRE=0,),
                         INFO=1,);

   IMPR_TABLE(TABLE=SIF[i],);

   if ( i != (nbcalc-1) ) :
      FISS[i+1] = CO('FISS_%d'%(i+1))
      PROPA_FISS(MODELE=MODELX[i],
                 FISSURE=_F(FISS_ACTUELLE=FISS[i],
                            FISS_PROPAGEE=FISS[i+1],
                            TABLE=SIF[i],
                           ),
                 METHODE_PROPA='SIMPLEXE',
                 LOI_PROPA=_F(LOI='PARIS',
                              C=1.,
                              M=1.,
                              N=0.,
                              MATER=ACIER,),
                 COMP_LINE=_F(COEF_MULT_MINI=0.,
                              COEF_MULT_MAXI=1.,),
                 DA_MAX=0.166666641831398,
                 RAYON=RS,
                 INFO=1,);

#----------------------------------------------
#         POST TRAITEMENT
#----------------------------------------------
i=nbcalc-1

KIatt=4.4238944306211E+06

# TOLERANCE SUR KII. LA VALEUR ANALYTIQUE EST ZERO CAR LA FISSURE
# PROPAGE EN MODE I. CELA N'EST PAS VERIFIER EXACTEMENT POUR LE
# MODELE FEM. ON ASSUME QUE LA VALEUR DE KII EST ZERO SI
# ELLE EST EGAL A 1% DE LA VALEUR DE KI.
TOL_K2=0.01*KIatt;

TEST_TABLE(TABLE=SIF[i],
           REFERENCE='NON_REGRESSION',
           NOM_PARA='K1_LOCAL',
           PRECISION=0.05,
           TYPE_TEST='MAX',
           VALE= KIatt  )



TEST_TABLE(TABLE=SIF[i],
           REFERENCE='ANALYTIQUE',
           NOM_PARA='K2_LOCAL',
           PRECISION=TOL_K2,
           TYPE_TEST='MAX',
           CRITERE='ABSOLU',
           VALE= 0.    )

MAXFEM=POST_MAIL_XFEM(MODELE=MODELX[i],
                          MAILLAGE_SAIN = MAILLAG1,);

MOVISU=AFFE_MODELE(MAILLAGE=MAXFEM,
                      AFFE=_F(TOUT='OUI',
                              PHENOMENE='MECANIQUE',
                              MODELISATION='3D',),) 

DEPL=POST_CHAM_XFEM(MAILLAGE_SAIN = MAILLAG1,
                       MAILLAGE_FISS = MAXFEM,
                       MODELE=MODELX[i],
                       MODELE_VISU   = MOVISU,
                       RESULTAT=RESU[i],
                       NOM_CHAM=('DEPL','SIEF_ELGA'),);

#IMPR_RESU(FORMAT='IDEAS',
#          RESU=_F(RESULTAT=DEPL,MAILLAGE=MAXFEM),);

FIN();
