# TITRE CYLINDRE EN C.P. (TRIA3 QUAD4) AXISYM
# ======================================================================
# COPYRIGHT (C) 1991 - 2012  EDF R&D                  WWW.CODE-ASTER.ORG
# THIS PROGRAM IS FREE SOFTWARE; YOU CAN REDISTRIBUTE IT AND/OR MODIFY
# IT UNDER THE TERMS OF THE GNU GENERAL PUBLIC LICENSE AS PUBLISHED BY
# THE FREE SOFTWARE FOUNDATION; EITHER VERSION 2 OF THE LICENSE, OR
# (AT YOUR OPTION) ANY LATER VERSION.
#
# THIS PROGRAM IS DISTRIBUTED IN THE HOPE THAT IT WILL BE USEFUL, BUT
# WITHOUT ANY WARRANTY; WITHOUT EVEN THE IMPLIED WARRANTY OF
# MERCHANTABILITY OR FITNESS FOR A PARTICULAR PURPOSE. SEE THE GNU
# GENERAL PUBLIC LICENSE FOR MORE DETAILS.
#
# YOU SHOULD HAVE RECEIVED A COPY OF THE GNU GENERAL PUBLIC LICENSE
# ALONG WITH THIS PROGRAM; IF NOT, WRITE TO EDF R&D CODE_ASTER,
#    1 AVENUE DU GENERAL DE GAULLE, 92141 CLAMART CEDEX, FRANCE.
# ======================================================================
#
# ----------------------------------------------------------------------
# SSLV04 H                  COMMANDES                           22/08/91
# CYLINDRE CREUX EN CONTRAINTES PLANES
#
# MODELISATION : ELEMENTS MECANIQUE C_PLAN (TRIA3 QUAD4)     AXIS
# MAILLAGE     : ALIBABA > ASTER
# ----------------------------------------------------------------------
# GROUPES DE NOEUDS ET MAILLES: A B C D E F
#              BORDAB=GRNM11    FACEEF=GRMA12    FACEAE=GRMA13
# ----------------------------------------------------------------------
#

DEBUT( CODE=_F( NOM = 'SSLV04H',NIV_PUB_WEB='INTERNET'),DEBUG=_F(SDVERI='OUI'))

M=LIRE_MAILLAGE(FORMAT='MED',   )

MO=AFFE_MODELE(            MAILLAGE=M,
                                   VERIF='MAILLE',
                                  AFFE=_F(  TOUT = 'OUI',
                                         PHENOMENE = 'MECANIQUE',
                                         MODELISATION = 'AXIS'))

MA=DEFI_MATERIAU(   ELAS=_F(  E     = 200000.,
                              NU    = 0.3,
                              ALPHA = 0.     ),
                    RCCM=_F(  M_KE  = 1.7,
                              N_KE  = 0.3,
                              SM    = 200.   ),
                )

CM=AFFE_MATERIAU(        MAILLAGE=M,
                                  AFFE=_F(  TOUT = 'OUI',
                                         MATER = MA))

CH=AFFE_CHAR_MECA(         MODELE=MO,
                              DDL_IMPO=_F(  GROUP_NO = 'F',       DY = 0.),
                              PRES_REP=_F(  GROUP_MA = 'GRMA13',  PRES = 60.))


RESU=MECA_STATIQUE(MODELE=MO,
                   CHAM_MATER=CM,
                   EXCIT=_F(CHARGE=CH,),
                   );

RESU=CALC_CHAMP(reuse= RESU,
                RESULTAT=RESU,
                NUME_ORDRE=1,
                CONTRAINTE=('SIGM_ELNO',),
                DEFORMATION=('EPSI_ELNO',),);

TEST_RESU(RESU=(_F(NUME_ORDRE=1,
                   GROUP_NO='A',
                   REFERENCE='ANALYTIQUE',
                   RESULTAT=RESU,
                   NOM_CHAM='DEPL',
                   NOM_CMP='DX',
                   VALE_CALC= 5.89917605E-05,
                   VALE_REFE=5.8999999999999998E-05,
                   CRITERE='RELATIF',
                   PRECISION=1.E-3,),
                _F(NUME_ORDRE=1,
                   GROUP_NO='B',
                   REFERENCE='ANALYTIQUE',
                   RESULTAT=RESU,
                   NOM_CHAM='DEPL',
                   NOM_CMP='DX',
                   VALE_CALC= 3.99974366E-05,
                   VALE_REFE=4.0000000000000003E-05,
                   CRITERE='RELATIF',
                   PRECISION=1.E-3,),
                _F(NUME_ORDRE=1,
                   GROUP_NO='E',
                   REFERENCE='ANALYTIQUE',
                   RESULTAT=RESU,
                   NOM_CHAM='DEPL',
                   NOM_CMP='DX',
                   VALE_CALC= 5.89917605E-05,
                   VALE_REFE=5.8999999999999998E-05,
                   CRITERE='RELATIF',
                   PRECISION=1.E-3,),
                _F(NUME_ORDRE=1,
                   GROUP_NO='F',
                   REFERENCE='ANALYTIQUE',
                   RESULTAT=RESU,
                   NOM_CHAM='DEPL',
                   NOM_CMP='DX',
                   VALE_CALC= 3.99974366E-05,
                   VALE_REFE=4.0000000000000003E-05,
                   CRITERE='RELATIF',
                   PRECISION=1.E-3,),
                _F(NUME_ORDRE=1,
                   GROUP_NO='A',
                   REFERENCE='ANALYTIQUE',
                   RESULTAT=RESU,
                   NOM_CHAM='EPSI_ELNO',
                   NOM_CMP='EPXX',
                   VALE_CALC=-4.36526133E-04,
                   VALE_REFE=-4.4999999999999999E-4,
                   CRITERE='RELATIF',
                   PRECISION=0.029999999999999999,
                   MAILLE='M119',),
                _F(NUME_ORDRE=1,
                   GROUP_NO='A',
                   REFERENCE='ANALYTIQUE',
                   RESULTAT=RESU,
                   NOM_CHAM='EPSI_ELNO',
                   NOM_CMP='EPYY',
                   VALE_CALC=-6.18381253E-05,
                   VALE_REFE=0.0,
                   CRITERE='ABSOLU',
                   PRECISION=1.E-2,
                   MAILLE='M119',),
                _F(NUME_ORDRE=1,
                   GROUP_NO='A',
                   REFERENCE='ANALYTIQUE',
                   RESULTAT=RESU,
                   NOM_CHAM='EPSI_ELNO',
                   NOM_CMP='EPZZ',
                   VALE_CALC= 5.89813514E-04,
                   VALE_REFE=5.9000000000000003E-4,
                   CRITERE='RELATIF',
                   PRECISION=1.E-2,
                   MAILLE='M119',),
                _F(NUME_ORDRE=1,
                   GROUP_NO='A',
                   REFERENCE='ANALYTIQUE',
                   RESULTAT=RESU,
                   NOM_CHAM='EPSI_ELNO',
                   NOM_CMP='EPXY',
                   VALE_CALC=-1.06259265E-06,
                   VALE_REFE=0.0,
                   CRITERE='ABSOLU',
                   PRECISION=1.E-2,
                   MAILLE='M119',),
                _F(NUME_ORDRE=1,
                   GROUP_NO='B',
                   REFERENCE='ANALYTIQUE',
                   RESULTAT=RESU,
                   NOM_CHAM='EPSI_ELNO',
                   NOM_CMP='EPXX',
                   VALE_CALC=-6.32596780E-05,
                   VALE_REFE=-6.0000000000000002E-05,
                   CRITERE='RELATIF',
                   PRECISION=0.059999999999999998,
                   MAILLE='M1',),
                _F(NUME_ORDRE=1,
                   GROUP_NO='B',
                   REFERENCE='ANALYTIQUE',
                   RESULTAT=RESU,
                   NOM_CHAM='EPSI_ELNO',
                   NOM_CMP='EPYY',
                   VALE_CALC=-6.01106959E-05,
                   VALE_REFE=0.0,
                   CRITERE='ABSOLU',
                   PRECISION=1.E-2,
                   MAILLE='M1',),
                _F(NUME_ORDRE=1,
                   GROUP_NO='B',
                   REFERENCE='ANALYTIQUE',
                   RESULTAT=RESU,
                   NOM_CHAM='EPSI_ELNO',
                   NOM_CMP='EPZZ',
                   VALE_CALC= 2.03311521E-04,
                   VALE_REFE=2.0000000000000001E-4,
                   CRITERE='RELATIF',
                   PRECISION=0.02,
                   MAILLE='M1',),
                _F(NUME_ORDRE=1,
                   GROUP_NO='B',
                   REFERENCE='ANALYTIQUE',
                   RESULTAT=RESU,
                   NOM_CHAM='EPSI_ELNO',
                   NOM_CMP='EPXY',
                   VALE_CALC=-8.32460546E-07,
                   VALE_REFE=0.0,
                   CRITERE='ABSOLU',
                   PRECISION=1.E-2,
                   MAILLE='M1',),
                _F(NUME_ORDRE=1,
                   GROUP_NO='E',
                   REFERENCE='ANALYTIQUE',
                   RESULTAT=RESU,
                   NOM_CHAM='EPSI_ELNO',
                   NOM_CMP='EPXX',
                   VALE_CALC=-4.36526133E-04,
                   VALE_REFE=-4.4999999999999999E-4,
                   CRITERE='RELATIF',
                   PRECISION=0.029999999999999999,
                   MAILLE='M120',),
                _F(NUME_ORDRE=1,
                   GROUP_NO='E',
                   REFERENCE='ANALYTIQUE',
                   RESULTAT=RESU,
                   NOM_CHAM='EPSI_ELNO',
                   NOM_CMP='EPYY',
                   VALE_CALC=-6.18381253E-05,
                   VALE_REFE=0.0,
                   CRITERE='ABSOLU',
                   PRECISION=1.E-2,
                   MAILLE='M120',),
                _F(NUME_ORDRE=1,
                   GROUP_NO='E',
                   REFERENCE='ANALYTIQUE',
                   RESULTAT=RESU,
                   NOM_CHAM='EPSI_ELNO',
                   NOM_CMP='EPZZ',
                   VALE_CALC= 5.89813514E-04,
                   VALE_REFE=5.9000000000000003E-4,
                   CRITERE='RELATIF',
                   PRECISION=1.E-2,
                   MAILLE='M120',),
                _F(NUME_ORDRE=1,
                   GROUP_NO='E',
                   REFERENCE='ANALYTIQUE',
                   RESULTAT=RESU,
                   NOM_CHAM='EPSI_ELNO',
                   NOM_CMP='EPXY',
                   VALE_CALC= 1.06259265E-06,
                   VALE_REFE=0.0,
                   CRITERE='ABSOLU',
                   PRECISION=1.E-2,
                   MAILLE='M120',),
                _F(NUME_ORDRE=1,
                   GROUP_NO='F',
                   REFERENCE='ANALYTIQUE',
                   RESULTAT=RESU,
                   NOM_CHAM='EPSI_ELNO',
                   NOM_CMP='EPXX',
                   VALE_CALC=-6.14707170E-05,
                   VALE_REFE=-6.0000000000000002E-05,
                   CRITERE='RELATIF',
                   PRECISION=0.029999999999999999,
                   MAILLE='M5',),
                _F(NUME_ORDRE=1,
                   GROUP_NO='F',
                   REFERENCE='ANALYTIQUE',
                   RESULTAT=RESU,
                   NOM_CHAM='EPSI_ELNO',
                   NOM_CMP='EPYY',
                   VALE_CALC=-6.02091801E-05,
                   VALE_REFE=0.0,
                   CRITERE='ABSOLU',
                   PRECISION=1.E-2,
                   MAILLE='M5',),
                _F(NUME_ORDRE=1,
                   GROUP_NO='F',
                   REFERENCE='ANALYTIQUE',
                   RESULTAT=RESU,
                   NOM_CHAM='EPSI_ELNO',
                   NOM_CMP='EPZZ',
                   VALE_CALC= 2.01079951E-04,
                   VALE_REFE=2.0000000000000001E-4,
                   CRITERE='RELATIF',
                   PRECISION=1.E-2,
                   MAILLE='M5',),
                _F(NUME_ORDRE=1,
                   GROUP_NO='F',
                   REFERENCE='ANALYTIQUE',
                   RESULTAT=RESU,
                   NOM_CHAM='EPSI_ELNO',
                   NOM_CMP='EPXY',
                   VALE_CALC=-1.27996460E-08,
                   VALE_REFE=0.0,
                   CRITERE='ABSOLU',
                   PRECISION=1.E-2,
                   MAILLE='M5',),
                ),
          )

#--------------------------------------------------------------------

LIGNE=INTE_MAIL_2D(  MAILLAGE=M,
                     DEFI_SEGMENT=_F(  GROUP_NO_ORIG = 'A',
                                       GROUP_NO_EXTR = 'B', ),
                     INFO=2    )

T_RESU=POST_RELEVE_T( ACTION=_F( INTITULE = 'LIGNE',
                                 CHEMIN = LIGNE,
                                 RESULTAT = RESU,
                                 NOM_CHAM =  'SIGM_ELNO',
                                 OPERATION = 'EXTRACTION',
                                 TOUT_CMP = 'OUI',
                               ),
                     ) ;

T1=POST_RCCM(  OPTION='PM_PB',
               TYPE_RESU_MECA='EVOLUTION',
               MATER=MA,
               TRANSITOIRE=_F( TABL_RESU_MECA=T_RESU, ),
             )

IMPR_TABLE( TABLE=T1,
            NOM_PARA=('LIEU','PM','PB','PMB'),  )

TEST_TABLE(
           VALE_CALC=79.991799999999998,
           TOLE_MACHINE=1.E-3,
           NOM_PARA='PM',
           TABLE=T1,
           FILTRE=_F(NOM_PARA='LIEU',
                     VALE_K='ORIG',),
           )

TEST_TABLE(CRITERE='RELATIF',
           REFERENCE='NON_DEFINI',
           PRECISION=1.1999999999999999E-3,
           VALE_CALC=54.411801847,
           VALE_REFE=54.411799999999999,
           NOM_PARA='PB',
           TABLE=T1,
           FILTRE=_F(NOM_PARA='LIEU',
                     VALE_K='ORIG',),
           )

TEST_TABLE(
           VALE_CALC=134.51900000000001,
           TOLE_MACHINE=1.E-3,
           NOM_PARA='PMB',
           TABLE=T1,
           FILTRE=_F(NOM_PARA='LIEU',
                     VALE_K='ORIG',),
           )

TEST_TABLE(
           VALE_CALC=32.768700000000003,
           TOLE_MACHINE=1.E-3,
           NOM_PARA='PMB',
           TABLE=T1,
           FILTRE=_F(NOM_PARA='LIEU',
                     VALE_K='EXTR',),
           )

#-----------------------------------------------------------------

TEST_RESU(RESU=(_F(NUME_ORDRE=1,
                   GROUP_NO='A',
                   REFERENCE='ANALYTIQUE',
                   RESULTAT=RESU,
                   NOM_CHAM='SIGM_ELNO',
                   NOM_CMP='SIXX',
                   VALE_CALC=-56.606029476,
                   VALE_REFE=-60.0,
                   CRITERE='RELATIF',
                   PRECISION=0.059999999999999998,
                   MAILLE='M119',),
                _F(NUME_ORDRE=1,
                   GROUP_NO='A',
                   REFERENCE='ANALYTIQUE',
                   RESULTAT=RESU,
                   NOM_CHAM='SIGM_ELNO',
                   NOM_CMP='SIYY',
                   VALE_CALC=1.038279406,
                   VALE_REFE=0.0,
                   CRITERE='ABSOLU',
                   PRECISION=1.1000000000000001,
                   MAILLE='M119',),
                _F(NUME_ORDRE=1,
                   GROUP_NO='A',
                   REFERENCE='ANALYTIQUE',
                   RESULTAT=RESU,
                   NOM_CHAM='SIGM_ELNO',
                   NOM_CMP='SIZZ',
                   VALE_CALC=101.292377701,
                   VALE_REFE=100.0,
                   CRITERE='RELATIF',
                   PRECISION=0.014999999999999999,
                   MAILLE='M119',),
                _F(NUME_ORDRE=1,
                   GROUP_NO='A',
                   REFERENCE='ANALYTIQUE',
                   RESULTAT=RESU,
                   NOM_CHAM='SIGM_ELNO',
                   NOM_CMP='SIXY',
                   VALE_CALC=-0.163475792,
                   VALE_REFE=0.0,
                   CRITERE='ABSOLU',
                   PRECISION=1.2,
                   MAILLE='M119',),
                ),
          )

#-----------------------------------------------------------------

TEST_RESU(RESU=(_F(NUME_ORDRE=1,
                   GROUP_NO='B',
                   REFERENCE='ANALYTIQUE',
                   RESULTAT=RESU,
                   NOM_CHAM='SIGM_ELNO',
                   NOM_CMP='SIXX',
                   VALE_CALC=-0.508279688,
                   VALE_REFE=0.0,
                   CRITERE='ABSOLU',
                   PRECISION=1.0,
                   MAILLE='M1',),
                _F(NUME_ORDRE=1,
                   GROUP_NO='B',
                   REFERENCE='ANALYTIQUE',
                   RESULTAT=RESU,
                   NOM_CHAM='SIGM_ELNO',
                   NOM_CMP='SIYY',
                   VALE_CALC=-0.023820898,
                   VALE_REFE=0.0,
                   CRITERE='ABSOLU',
                   PRECISION=0.5,
                   MAILLE='M1',),
                _F(NUME_ORDRE=1,
                   GROUP_NO='B',
                   REFERENCE='ANALYTIQUE',
                   RESULTAT=RESU,
                   NOM_CHAM='SIGM_ELNO',
                   NOM_CMP='SIZZ',
                   VALE_CALC=40.502673959,
                   VALE_REFE=40.0,
                   CRITERE='RELATIF',
                   PRECISION=0.012999999999999999,
                   MAILLE='M1',),
                _F(NUME_ORDRE=1,
                   GROUP_NO='B',
                   REFERENCE='ANALYTIQUE',
                   RESULTAT=RESU,
                   NOM_CHAM='SIGM_ELNO',
                   NOM_CMP='SIXY',
                   VALE_CALC=-0.128070853,
                   VALE_REFE=0.0,
                   CRITERE='ABSOLU',
                   PRECISION=0.14999999999999999,
                   MAILLE='M1',),
                ),
          )

#-----------------------------------------------------------------

TEST_RESU(RESU=(_F(NUME_ORDRE=1,
                   GROUP_NO='E',
                   REFERENCE='ANALYTIQUE',
                   RESULTAT=RESU,
                   NOM_CHAM='SIGM_ELNO',
                   NOM_CMP='SIXX',
                   VALE_CALC=-56.606029476,
                   VALE_REFE=-60.0,
                   CRITERE='RELATIF',
                   PRECISION=0.059999999999999998,
                   MAILLE='M120',),
                _F(NUME_ORDRE=1,
                   GROUP_NO='E',
                   REFERENCE='ANALYTIQUE',
                   RESULTAT=RESU,
                   NOM_CHAM='SIGM_ELNO',
                   NOM_CMP='SIYY',
                   VALE_CALC=1.038279406,
                   VALE_REFE=0.0,
                   CRITERE='ABSOLU',
                   PRECISION=1.1000000000000001,
                   MAILLE='M120',),
                _F(NUME_ORDRE=1,
                   GROUP_NO='E',
                   REFERENCE='ANALYTIQUE',
                   RESULTAT=RESU,
                   NOM_CHAM='SIGM_ELNO',
                   NOM_CMP='SIZZ',
                   VALE_CALC=101.292377701,
                   VALE_REFE=100.0,
                   CRITERE='RELATIF',
                   PRECISION=0.014999999999999999,
                   MAILLE='M120',),
                _F(NUME_ORDRE=1,
                   GROUP_NO='E',
                   REFERENCE='ANALYTIQUE',
                   RESULTAT=RESU,
                   NOM_CHAM='SIGM_ELNO',
                   NOM_CMP='SIXY',
                   VALE_CALC=0.163475792,
                   VALE_REFE=0.0,
                   CRITERE='ABSOLU',
                   PRECISION=1.2,
                   MAILLE='M120',),
                ),
          )

#-----------------------------------------------------------------

TEST_RESU(RESU=(_F(NUME_ORDRE=1,
                   GROUP_NO='F',
                   REFERENCE='ANALYTIQUE',
                   RESULTAT=RESU,
                   NOM_CHAM='SIGM_ELNO',
                   NOM_CMP='SIXX',
                   VALE_CALC=-0.295488653,
                   VALE_REFE=0.0,
                   CRITERE='ABSOLU',
                   PRECISION=1.0,
                   MAILLE='M5',),
                _F(NUME_ORDRE=1,
                   GROUP_NO='F',
                   REFERENCE='ANALYTIQUE',
                   RESULTAT=RESU,
                   NOM_CHAM='SIGM_ELNO',
                   NOM_CMP='SIYY',
                   VALE_CALC=-0.101406056,
                   VALE_REFE=0.0,
                   CRITERE='ABSOLU',
                   PRECISION=0.5,
                   MAILLE='M5',),
                _F(NUME_ORDRE=1,
                   GROUP_NO='F',
                   REFERENCE='ANALYTIQUE',
                   RESULTAT=RESU,
                   NOM_CHAM='SIGM_ELNO',
                   NOM_CMP='SIZZ',
                   VALE_CALC=40.096921862,
                   VALE_REFE=40.0,
                   CRITERE='RELATIF',
                   PRECISION=1.E-2,
                   MAILLE='M5',),
                _F(NUME_ORDRE=1,
                   GROUP_NO='F',
                   REFERENCE='ANALYTIQUE',
                   RESULTAT=RESU,
                   NOM_CHAM='SIGM_ELNO',
                   NOM_CMP='SIXY',
                   VALE_CALC=-1.96917630E-03,
                   VALE_REFE=0.0,
                   CRITERE='ABSOLU',
                   PRECISION=0.14999999999999999,
                   MAILLE='M5',),
                ),
          )

#--------------------------------------------------------------------

FIN( )
#
