# MODIF  DATE 14/12/2009   AUTEUR MEUNIER S.MEUNIER 
# TITRE POUTRE CONSOLE 3D/PLAQUE
# sslv152a.para = tps_job 160 mem_job 192Mo ncpus 1 liste_test S
#            CONFIGURATION MANAGEMENT OF EDF VERSION
# ======================================================================
# COPYRIGHT (C) 1991 - 2001  EDF R&D                  WWW.CODE-ASTER.ORG
# THIS PROGRAM IS FREE SOFTWARE; YOU CAN REDISTRIBUTE IT AND/OR MODIFY
# IT UNDER THE TERMS OF THE GNU GENERAL PUBLIC LICENSE AS PUBLISHED BY
# THE FREE SOFTWARE FOUNDATION; EITHER VERSION 2 OF THE LICENSE, OR
# (AT YOUR OPTION) ANY LATER VERSION.
#
# THIS PROGRAM IS DISTRIBUTED IN THE HOPE THAT IT WILL BE USEFUL, BUT
# WITHOUT ANY WARRANTY; WITHOUT EVEN THE IMPLIED WARRANTY OF
# MERCHANTABILITY OR FITNESS FOR A PARTICULAR PURPOSE. SEE THE GNU
# GENERAL PUBLIC LICENSE FOR MORE DETAILS.
#
# YOU SHOULD HAVE RECEIVED A COPY OF THE GNU GENERAL PUBLIC LICENSE
# ALONG WITH THIS PROGRAM; IF NOT, WRITE TO EDF R&D CODE_ASTER,
#    1 AVENUE DU GENERAL DE GAULLE, 92141 CLAMART CEDEX, FRANCE.
# ======================================================================
# ARLEQUIN : RACCORD 3D/PLAQUE INCOMPATIBLE.
#
# Loi de comportement elastique
#
# VERSION 3D/PLAQUE DE SSNP141A

DEBUT(CODE=_F(NOM='SSLV152A',
              NIV_PUB_WEB='INTERNET',),
      DEBUG=_F(SDVERI='OUI',),);

#############################
# 1. Definition de constantes
#############################

p_force = -1.E6;

p_h = 1.0;

p_young = 2.E11;

p_b = 2.0;

p_l = 10.0;

inertie = p_b*p_h**3/12;

########################
# 2. Lecture du maillage
########################

MA_3D=LIRE_MAILLAGE(UNITE=20,
                    FORMAT='MED',);

MA_PLAQ=LIRE_MAILLAGE(UNITE=21,
                      FORMAT='MED',);

MAIL=ASSE_MAILLAGE(MAILLAGE_1=MA_3D,
                   MAILLAGE_2=MA_PLAQ,
                   OPERATION='SUPERPOSE',);

MAIL=DEFI_GROUP(reuse =MAIL,
                MAILLAGE=MAIL,
                CREA_GROUP_NO=(_F(GROUP_MA='GM_BAS',),
                               _F(GROUP_MA='GM_HBADR',),),);

MOD=AFFE_MODELE(MAILLAGE=MAIL,
                AFFE=(_F(GROUP_MA=('GM_TOUT',),
                         PHENOMENE='MECANIQUE',
                         MODELISATION='3D',),
                      _F(GROUP_MA=('GM_PLAQ','GM_DROIT',),
                         PHENOMENE='MECANIQUE',
                         MODELISATION='DKT',),),);

MATER=DEFI_MATERIAU(ELAS=_F(E=p_young,
                            NU=0.3,),);

CHMATER=AFFE_MATERIAU(MAILLAGE=MAIL,
                      AFFE=_F(TOUT='OUI',
                              MATER=MATER,),);

CARA=AFFE_CARA_ELEM(MODELE=MOD,
                    COQUE=_F(GROUP_MA='GM_PLAQ',
                             EPAIS=p_h,),);

EFFORT=AFFE_CHAR_MECA(MODELE=MOD,
                      FORCE_ARETE=_F(GROUP_MA='GM_DROIT',
                                     FZ=p_force,),);

ENCAST=AFFE_CHAR_MECA(MODELE=MOD,
                      DDL_IMPO=_F(GROUP_MA='GM_ENCAS',
                                  LIAISON='ENCASTRE',),);

################################################
# 3. Creation des relations de couplage Arlequin
#    entre les groupes de mailles
#    GM_TOUT (maillage fin) et
#    GM_PLAQ  (maillage grossier)
#    Collage sur le modele grossier
################################################

ARLQ=AFFE_CHAR_MECA(MODELE=MOD,
                    ARLEQUIN=_F(GROUP_MA_1='GM_TOUT',
                                GROUP_MA_2='GM_PLAQ',
                                CARA_ELEM=CARA,
                                COLLAGE='GROUP_MA_2',
                                POIDS_FIN=0.9999,),);

RESU=MECA_STATIQUE(MODELE=MOD,
                   CHAM_MATER=CHMATER,
                   CARA_ELEM=CARA,
                   EXCIT=(_F(CHARGE=ARLQ,),
                          _F(CHARGE=EFFORT,),
                          _F(CHARGE=ENCAST,),),);

#############################
# 4.Post-traitement du calcul
#############################

RESU=CALC_ELEM(reuse =RESU,
               RESULTAT=RESU,
               OPTION=('SIGM_ELNO_DEPL','EQUI_ELNO_SIGM',),);

RESU=CALC_NO(reuse =RESU,
             RESULTAT=RESU,
             OPTION=('EQUI_NOEU_SIGM','SIGM_NOEU_DEPL',),);

###########################################
# 5. Fleche au point M2
#    Coordonnees de M2 (9.5,0,0.5)
#    Noeud N1520 dans le maillage assemble
#    Solution theorique
#    Reference : Mecanique des structures
#    Voldoire/ Bamberger    
#    p.205
###########################################

X = 9.5;
fxtheo = (p_force*p_b/2./p_young/inertie*(p_l*X**2-X**3/3.));

DPL_2D=POST_RELEVE_T(ACTION=_F(OPERATION='EXTRACTION',
                               INTITULE='DEPL_2D',
                               RESULTAT=RESU,
                               NOM_CHAM='DEPL',
                               GROUP_NO='GM_BAS',
                               NOM_CMP='DZ',),);

TEST_TABLE(TABLE=DPL_2D,
           FILTRE=_F(NOM_PARA='COOR_X',
                     VALE=X,),
           NOM_PARA='DZ',
           VALE=fxtheo,
           CRITERE='RELATIF',
           PRECISION=0.03,
           REFERENCE='ANALYTIQUE',);

TEST_TABLE(TABLE=DPL_2D,
           FILTRE=_F(NOM_PARA='COOR_X',
                     VALE=X,),
           NOM_PARA='DZ',
           VALE=-1.8035385810051E-02,
           CRITERE='RELATIF',
           PRECISION=2e-06,
           REFERENCE='NON_REGRESSION',
           VERSION='10.0.30',);

###########################################
# 6. Contrainte de traction SIXX au point M1
#    Coordonnees de M1 (3.,0,0.833333)
#    Noeud N119
#    Solution theorique
#    Reference : Mecanique des structures
#    Voldoire/ Bamberger    
#    p.205
###########################################

X = 3.0;
Z = 0.833333;

sixxth = -p_force*p_b*(p_l-X)*(Z-p_h/2.)/inertie;

SIXX_Z=POST_RELEVE_T(ACTION=_F(OPERATION='EXTRACTION',
                               INTITULE='SIXX',
                               RESULTAT=RESU,
                               NOM_CHAM='SIGM_NOEU_DEPL',
                               GROUP_NO='GM_HBADR',
                               NOM_CMP='SIXX',),);

TEST_TABLE(TABLE=SIXX_Z,
           FILTRE=_F(NOM_PARA='COOR_Z',
                     VALE=Z,),
           NOM_PARA='SIXX',
           VALE=sixxth,
           CRITERE='RELATIF',
           PRECISION=0.04,
           REFERENCE='ANALYTIQUE',);

TEST_TABLE(TABLE=SIXX_Z,
           FILTRE=_F(NOM_PARA='COOR_Z',
                     VALE=Z,),
           NOM_PARA='SIXX',
           VALE=2.6890098959051E+07,
           CRITERE='RELATIF',
           PRECISION=0.005,
           REFERENCE='NON_REGRESSION',
           VERSION='10.00.19',);

FIN();
