# TITRE CYLINDRE SOUMIS A UNE PRESSION EN MODE 1 FOURIER (TRIA3)
#            CONFIGURATION MANAGEMENT OF EDF VERSION
# ======================================================================
# COPYRIGHT (C) 1991 - 2012  EDF R&D                  WWW.CODE-ASTER.ORG
# THIS PROGRAM IS FREE SOFTWARE; YOU CAN REDISTRIBUTE IT AND/OR MODIFY
# IT UNDER THE TERMS OF THE GNU GENERAL PUBLIC LICENSE AS PUBLISHED BY
# THE FREE SOFTWARE FOUNDATION; EITHER VERSION 2 OF THE LICENSE, OR
# (AT YOUR OPTION) ANY LATER VERSION.
#
# THIS PROGRAM IS DISTRIBUTED IN THE HOPE THAT IT WILL BE USEFUL, BUT
# WITHOUT ANY WARRANTY; WITHOUT EVEN THE IMPLIED WARRANTY OF
# MERCHANTABILITY OR FITNESS FOR A PARTICULAR PURPOSE. SEE THE GNU
# GENERAL PUBLIC LICENSE FOR MORE DETAILS.
#
# YOU SHOULD HAVE RECEIVED A COPY OF THE GNU GENERAL PUBLIC LICENSE
# ALONG WITH THIS PROGRAM; IF NOT, WRITE TO EDF R&D CODE_ASTER,
#    1 AVENUE DU GENERAL DE GAULLE, 92141 CLAMART CEDEX, FRANCE.
# ======================================================================
# CAS TEST SSLV109E
# ----------------------------------------------------------------------
# CYLINDRE EN FLEXION FOURIER HARMONIQUE 1
#
# MODELISATION : ELEMENTS MECANIQUE AXIS_FOURIER(4800 TRIA3,2541 NOEUDS)
# MAILLAGE     : ALIBABA ==> ASTER
#
# ----------------------------------------------------------------------
# GROUPE DE MAILLES: PRES_REP : GRMA7
# GROUPE DE NOEUDS : DDL_IMPO : GRNM5
# ----------------------------------------------------------------------
#

DEBUT(CODE=_F(NOM='SSLV109E',NIV_PUB_WEB='INTERNET'),DEBUG=_F(SDVERI='OUI'))

M=LIRE_MAILLAGE(FORMAT='MED',   )

MO=AFFE_MODELE(        MAILLAGE=M,
                                AFFE=_F(  TOUT = 'OUI',
                                       PHENOMENE = 'MECANIQUE',
                                       MODELISATION = 'AXIS_FOURIER'))

MA=DEFI_MATERIAU(          ELAS=_F(  E = 72.,
                                       NU = 0.3,
                                       RHO = 0.))

P=DEFI_FONCTION(      NOM_PARA='X',
                          VALE=(0.,0., .5,  .5, 1.,  1.,) )

U0=DEFI_CONSTANTE(    VALE=0. )

CM=AFFE_MATERIAU(      MAILLAGE=M,
                                AFFE=_F(  TOUT = 'OUI',
                                       MATER = MA))

BLOQU=AFFE_CHAR_MECA_F(       MODELE=MO,DDL_IMPO=(

                        _F(  NOEUD = 'N1',   DX = U0,  DY = U0,  DZ = U0),
                        _F(  GROUP_NO = 'GRNM5',   DY = U0)),
                           )

CH=AFFE_CHAR_MECA_F(  MODELE=MO,PRES_REP=_F(  GROUP_MA = 'GRMA7', PRES = P))

RESU=MACRO_ELAS_MULT(      MODELE=MO,
                             CHAM_MATER=CM,
                           CHAR_MECA_GLOBAL=BLOQU,
                           CAS_CHARGE=_F(
                                 MODE_FOURIER = 1,
                                 TYPE_MODE = 'SYME',
                                 CHAR_MECA = CH,
                                 SOUS_TITRE = 'MODE FOURIER 1 SYME'
                                 )
                          )

RESU=CALC_CHAMP(reuse=RESU,RESULTAT=RESU,CONTRAINTE=('SIGM_ELNO'))



TEST_RESU(RESU=(_F(NUME_MODE=1,
                   RESULTAT=RESU,
                   NOM_CHAM='DEPL',
                   NOEUD='N2421',
                   NOM_CMP='DX',
                   VALE_CALC= 2.02278822E-03,
                   VALE_REFE=2.0833333330000001E-3,
                   REFERENCE='NON_DEFINI',
                   CRITERE='RELATIF',
                   PRECISION=0.029999999999999999,),
                _F(NUME_MODE=1,
                   RESULTAT=RESU,
                   NOM_CHAM='DEPL',
                   NOEUD='N2421',
                   NOM_CMP='DY',
                   VALE_CALC=-1.01643954E-19,
                   VALE_REFE=0.0,
                   REFERENCE='NON_DEFINI',
                   CRITERE='ABSOLU',
                   PRECISION=1.E-2,),
                _F(NUME_MODE=1,
                   RESULTAT=RESU,
                   NOM_CHAM='DEPL',
                   NOEUD='N2421',
                   NOM_CMP='DZ',
                   VALE_CALC=-2.11432545E-03,
                   VALE_REFE=-2.0833333330000001E-3,
                   REFERENCE='NON_DEFINI',
                   CRITERE='RELATIF',
                   PRECISION=0.029999999999999999,),
                _F(NUME_MODE=1,
                   RESULTAT=RESU,
                   NOM_CHAM='DEPL',
                   NOEUD='N121',
                   NOM_CMP='DX',
                   VALE_CALC=0.249492400,
                   VALE_REFE=0.25,
                   REFERENCE='NON_DEFINI',
                   CRITERE='RELATIF',
                   PRECISION=1.E-2,),
                _F(NUME_MODE=1,
                   RESULTAT=RESU,
                   NOM_CHAM='DEPL',
                   NOEUD='N121',
                   NOM_CMP='DY',
                   VALE_CALC=-2.41078909E-05,
                   VALE_REFE=0.0,
                   REFERENCE='NON_DEFINI',
                   CRITERE='ABSOLU',
                   PRECISION=1.E-2,),
                _F(NUME_MODE=1,
                   RESULTAT=RESU,
                   NOM_CHAM='DEPL',
                   NOEUD='N121',
                   NOM_CMP='DZ',
                   VALE_CALC=0.249501124,
                   VALE_REFE=0.25,
                   REFERENCE='NON_DEFINI',
                   CRITERE='RELATIF',
                   PRECISION=1.E-2,),
                _F(NUME_MODE=1,
                   RESULTAT=RESU,
                   NOM_CHAM='DEPL',
                   NOEUD='N1331',
                   NOM_CMP='DX',
                   VALE_CALC=0.250034577,
                   VALE_REFE=0.25052083333300001,
                   REFERENCE='NON_DEFINI',
                   CRITERE='RELATIF',
                   PRECISION=1.E-2,),
                _F(NUME_MODE=1,
                   RESULTAT=RESU,
                   NOM_CHAM='DEPL',
                   NOEUD='N1331',
                   NOM_CMP='DY',
                   VALE_CALC=-0.041612555,
                   VALE_REFE=-0.041666666666000003,
                   REFERENCE='NON_DEFINI',
                   CRITERE='RELATIF',
                   PRECISION=1.E-2,),
                _F(NUME_MODE=1,
                   RESULTAT=RESU,
                   NOM_CHAM='DEPL',
                   NOEUD='N1331',
                   NOM_CMP='DZ',
                   VALE_CALC=0.249004731,
                   VALE_REFE=0.24947916666600001,
                   REFERENCE='NON_DEFINI',
                   CRITERE='RELATIF',
                   PRECISION=1.E-2,),
                _F(NUME_MODE=1,
                   RESULTAT=RESU,
                   NOM_CHAM='DEPL',
                   NOEUD='N2541',
                   NOM_CMP='DX',
                   VALE_CALC=0.251605498,
                   VALE_REFE=0.25208333333299998,
                   REFERENCE='NON_DEFINI',
                   CRITERE='RELATIF',
                   PRECISION=1.E-2,),
                _F(NUME_MODE=1,
                   RESULTAT=RESU,
                   NOM_CHAM='DEPL',
                   NOEUD='N2541',
                   NOM_CMP='DY',
                   VALE_CALC=-0.083157061,
                   VALE_REFE=-0.083333333332999998,
                   REFERENCE='NON_DEFINI',
                   CRITERE='RELATIF',
                   PRECISION=1.E-2,),
                _F(NUME_MODE=1,
                   RESULTAT=RESU,
                   NOM_CHAM='DEPL',
                   NOEUD='N2541',
                   NOM_CMP='DZ',
                   VALE_CALC=0.247448779,
                   VALE_REFE=0.24791666666600001,
                   REFERENCE='NON_DEFINI',
                   CRITERE='RELATIF',
                   PRECISION=1.E-2,),
                _F(NUME_MODE=1,
                   RESULTAT=RESU,
                   NOM_CHAM='SIGM_ELNO',
                   NOEUD='N2421',
                   NOM_CMP='SIYY',
                   VALE_CALC=-1.010280399,
                   VALE_REFE=-1.0,
                   REFERENCE='NON_DEFINI',
                   CRITERE='RELATIF',
                   PRECISION=0.010999999999999999,
                   MAILLE='M4562',),
                _F(NUME_MODE=1,
                   RESULTAT=RESU,
                   NOM_CHAM='SIGM_ELNO',
                   NOEUD='N121',
                   NOM_CMP='SIYY',
                   VALE_CALC=-0.015970182,
                   VALE_REFE=0.0,
                   REFERENCE='NON_DEFINI',
                   CRITERE='ABSOLU',
                   PRECISION=0.059999999999999998,
                   MAILLE='M239',),
                _F(NUME_MODE=1,
                   RESULTAT=RESU,
                   NOM_CHAM='SIGM_ELNO',
                   NOEUD='N1331',
                   NOM_CMP='SIYY',
                   VALE_CALC=-0.494220487,
                   VALE_REFE=-0.5,
                   REFERENCE='NON_DEFINI',
                   CRITERE='RELATIF',
                   PRECISION=0.012,
                   MAILLE='M2639',),
                _F(NUME_MODE=1,
                   RESULTAT=RESU,
                   NOM_CHAM='SIGM_ELNO',
                   NOEUD='N2541',
                   NOM_CMP='SIYY',
                   VALE_CALC=-0.984168492,
                   VALE_REFE=-1.0,
                   REFERENCE='NON_DEFINI',
                   CRITERE='RELATIF',
                   PRECISION=0.02,
                   MAILLE='M4800',),
                ),
          )

FIN()
#
