# MODIF  DATE 05/03/2012   AUTEUR PELLET J.PELLET 
#
# TITRE FATIGUE, CHARGEMENT CYCLIQUE : TRACTION-COMPRESSION + CISAILLEMENT
#            CONFIGURATION MANAGEMENT OF EDF VERSION
# ======================================================================
# COPYRIGHT (C) 1991 - 2012  EDF R&D                  WWW.CODE-ASTER.ORG
# THIS PROGRAM IS FREE SOFTWARE; YOU CAN REDISTRIBUTE IT AND/OR MODIFY
# IT UNDER THE TERMS OF THE GNU GENERAL PUBLIC LICENSE AS PUBLISHED BY
# THE FREE SOFTWARE FOUNDATION; EITHER VERSION 2 OF THE LICENSE, OR
# (AT YOUR OPTION) ANY LATER VERSION.
#
# THIS PROGRAM IS DISTRIBUTED IN THE HOPE THAT IT WILL BE USEFUL, BUT
# WITHOUT ANY WARRANTY; WITHOUT EVEN THE IMPLIED WARRANTY OF
# MERCHANTABILITY OR FITNESS FOR A PARTICULAR PURPOSE. SEE THE GNU
# GENERAL PUBLIC LICENSE FOR MORE DETAILS.
#
# YOU SHOULD HAVE RECEIVED A COPY OF THE GNU GENERAL PUBLIC LICENSE
# ALONG WITH THIS PROGRAM; IF NOT, WRITE TO EDF R&D CODE_ASTER,
#    1 AVENUE DU GENERAL DE GAULLE, 92141 CLAMART CEDEX, FRANCE.
# ======================================================================
# AVEC LE CRITERE EN FORMULE POUR RETROUVER LE CAS TEST sslv135g
#
# sslv135n.para = tps_job 60 mem_job 800Mo ncpus 1 liste_test S
#----------------------------------------------------------------------
#    Cas test sslv135n : cube 3D
#                        Essai de chargement cyclique :
#                                                + traction-compression
#                                                + cisaillement
#                        critere fournis par formule
#----------------------------------------------------------------------
#        Unites : Newton , Millimetre , Seconde (N,MM,S,->Mpa)
#----------------------------------------------------------------------
#
#               y       a
#               I<------------->                     a = 10 mm
#                     Face1                                    2
#                   (dessus)                         S = 100 mm
#               P1              P2
#               o--------------o
#              /I             /I
#        P5   / I        P6  / I
#            o--+-----------o  I
#            I  I   Face5   I  I  Face4
#  Face3     I  I (derri.)  I  I (cote d.)
# (cote g.)  I  I           I  I
#            I  I  P3       I  I P4
#            I  o-----------I--o      - x
#            I /            I /
#         P7 I/          P8 I/
#            o--------------o
#
#          /       Face2
#         z      (dessous)
#
#
#    CHARGEMENT   (Traction-compression)  FX(T) <=> +
#
#            I
#            I
#   1.0E+2 N I   +   +                   +
#            I
#            I
#           -I---I---I---I---+---+---I---I---+---> T
#            I  1s  2s  3s  4s  5s  6s  7s  8s
#            I
#  -1.0E+2 N I           +           +
#            I
#            I
#
#
#    CHARGEMENT   (Cisaillement)  FY(T) <=> x
#
#            I
#            I
#   1.0E+2 N I       x
#            I
#            I
#           -I---x---I---x---x---I---x---I---x---> T
#            I  1s  2s  3s  4s  5s  6s  7s  8s
#            I
#  -1.0E+2 N I                   x       x
#            I
#            I
#
#
#    CHARGEMENT   (Cisaillement)  FZ(T) <=> *
#
#            I
#            I
#   1.0E+2 N I                   *       *
#            I
#            I
#           -I---*---I---*---*---I---*---I---*---> T
#            I  1s  2s  3s  4s  5s  6s  7s  8s
#            I
#  -1.0E+2 N I       *
#            I
#            I
#
#--------------------------------------------------------------
#
DEBUT (CODE=_F(NOM='sslv135n',NIV_PUB_WEB='INTERNET'),
#IGNORE_ALARM=('PREPOST4_27'),
DEBUG=_F(SDVERI='OUI'))

CUBE = LIRE_MAILLAGE(FORMAT='MED', )


CUBE=DEFI_GROUP(reuse = CUBE,
                ALARME='OUI',
                CREA_GROUP_NO=(_F(GROUP_MA='FACE1',
                                  CRIT_NOEUD='TOUS'),
                               _F(GROUP_MA='FACE2',
                                  CRIT_NOEUD='TOUS'),
                               _F(GROUP_MA='FACE3',
                                  CRIT_NOEUD='TOUS'),
                               _F(GROUP_MA='FACE4',
                                CRIT_NOEUD='TOUS'),
                               _F(GROUP_MA='FACE5',
                                  CRIT_NOEUD='TOUS'),
                               _F(GROUP_MA='FACE6',
                                  CRIT_NOEUD='TOUS')),
                MAILLAGE=CUBE,
               );

CUBE=DEFI_GROUP(reuse = CUBE,
                ALARME='OUI',
                CREA_GROUP_MA=(_F(OPTION='APPUI',
                                  TYPE_APPUI='AU_MOINS_UN',
                                  GROUP_NO='FACE1',
                                  NOM='FACE1_3D'),
                               _F(OPTION='APPUI',
                                  TYPE_APPUI='AU_MOINS_UN',
                                  GROUP_NO='FACE2',
                                  NOM='FACE2_3D'),
                               _F(OPTION='APPUI',
                                  TYPE_APPUI='AU_MOINS_UN',
                                  GROUP_NO='FACE3',
                                  NOM='FACE3_3D'),
                               _F(OPTION='APPUI',
                                  TYPE_APPUI='AU_MOINS_UN',
                                  GROUP_NO='FACE4',
                                  NOM='FACE4_3D'),
                               _F(OPTION='APPUI',
                                  TYPE_APPUI='AU_MOINS_UN',
                                  GROUP_NO='FACE5',
                                  NOM='FACE5_3D'),
                               _F(OPTION='APPUI',
                                  TYPE_APPUI='AU_MOINS_UN',
                                  GROUP_NO='FACE6',
                                  NOM='FACE6_3D')),
                MAILLAGE=CUBE,
               );

WHOL=DEFI_FONCTION(       NOM_PARA='SIGM',
                            INTERPOL='LOG',
                          PROL_DROITE='LINEAIRE',
                         PROL_GAUCHE='LINEAIRE',
                         VALE=(  138.,    1000000.,
                                 152.,     500000.,
                                 165.,     200000.,
                                 180.,     100000.,
                                 200.,      50000.,
                                 250.,      20000.,
                                 295.,      12000.,
                                 305.,      10000.,
                                 340.,       5000.,
                                 430.,       2000.,
                                 540.,       1000.,
                                 690.,        500.,
                                 930.,        200.,
                                1210.,        100.,
                                1590.,         50.,
                                2210.,         20.,
                                2900.,         10.,  )  )

#               _____________________________
#              I                             I
#              I     AMPLITUDE CONSTANTE     I
#              I_____________________________I
#



COEFCS   = DEFI_FONCTION ( NOM_PARA    ='INST',
                          PROL_DROITE  ='LINEAIRE',
                          PROL_GAUCHE ='LINEAIRE',
                          VALE        =( 0.,    0.,
                                         1.,    0.,
                                         2.,  100.,
                                         3.,    0.,
                                         4.,    0.,
                                         5., -100.,
                                         6.,    0.,
                                         7., -100.,
                                         8.,    0.,
                                        )
                       )

COEFTR   = DEFI_FONCTION ( NOM_PARA    ='INST',
                          PROL_DROITE  ='LINEAIRE',
                          PROL_GAUCHE ='LINEAIRE',
                          VALE        =( 0.,    0.,
                                         1.,  100.,
                                         2.,  100.,
                                         3., -100.,
                                         4.,    0.,
                                         5.,    0.,
                                         6., -100.,
                                         7.,  100.,
                                         8.,    0.,
                                        )
                       )

ACIER1  = DEFI_MATERIAU   ( ELAS           =_F( E         = 200000.,
                                                NU        = .3,
                                                ALPHA     = 0. ),
                            FATIGUE        =_F( WOHLER    = WHOL, ),
                            CISA_PLAN_CRIT =_F( CRITERE = 'MATAKE_MODI_AC',
                                                COEF_FLEX_TORS = 1.5,
                                                MATAKE_A  = 1.0,
                                                MATAKE_B  = 2.0, )
                          )

ACIER2  = DEFI_MATERIAU   ( ELAS           =_F( E        = 200000.,
                                                NU       = .3,
                                                ALPHA    = 0. ),
                            FATIGUE        =_F( WOHLER   = WHOL, ),
                          )

LINST = DEFI_LIST_REEL   ( DEBUT      =  0.,
                           INTERVALLE =_F (JUSQU_A= 8.0, NOMBRE = 8  )
                                         );

TROISD   = AFFE_MODELE    ( MAILLAGE   =    CUBE,
                            AFFE       =_F ( PHENOMENE    = 'MECANIQUE',
                                             MODELISATION = '3D',
                                             TOUT         = 'OUI'    ))

MAT1  = AFFE_MATERIAU    ( MAILLAGE    =   CUBE,
                           AFFE        =_F ( TOUT       = 'OUI',
                                             MATER      = ACIER1,
                                             ))

MAT2  = AFFE_MATERIAU    ( MAILLAGE    =   CUBE,
                           AFFE        =_F ( TOUT       = 'OUI',
                                             MATER      = ACIER2,
                                             ))
# POUR RETROUVER MATAKE_AC
# ----------------------------------

CRIT_FAT =   FORMULE(
           NOM_PARA=('DTAUMA','NORMAX'),
           VALE=''' 1.5*( DTAUMA + max(0,NORMAX) ) '''
           )

WHOL_F =   FORMULE(
           NOM_PARA=('NBRUP'),
           VALE=''' 4098.3*(NBRUP**(-0.2693)) '''
           )


# POUR RETROUVER DANGVAN_MODI_AV
# ----------------------------------
CRIT_FA2 =   FORMULE(
           NOM_PARA=('TAUPR_1','TAUPR_2','PHYDR_1','PHYDR_2'),
           VALE=''' 1.5*( abs(TAUPR_1-TAUPR_2)/2.0 + max(0,PHYDR_1, PHYDR_2) ) '''
           )

WHOL_F2 =   FORMULE(
           NOM_PARA=('NBRUP'),
           VALE=''' 4098.3*(NBRUP**(-0.2693)) '''
           )
###WHOL_Fb EST UNE FONCTION TABULEE DE WHOL_F
###ON LANCE WHOL_Fb POUR OBTENIR LES VALEURS DE REFERENCE DE ENDO

WHOL_Fb=DEFI_FONCTION(   NOM_PARA='SIGM',
                         INTERPOL='LOG',
                         PROL_DROITE='LINEAIRE',
                         PROL_GAUCHE='LINEAIRE',
                         VALE=(   99.40397376,  1.0E+06,
                                 119.7956424,  5.0E+05,
                                 153.3085836,  2.0E+05,
                                 184.75821,  1.0E+05,
                                 222.6593931,  5.0E+04,
                                 284.948563,  2.0E+04,
                                 326.955129,  1.2E+04,
                                 343.4027321,  1.0E+04,
                                 413.8481526,  5.0E+03,
                                 529.6225539,  2.0E+03,
                                 638.2689916,  1.0E+03,
                                 769.2030912,  5.0E+02,
                                 984.3883634,  2.0E+02,
                                 1186.325173,  1.0E+02,
                                 1429.687173,  5.0E+01,
                                 1829.643475,  2.0E+01,
                                 2204.975387,  1.0E+01,
                              )
                          )
# CHARGEMENT SELON LES 2 AXES Y ET Z
# ----------------------------------



CL  = AFFE_CHAR_MECA (
           MODELE       =  TROISD,
           FACE_IMPO    = ( _F( GROUP_MA= 'FACE3' ,DX=0.),
                            _F( GROUP_MA= 'FACE3' ,DY=0.),
                            _F( GROUP_MA= 'FACE2' ,DZ=0.),
                          ),
                     );


TR  = AFFE_CHAR_MECA (
           MODELE       = TROISD,
           FORCE_FACE   = _F( GROUP_MA= 'FACE4', FX=1.0)
                     );

CS  = AFFE_CHAR_MECA (
           MODELE       = TROISD,
           FORCE_FACE   = (
                           _F( GROUP_MA= 'FACE4', FY= 1.0),
                           _F( GROUP_MA= 'FACE1', FZ=-1.0),
                          )
                     );

# CALCUL AVEC STAT_NON_LINE
# -------------------------

SOL_NL = STAT_NON_LINE ( TITRE      =
                'TEST TRACTION-COMPRESSION ET CISAILLEMENT - PLAN CRITIQUE',
                        MODELE     =   TROISD,
                        CHAM_MATER =   MAT1,
                        EXCIT      =(_F ( CHARGE       = CL,
                                          TYPE_CHARGE  = 'FIXE_CSTE'),
                                     _F ( CHARGE       = CS,
                                          FONC_MULT    = COEFCS,
                                          TYPE_CHARGE  = 'FIXE_CSTE'),
                                     _F ( CHARGE       = TR,
                                          FONC_MULT    = COEFTR,
                                          TYPE_CHARGE  = 'FIXE_CSTE') ),
                        COMP_ELAS  =_F ( RELATION     = 'ELAS',
                                         DEFORMATION  = 'PETIT',
                                         TOUT         = 'OUI'    ),
                        INCREMENT  =_F ( LIST_INST    = LINST, ),
                        NEWTON     =_F ( MATRICE      = 'ELASTIQUE',
                                         REAC_INCR    = 0 ))

SOL_NL = CALC_ELEM( reuse    = SOL_NL,
                    RESULTAT = SOL_NL,
                    OPTION   = (
                                'EPSI_ELGA',
                                'SIGM_ELNO',
                                'EPSI_ELNO')
                  )

SOL_NL = CALC_CHAMP( reuse    = SOL_NL,
                  RESULTAT = SOL_NL,
                  TOUT = 'OUI',
                  GROUP_MA = ('FACE1_3D', 'FACE2_3D', 'FACE3_3D','CUBE'),
                  CONTRAINTE='SIGM_NOEU',DEFORMATION='EPSI_NOEU'
                )

# CALCUL DE LA FATIGUE SUR L'ENSEMBLE DE LA STRUCTURE AUX NOUEDS
# -----------------------------------------------------------------------

FATNLN00=CALC_FATIGUE( TYPE_CALCUL   = 'FATIGUE_MULTI',
                       OPTION        = 'DOMA_NOEUD',
                       TYPE_CHARGE   = 'PERIODIQUE',
                       RESULTAT      = SOL_NL,
                       CHAM_MATER    = MAT1,
                       COEF_PREECROU = 1.0,
                       GROUP_MA      = ('CUBE'),
                       MAILLAGE      = CUBE,
                       CRITERE       = 'FORMULE_CRITERE',
                       FORMULE_GRDEQ   = CRIT_FAT,
                       COURBE_GRD_VIE  = 'WOHLER'
                     )

FATNLN01=CALC_FATIGUE( TYPE_CALCUL   = 'FATIGUE_MULTI',
                       OPTION        = 'DOMA_NOEUD',
                       TYPE_CHARGE   = 'PERIODIQUE',
                       RESULTAT      = SOL_NL,
                       CHAM_MATER    = MAT1,
                       COEF_PREECROU = 1.0,
                       GROUP_MA      = ('CUBE'),
                       MAILLAGE      = CUBE,
                       CRITERE       = 'FORMULE_CRITERE',
                       FORMULE_GRDEQ   = CRIT_FAT,
                       COURBE_GRD_VIE  = 'FORM_VIE',
                       FORMULE_VIE = WHOL
                     )

FATNLN02=CALC_FATIGUE( TYPE_CALCUL   = 'FATIGUE_MULTI',
                       OPTION        = 'DOMA_NOEUD',
                       TYPE_CHARGE   = 'PERIODIQUE',
                       RESULTAT      = SOL_NL,
                       CHAM_MATER    = MAT1,
                       COEF_PREECROU = 1.0,
                       GROUP_MA      = ('CUBE'),
                       MAILLAGE      = CUBE,
                       CRITERE       = 'FORMULE_CRITERE',
                       FORMULE_GRDEQ   = CRIT_FAT,
                       COURBE_GRD_VIE  = 'FORM_VIE',
                       FORMULE_VIE = WHOL_F
                       )

# CALCUL DE LA FATIGUE SUR L'ENSEMBLE DE LA STRUCTURE AUX POINTS DE GAUSS
# -----------------------------------------------------------------------
FATI_NL0=CALC_FATIGUE( TYPE_CALCUL   = 'FATIGUE_MULTI',
                      OPTION        = 'DOMA_ELGA',
                      TYPE_CHARGE   = 'PERIODIQUE',
                      MAILLAGE      = CUBE,
                      GROUP_MA      = ('CUBE'),
                      RESULTAT      = SOL_NL,
                      CHAM_MATER    = MAT1,
                      CRITERE       = 'FORMULE_CRITERE',
                      FORMULE_GRDEQ   = CRIT_FAT,
                      COURBE_GRD_VIE  = 'WOHLER',
                    )

FATI_NL1=CALC_FATIGUE( TYPE_CALCUL   = 'FATIGUE_MULTI',
                      OPTION        = 'DOMA_ELGA',
                      TYPE_CHARGE   = 'PERIODIQUE',
                      MAILLAGE      = CUBE,
                      GROUP_MA      = ('CUBE'),
                      RESULTAT      = SOL_NL,
                      CHAM_MATER    = MAT1,
                      CRITERE       = 'FORMULE_CRITERE',
                      FORMULE_GRDEQ   = CRIT_FAT,
                      COURBE_GRD_VIE  = 'FORM_VIE',
                      FORMULE_VIE     = WHOL,
                    )

FATI_NL2=CALC_FATIGUE( TYPE_CALCUL   = 'FATIGUE_MULTI',
                      OPTION        = 'DOMA_ELGA',
                      TYPE_CHARGE   = 'PERIODIQUE',
                      MAILLAGE      = CUBE,
                      GROUP_MA      = ('CUBE'),
                      RESULTAT      = SOL_NL,
                      CHAM_MATER    = MAT1,
                      CRITERE       = 'FORMULE_CRITERE',
                      FORMULE_GRDEQ   = CRIT_FAT,
                      COURBE_GRD_VIE  = 'FORM_VIE',
                      FORMULE_VIE = WHOL_Fb,
                    )

# TEST DES RESULTATS OBTENUS AUX POINTS DE GAUSS AVEC STAT_NON_LINE
# -----------------------------------------------------------------


TEST_RESU(CHAM_ELEM=( _F( CHAM_GD = FATI_NL0,
                          NOM_CMP = 'DTAUM1',
                          MAILLE = 'M60',
                          POINT = 3,
                          REFERENCE = 'NON_REGRESSION',
                          PRECISION = 1.0E-10,
                          VERSION = '9.02.15',
                          VALE = 1.3301710340281E+02 ),
                      _F( CHAM_GD = FATI_NL0,
                          NOM_CMP = 'VNM1X',
                          MAILLE = 'M60',
                          POINT = 3,
                          REFERENCE = 'NON_REGRESSION',
                          PRECISION = 1.0E-10,
                          VERSION = '9.02.15',
                          VALE = 6.9724586156165E-02 ),
                      _F( CHAM_GD = FATI_NL0,
                          NOM_CMP = 'VNM1Y',
                          MAILLE = 'M60',
                          POINT = 3,
                          REFERENCE = 'NON_REGRESSION',
                          PRECISION = 1.0E-10,
                          VERSION = '9.02.15',
                          VALE = 9.9695561948126E-01 ),
                      _F( CHAM_GD = FATI_NL0,
                          NOM_CMP = 'VNM1Z',
                          MAILLE = 'M60',
                          POINT = 3,
                          REFERENCE = 'NON_REGRESSION',
                          PRECISION = 1.0E-10,
                          VERSION = '9.02.15',
                          VALE = -3.4899496702501E-02 ),
                      _F( CHAM_GD = FATI_NL0,
                          NOM_CMP = 'SINMAX1',
                          MAILLE = 'M60',
                          POINT = 3,
                          REFERENCE = 'NON_REGRESSION',
                          PRECISION = 1.0E-10,
                          VERSION = '9.02.15',
                          VALE = 2.3572263291963E+01 ),
                      _F( CHAM_GD = FATI_NL0,
                          NOM_CMP = 'SINMOY1',
                          MAILLE = 'M60',
                          POINT = 3,
                          REFERENCE = 'NON_REGRESSION',
                          PRECISION = 1.0E-10,
                          VERSION = '9.02.15',
                          VALE = -2.2206246584495E+00, ),
                      _F( CHAM_GD = FATI_NL0,
                          NOM_CMP = 'EPNMAX1',
                          MAILLE = 'M60',
                          POINT = 3,
                          REFERENCE = 'NON_REGRESSION',
                          PRECISION = 1.0E-10,
                          VERSION = '9.02.15',
                          CRITERE = 'ABSOLU',
                          VALE = 0. ),
                      _F( CHAM_GD = FATI_NL0,
                          NOM_CMP = 'EPNMOY1',
                          MAILLE = 'M60',
                          POINT = 3,
                          REFERENCE = 'NON_REGRESSION',
                          PRECISION = 1.0E-10,
                          VERSION = '9.02.15',
                          VALE = -3.6273728322300E-05, ),
                      _F( CHAM_GD = FATI_NL0,
                          NOM_CMP = 'SIGEQ1',
                          MAILLE = 'M60',
                          POINT = 3,
                          REFERENCE = 'NON_REGRESSION',
                          PRECISION = 1.0E-10,
                          VERSION = '9.02.15',
                          VALE = 2.3488405004216E+02 ),
                      _F( CHAM_GD = FATI_NL0,
                          NOM_CMP = 'NBRUP1',
                          MAILLE = 'M60',
                          POINT = 3,
                          REFERENCE = 'NON_REGRESSION',
                          PRECISION = 1.0E-10,
                          VERSION = '9.02.15',
                          VALE = 2.5838000000000E+04 ),
                      _F( CHAM_GD = FATI_NL0,
                          NOM_CMP = 'ENDO1',
                          MAILLE = 'M60',
                          POINT = 3,
                          REFERENCE = 'NON_REGRESSION',
                          PRECISION = 1.0E-10,
                          VERSION = '9.02.15',
                          VALE = 3.8703052983311E-05 ),
                      _F( CHAM_GD = FATI_NL0,
                          NOM_CMP = 'DTAUM2',
                          MAILLE = 'M60',
                          POINT = 3,
                          REFERENCE = 'NON_REGRESSION',
                          PRECISION = 1.0E-10,
                          VERSION = '9.02.15',
                          VALE = 1.3301578669137E+02 ),
                      _F( CHAM_GD = FATI_NL0,
                          NOM_CMP = 'VNM2X',
                          MAILLE = 'M60',
                          POINT = 3,
                          REFERENCE = 'NON_REGRESSION',
                          PRECISION = 1.0E-10,
                          VERSION = '9.02.15',
                          VALE = -9.9014022022614E-01 ),
                      _F( CHAM_GD = FATI_NL0,
                          NOM_CMP = 'VNM2Y',
                          MAILLE = 'M60',
                          POINT = 3,
                          REFERENCE = 'NON_REGRESSION',
                          PRECISION = 1.0E-10,
                          VERSION = '9.02.15',
                          VALE = 6.9066688269602E-02 ),
                      _F( CHAM_GD = FATI_NL0,
                          NOM_CMP = 'VNM2Z',
                          MAILLE = 'M60',
                          POINT = 3,
                          REFERENCE = 'NON_REGRESSION',
                          PRECISION = 1.0E-10,
                          VERSION = '9.02.15',
                          VALE = 1.2186934340515E-01,
                          CRITERE = 'ABSOLU' ),
                      _F( CHAM_GD = FATI_NL0,
                          NOM_CMP = 'SINMAX2',
                          MAILLE = 'M60',
                          POINT = 3,
                          REFERENCE = 'NON_REGRESSION',
                          PRECISION = 1.0E-10,
                          VERSION = '9.02.15',
                          VALE = 1.2649266929831E+02 ),
                      _F( CHAM_GD = FATI_NL0,
                          NOM_CMP = 'SINMOY2',
                          MAILLE = 'M60',
                          POINT = 3,
                          REFERENCE = 'NON_REGRESSION',
                          PRECISION = 1.0E-10,
                          VERSION = '9.02.15',
                          VALE = 1.5811583662288E+01,
                          CRITERE = 'ABSOLU' ),
                      _F( CHAM_GD = FATI_NL0,
                          NOM_CMP = 'EPNMAX2',
                          MAILLE = 'M60',
                          POINT = 3,
                          REFERENCE = 'NON_REGRESSION',
                          PRECISION = 1.0E-10,
                          VERSION = '9.02.15',
                          VALE = 6.4748500609997E-04 ),
                      _F( CHAM_GD = FATI_NL0,
                          NOM_CMP = 'EPNMOY2',
                          MAILLE = 'M60',
                          POINT = 3,
                          REFERENCE = 'NON_REGRESSION',
                          PRECISION = 1.0E-10,
                          VERSION = '9.02.15',
                          VALE = 8.0935625762497E-05,
                          CRITERE = 'ABSOLU' ),
                      _F( CHAM_GD = FATI_NL0,
                          NOM_CMP = 'SIGEQ2',
                          MAILLE = 'M60',
                          POINT = 3,
                          REFERENCE = 'NON_REGRESSION',
                          PRECISION = 1.0E-10,
                          VERSION = '9.02.15',
                          VALE = 3.8926268398451E+02 ),
                      _F( CHAM_GD = FATI_NL0,
                          NOM_CMP = 'NBRUP2',
                          MAILLE = 'M60',
                          POINT = 7,
                          REFERENCE = 'NON_REGRESSION',
                          PRECISION = 1.0E-10,
                          VERSION = '9.02.15',
                          VALE = 3.3231000000000E+04 ),
                      _F( CHAM_GD = FATI_NL0,
                          NOM_CMP = 'ENDO2',
                          MAILLE = 'M60',
                          POINT = 7,
                          REFERENCE = 'NON_REGRESSION',
                          PRECISION = 1.0E-10,
                          VERSION = '9.02.15',
                          VALE = 3.0092095459418E-05 )
                )
          )


TEST_RESU(CHAM_ELEM=( _F( CHAM_GD = FATI_NL1,
                          NOM_CMP = 'DTAUM1',
                          MAILLE = 'M60',
                          POINT = 3,
                          REFERENCE = 'NON_REGRESSION',
                          PRECISION = 1.0E-10,
                          VERSION = '9.02.15',
                          VALE = 1.3301710340281E+02 ),
                      _F( CHAM_GD = FATI_NL1,
                          NOM_CMP = 'VNM1X',
                          MAILLE = 'M60',
                          POINT = 3,
                          REFERENCE = 'NON_REGRESSION',
                          PRECISION = 1.0E-10,
                          VERSION = '9.02.15',
                          VALE = 6.9724586156165E-02 ),
                      _F( CHAM_GD = FATI_NL1,
                          NOM_CMP = 'VNM1Y',
                          MAILLE = 'M60',
                          POINT = 3,
                          REFERENCE = 'NON_REGRESSION',
                          PRECISION = 1.0E-10,
                          VERSION = '9.02.15',
                          VALE = 9.9695561948126E-01 ),
                      _F( CHAM_GD = FATI_NL1,
                          NOM_CMP = 'VNM1Z',
                          MAILLE = 'M60',
                          POINT = 3,
                          REFERENCE = 'NON_REGRESSION',
                          PRECISION = 1.0E-10,
                          VERSION = '9.02.15',
                          VALE = -3.4899496702501E-02 ),
                      _F( CHAM_GD = FATI_NL1,
                          NOM_CMP = 'SINMAX1',
                          MAILLE = 'M60',
                          POINT = 3,
                          REFERENCE = 'NON_REGRESSION',
                          PRECISION = 1.0E-10,
                          VERSION = '9.02.15',
                          VALE = 2.3572263291963E+01 ),
                      _F( CHAM_GD = FATI_NL1,
                          NOM_CMP = 'SINMOY1',
                          MAILLE = 'M60',
                          POINT = 3,
                          REFERENCE = 'NON_REGRESSION',
                          PRECISION = 1.0E-10,
                          VERSION = '9.02.15',
                          VALE = -2.2206246584495E+00, ),
                      _F( CHAM_GD = FATI_NL1,
                          NOM_CMP = 'EPNMAX1',
                          MAILLE = 'M60',
                          POINT = 3,
                          REFERENCE = 'NON_REGRESSION',
                          PRECISION = 1.0E-10,
                          VERSION = '9.02.15',
                          CRITERE = 'ABSOLU',
                          VALE = 0. ),
                      _F( CHAM_GD = FATI_NL1,
                          NOM_CMP = 'EPNMOY1',
                          MAILLE = 'M60',
                          POINT = 3,
                          REFERENCE = 'NON_REGRESSION',
                          PRECISION = 1.0E-10,
                          VERSION = '9.02.15',
                          VALE = -3.6273728322300E-05, ),
                      _F( CHAM_GD = FATI_NL1,
                          NOM_CMP = 'SIGEQ1',
                          MAILLE = 'M60',
                          POINT = 3,
                          REFERENCE = 'NON_REGRESSION',
                          PRECISION = 1.0E-10,
                          VERSION = '9.02.15',
                          VALE = 2.3488405004216E+02 ),
                      _F( CHAM_GD = FATI_NL1,
                          NOM_CMP = 'NBRUP1',
                          MAILLE = 'M60',
                          POINT = 3,
                          REFERENCE = 'NON_REGRESSION',
                          PRECISION = 1.0E-10,
                          VERSION = '9.02.15',
                          VALE = 2.5838000000000E+04 ),
                      _F( CHAM_GD = FATI_NL1,
                          NOM_CMP = 'ENDO1',
                          MAILLE = 'M60',
                          POINT = 3,
                          REFERENCE = 'NON_REGRESSION',
                          PRECISION = 1.0E-10,
                          VERSION = '9.02.15',
                          VALE = 3.8703052983311E-05 ),
                      _F( CHAM_GD = FATI_NL1,
                          NOM_CMP = 'DTAUM2',
                          MAILLE = 'M60',
                          POINT = 3,
                          REFERENCE = 'NON_REGRESSION',
                          PRECISION = 1.0E-10,
                          VERSION = '9.02.15',
                          VALE = 1.3301578669137E+02 ),
                      _F( CHAM_GD = FATI_NL1,
                          NOM_CMP = 'VNM2X',
                          MAILLE = 'M60',
                          POINT = 3,
                          REFERENCE = 'NON_REGRESSION',
                          PRECISION = 1.0E-10,
                          VERSION = '9.02.15',
                          VALE = -9.9014022022614E-01 ),
                      _F( CHAM_GD = FATI_NL1,
                          NOM_CMP = 'VNM2Y',
                          MAILLE = 'M60',
                          POINT = 3,
                          REFERENCE = 'NON_REGRESSION',
                          PRECISION = 1.0E-10,
                          VERSION = '9.02.15',
                          VALE = 6.9066688269602E-02 ),
                      _F( CHAM_GD = FATI_NL1,
                          NOM_CMP = 'VNM2Z',
                          MAILLE = 'M60',
                          POINT = 3,
                          REFERENCE = 'NON_REGRESSION',
                          PRECISION = 1.0E-10,
                          VERSION = '9.02.15',
                          VALE = 1.2186934340515E-01,
                          CRITERE = 'ABSOLU' ),
                      _F( CHAM_GD = FATI_NL1,
                          NOM_CMP = 'SINMAX2',
                          MAILLE = 'M60',
                          POINT = 3,
                          REFERENCE = 'NON_REGRESSION',
                          PRECISION = 1.0E-10,
                          VERSION = '9.02.15',
                          VALE = 1.2649266929831E+02 ),
                      _F( CHAM_GD = FATI_NL1,
                          NOM_CMP = 'SINMOY2',
                          MAILLE = 'M60',
                          POINT = 3,
                          REFERENCE = 'NON_REGRESSION',
                          PRECISION = 1.0E-10,
                          VERSION = '9.02.15',
                          VALE = 1.5811583662288E+01,
                          CRITERE = 'ABSOLU' ),
                      _F( CHAM_GD = FATI_NL1,
                          NOM_CMP = 'EPNMAX2',
                          MAILLE = 'M60',
                          POINT = 3,
                          REFERENCE = 'NON_REGRESSION',
                          PRECISION = 1.0E-10,
                          VERSION = '9.02.15',
                          VALE = 6.4748500609997E-04 ),
                      _F( CHAM_GD = FATI_NL1,
                          NOM_CMP = 'EPNMOY2',
                          MAILLE = 'M60',
                          POINT = 3,
                          REFERENCE = 'NON_REGRESSION',
                          PRECISION = 1.0E-10,
                          VERSION = '9.02.15',
                          VALE = 8.0935625762497E-05,
                          CRITERE = 'ABSOLU' ),
                      _F( CHAM_GD = FATI_NL1,
                          NOM_CMP = 'SIGEQ2',
                          MAILLE = 'M60',
                          POINT = 3,
                          REFERENCE = 'NON_REGRESSION',
                          PRECISION = 1.0E-10,
                          VERSION = '9.02.15',
                          VALE = 3.8926268398451E+02 ),
                      _F( CHAM_GD = FATI_NL1,
                          NOM_CMP = 'NBRUP2',
                          MAILLE = 'M60',
                          POINT = 7,
                          REFERENCE = 'NON_REGRESSION',
                          PRECISION = 1.0E-10,
                          VERSION = '9.02.15',
                          VALE = 3.3231000000000E+04 ),
                      _F( CHAM_GD = FATI_NL1,
                          NOM_CMP = 'ENDO2',
                          MAILLE = 'M60',
                          POINT = 7,
                          REFERENCE = 'NON_REGRESSION',
                          PRECISION = 1.0E-10,
                          VERSION = '9.02.15',
                          VALE = 3.0092095459418E-05 )
                )
          )

TEST_RESU(CHAM_ELEM=( _F( CHAM_GD = FATI_NL2,
                          NOM_CMP = 'DTAUM1',
                          MAILLE = 'M60',
                          POINT = 3,
                          REFERENCE = 'NON_REGRESSION',
                          PRECISION = 1.0E-10,
                          VERSION = '9.02.15',
                          VALE = 1.3301710340281E+02 ),
                      _F( CHAM_GD = FATI_NL2,
                          NOM_CMP = 'VNM1X',
                          MAILLE = 'M60',
                          POINT = 3,
                          REFERENCE = 'NON_REGRESSION',
                          PRECISION = 1.0E-10,
                          VERSION = '9.02.15',
                          VALE = 6.9724586156165E-02 ),
                      _F( CHAM_GD = FATI_NL2,
                          NOM_CMP = 'VNM1Y',
                          MAILLE = 'M60',
                          POINT = 3,
                          REFERENCE = 'NON_REGRESSION',
                          PRECISION = 1.0E-10,
                          VERSION = '9.02.15',
                          VALE = 9.9695561948126E-01 ),
                      _F( CHAM_GD = FATI_NL2,
                          NOM_CMP = 'VNM1Z',
                          MAILLE = 'M60',
                          POINT = 3,
                          REFERENCE = 'NON_REGRESSION',
                          PRECISION = 1.0E-10,
                          VERSION = '9.02.15',
                          VALE = -3.4899496702501E-02 ),
                      _F( CHAM_GD = FATI_NL2,
                          NOM_CMP = 'SINMAX1',
                          MAILLE = 'M60',
                          POINT = 3,
                          REFERENCE = 'NON_REGRESSION',
                          PRECISION = 1.0E-10,
                          VERSION = '9.02.15',
                          VALE = 2.3572263291963E+01 ),
                      _F( CHAM_GD = FATI_NL2,
                          NOM_CMP = 'SINMOY1',
                          MAILLE = 'M60',
                          POINT = 3,
                          REFERENCE = 'NON_REGRESSION',
                          PRECISION = 1.0E-10,
                          VERSION = '9.02.15',
                          VALE = -2.2206246584495E+00, ),
                      _F( CHAM_GD = FATI_NL2,
                          NOM_CMP = 'EPNMAX1',
                          MAILLE = 'M60',
                          POINT = 3,
                          REFERENCE = 'NON_REGRESSION',
                          PRECISION = 1.0E-10,
                          VERSION = '9.02.15',
                          CRITERE = 'ABSOLU',
                          VALE = 0. ),
                      _F( CHAM_GD = FATI_NL2,
                          NOM_CMP = 'EPNMOY1',
                          MAILLE = 'M60',
                          POINT = 3,
                          REFERENCE = 'NON_REGRESSION',
                          PRECISION = 1.0E-10,
                          VERSION = '9.02.15',
                          VALE = -3.6273728322300E-05, ),
                      _F( CHAM_GD = FATI_NL2,
                          NOM_CMP = 'SIGEQ1',
                          MAILLE = 'M60',
                          POINT = 3,
                          REFERENCE = 'NON_REGRESSION',
                          PRECISION = 1.0E-10,
                          VERSION = '9.02.15',
                          VALE = 2.3488405004216E+02 ),
                      _F( CHAM_GD = FATI_NL2,
                          NOM_CMP = 'NBRUP1',
                          MAILLE = 'M60',
                          POINT = 3,
                          REFERENCE = 'NON_REGRESSION',
                          PRECISION = 4.0E-3,
                          VALE = 40996.0 ),
                      _F( CHAM_GD = FATI_NL2,
                          NOM_CMP = 'ENDO1',
                          MAILLE = 'M60',
                          POINT = 3,
                          REFERENCE = 'NON_REGRESSION',
                          PRECISION = 4.0E-3,
                          VALE = 2.4392579485325E-05 ),
                      _F( CHAM_GD = FATI_NL2,
                          NOM_CMP = 'DTAUM2',
                          MAILLE = 'M60',
                          POINT = 3,
                          REFERENCE = 'NON_REGRESSION',
                          PRECISION = 1.0E-10,
                          VERSION = '9.02.15',
                          VALE = 1.3301578669137E+02 ),
                      _F( CHAM_GD = FATI_NL2,
                          NOM_CMP = 'VNM2X',
                          MAILLE = 'M60',
                          POINT = 3,
                          REFERENCE = 'NON_REGRESSION',
                          PRECISION = 1.0E-10,
                          VERSION = '9.02.15',
                          VALE = -9.9014022022614E-01 ),
                      _F( CHAM_GD = FATI_NL2,
                          NOM_CMP = 'VNM2Y',
                          MAILLE = 'M60',
                          POINT = 3,
                          REFERENCE = 'NON_REGRESSION',
                          PRECISION = 1.0E-10,
                          VERSION = '9.02.15',
                          VALE = 6.9066688269602E-02 ),
                      _F( CHAM_GD = FATI_NL2,
                          NOM_CMP = 'VNM2Z',
                          MAILLE = 'M60',
                          POINT = 3,
                          REFERENCE = 'NON_REGRESSION',
                          PRECISION = 1.0E-10,
                          VERSION = '9.02.15',
                          VALE = 1.2186934340515E-01,
                          CRITERE = 'ABSOLU' ),
                      _F( CHAM_GD = FATI_NL2,
                          NOM_CMP = 'SINMAX2',
                          MAILLE = 'M60',
                          POINT = 3,
                          REFERENCE = 'NON_REGRESSION',
                          PRECISION = 1.0E-10,
                          VERSION = '9.02.15',
                          VALE = 1.2649266929831E+02 ),
                      _F( CHAM_GD = FATI_NL2,
                          NOM_CMP = 'SINMOY2',
                          MAILLE = 'M60',
                          POINT = 3,
                          REFERENCE = 'NON_REGRESSION',
                          PRECISION = 1.0E-10,
                          VERSION = '9.02.15',
                          VALE = 1.5811583662288E+01,
                          CRITERE = 'ABSOLU' ),
                      _F( CHAM_GD = FATI_NL2,
                          NOM_CMP = 'EPNMAX2',
                          MAILLE = 'M60',
                          POINT = 3,
                          REFERENCE = 'NON_REGRESSION',
                          PRECISION = 1.0E-10,
                          VERSION = '9.02.15',
                          VALE = 6.4748500609997E-04 ),
                      _F( CHAM_GD = FATI_NL2,
                          NOM_CMP = 'EPNMOY2',
                          MAILLE = 'M60',
                          POINT = 3,
                          REFERENCE = 'NON_REGRESSION',
                          PRECISION = 1.0E-10,
                          VERSION = '9.02.15',
                          VALE = 8.0935625762497E-05,
                          CRITERE = 'ABSOLU' ),
                      _F( CHAM_GD = FATI_NL2,
                          NOM_CMP = 'SIGEQ2',
                          MAILLE = 'M60',
                          POINT = 3,
                          REFERENCE = 'NON_REGRESSION',
                          PRECISION = 1.0E-10,
                          VERSION = '9.02.15',
                          VALE = 3.8926268398451E+02 ),
                      _F( CHAM_GD = FATI_NL2,
                          NOM_CMP = 'NBRUP2',
                          MAILLE = 'M60',
                          POINT = 7,
                          REFERENCE = 'NON_REGRESSION',
                          PRECISION = 4.0E-3,
                          VALE = 51477.0 ),
                      _F( CHAM_GD = FATI_NL2,
                          NOM_CMP = 'ENDO2',
                          MAILLE = 'M60',
                          POINT = 7,
                          REFERENCE = 'NON_REGRESSION',
                          PRECISION = 4.0E-3,
                          VALE = 1.9426163934314E-05 )
                )
          )

# TEST DES RESULTATS OBTENUS AUX NOEUDS AVEC STAT_NON_LINE
# --------------------------------------------------------

TEST_RESU(CHAM_NO=( _F( CHAM_GD = FATNLN00,
                        NOM_CMP = 'DTAUM1',
                        NOEUD = 'N214',
                        REFERENCE = 'NON_REGRESSION',
                        PRECISION = 1.0E-10,
                        VERSION = '9.02.15',
                        VALE = 1.1557902030140E+02 ),
                    _F( CHAM_GD = FATNLN00,
                        NOM_CMP = 'VNM1X',
                        NOEUD = 'N214',
                        REFERENCE = 'NON_REGRESSION',
                        PRECISION = 1.0E-10,
                        VERSION = '9.02.15',
                        VALE = 3.8280107156988E-01 ),
                    _F( CHAM_GD = FATNLN00,
                        NOM_CMP = 'VNM1Y',
                        NOEUD = 'N214',
                        REFERENCE = 'NON_REGRESSION',
                        PRECISION = 1.0E-10,
                        VERSION = '9.02.15',
                        VALE = 8.4447216637038E-01 ),
                    _F( CHAM_GD = FATNLN00,
                        NOM_CMP = 'VNM1Z',
                        NOEUD = 'N214',
                        REFERENCE = 'NON_REGRESSION',
                        PRECISION = 1.0E-10,
                        VERSION = '9.02.15',
                        VALE = 3.7460659341591E-01, ),
                    _F( CHAM_GD = FATNLN00,
                        NOM_CMP = 'SINMAX1',
                        NOEUD = 'N214',
                        REFERENCE = 'NON_REGRESSION',
                        PRECISION = 1.0E-10,
                        VERSION = '9.02.15',
                        VALE = 7.3701737537055E+01 ),
                    _F( CHAM_GD = FATNLN00,
                        NOM_CMP = 'SINMOY1',
                        NOEUD = 'N214',
                        REFERENCE = 'NON_REGRESSION',
                        PRECISION = 1.0E-10,
                        VERSION = '9.02.15',
                        VALE = -6.6290480086559E+00, ),
                    _F( CHAM_GD = FATNLN00,
                        NOM_CMP = 'EPNMAX1',
                        NOEUD = 'N214',
                        REFERENCE = 'NON_REGRESSION',
                        PRECISION = 1.0E-10,
                        VERSION = '9.02.15',
                        CRITERE='ABSOLU',
                        VALE = 0. ),
                    _F( CHAM_GD = FATNLN00,
                        NOM_CMP = 'EPNMOY1',
                        NOEUD = 'N214',
                        REFERENCE = 'NON_REGRESSION',
                        PRECISION = 1.0E-10,
                        VERSION = '9.02.15',
                        VALE = -4.2254262706848E-05, ),
                    _F( CHAM_GD = FATNLN00,
                        NOM_CMP = 'SIGEQ1',
                        NOEUD = 'N214',
                        REFERENCE = 'NON_REGRESSION',
                        PRECISION = 1.0E-10,
                        VERSION = '9.02.15',
                        VALE = 2.8392113675768E+02 ),
                    _F( CHAM_GD = FATNLN00,
                        NOM_CMP = 'NBRUP1',
                        NOEUD = 'N214',
                        REFERENCE = 'NON_REGRESSION',
                        PRECISION = 1.0E-10,
                        VERSION = '9.02.15',
                        VALE = 1.3505000000000E+04 ),
                    _F( CHAM_GD = FATNLN00,
                        NOM_CMP = 'ENDO1',
                        NOEUD = 'N214',
                        REFERENCE = 'NON_REGRESSION',
                        PRECISION = 1.0E-10,
                        VERSION = '9.02.15',
                        VALE = 7.4047664409136E-05 ),
                    _F( CHAM_GD = FATNLN00,
                        NOM_CMP = 'DTAUM2',
                        NOEUD = 'N214',
                        REFERENCE = 'NON_REGRESSION',
                        PRECISION = 1.0E-10,
                        VERSION = '9.02.15',
                        VALE = 1.1520977056656E+02 ),
                    _F( CHAM_GD = FATNLN00,
                        NOM_CMP = 'VNM2X',
                        NOEUD = 'N214',
                        REFERENCE = 'NON_REGRESSION',
                        PRECISION = 1.0E-10,
                        VERSION = '9.02.15',
                        VALE = -9.1924333354254E-01 ),
                    _F( CHAM_GD = FATNLN00,
                        NOM_CMP = 'VNM2Y',
                        NOEUD = 'N214',
                        REFERENCE = 'NON_REGRESSION',
                        PRECISION = 1.0E-10,
                        VERSION = '9.02.15',
                        VALE = 3.9019564505737E-01 ),
                    _F( CHAM_GD = FATNLN00,
                        NOM_CMP = 'VNM2Z',
                        NOEUD = 'N214',
                        REFERENCE = 'NON_REGRESSION',
                        PRECISION = 1.0E-10,
                        VERSION = '9.02.15',
                        VALE = 5.2335956242944E-02, ),
                    _F( CHAM_GD = FATNLN00,
                        NOM_CMP = 'SINMAX2',
                        NOEUD = 'N214',
                        REFERENCE = 'NON_REGRESSION',
                        PRECISION = 1.0E-10,
                        VERSION = '9.02.15',
                        VALE = 1.1296755026397E+02 ),
                    _F( CHAM_GD = FATNLN00,
                        NOM_CMP = 'SINMOY2',
                        NOEUD = 'N214',
                        REFERENCE = 'NON_REGRESSION',
                        PRECISION = 1.0E-10,
                        VERSION = '9.02.15',
                        VALE = 6.8110853707598E+00, ),
                    _F( CHAM_GD = FATNLN00,
                        NOM_CMP = 'EPNMAX2',
                        NOEUD = 'N214',
                        REFERENCE = 'NON_REGRESSION',
                        PRECISION = 1.0E-10,
                        VERSION = '9.02.15',
                        VALE = 3.6085283407484E-04 ),
                    _F( CHAM_GD = FATNLN00,
                        NOM_CMP = 'EPNMOY2',
                        NOEUD = 'N214',
                        REFERENCE = 'NON_REGRESSION',
                        PRECISION = 1.0E-10,
                        VERSION = '9.02.15',
                        VALE = 4.5106604259354E-05, ),
                    _F( CHAM_GD = FATNLN00,
                        NOM_CMP = 'SIGEQ2',
                        NOEUD = 'N214',
                        REFERENCE = 'NON_REGRESSION',
                        PRECISION = 1.0E-10,
                        VERSION = '9.02.15',
                        VALE = 3.4226598124581E+02 ),
                    _F( CHAM_GD = FATNLN00,
                        NOM_CMP = 'NBRUP2',
                        NOEUD = 'N214',
                        REFERENCE = 'NON_REGRESSION',
                        PRECISION = 1.0E-10,
                        VERSION = '9.02.15',
                        VALE = 4.8720000000000E+03 ),
                    _F( CHAM_GD = FATNLN00,
                        NOM_CMP = 'ENDO2',
                        NOEUD = 'N214',
                        REFERENCE = 'NON_REGRESSION',
                        PRECISION = 1.0E-10,
                        VERSION = '9.02.15',
                        VALE = 2.0525129321838E-04 )
                )
          )


TEST_RESU(CHAM_NO=( _F( CHAM_GD = FATNLN01,
                        NOM_CMP = 'DTAUM1',
                        NOEUD = 'N214',
                        REFERENCE = 'NON_REGRESSION',
                        PRECISION = 1.0E-10,
                        VERSION = '9.02.15',
                        VALE = 1.1557902030140E+02 ),
                    _F( CHAM_GD = FATNLN01,
                        NOM_CMP = 'VNM1X',
                        NOEUD = 'N214',
                        REFERENCE = 'NON_REGRESSION',
                        PRECISION = 1.0E-10,
                        VERSION = '9.02.15',
                        VALE = 3.8280107156988E-01 ),
                    _F( CHAM_GD = FATNLN01,
                        NOM_CMP = 'VNM1Y',
                        NOEUD = 'N214',
                        REFERENCE = 'NON_REGRESSION',
                        PRECISION = 1.0E-10,
                        VERSION = '9.02.15',
                        VALE = 8.4447216637038E-01 ),
                    _F( CHAM_GD = FATNLN01,
                        NOM_CMP = 'VNM1Z',
                        NOEUD = 'N214',
                        REFERENCE = 'NON_REGRESSION',
                        PRECISION = 1.0E-10,
                        VERSION = '9.02.15',
                        VALE = 3.7460659341591E-01, ),
                    _F( CHAM_GD = FATNLN01,
                        NOM_CMP = 'SINMAX1',
                        NOEUD = 'N214',
                        REFERENCE = 'NON_REGRESSION',
                        PRECISION = 1.0E-10,
                        VERSION = '9.02.15',
                        VALE = 7.3701737537055E+01 ),
                    _F( CHAM_GD = FATNLN01,
                        NOM_CMP = 'SINMOY1',
                        NOEUD = 'N214',
                        REFERENCE = 'NON_REGRESSION',
                        PRECISION = 1.0E-10,
                        VERSION = '9.02.15',
                        VALE = -6.6290480086559E+00, ),
                    _F( CHAM_GD = FATNLN01,
                        NOM_CMP = 'EPNMAX1',
                        NOEUD = 'N214',
                        REFERENCE = 'NON_REGRESSION',
                        PRECISION = 1.0E-10,
                        VERSION = '9.02.15',
                        CRITERE='ABSOLU',
                        VALE = 0. ),
                    _F( CHAM_GD = FATNLN01,
                        NOM_CMP = 'EPNMOY1',
                        NOEUD = 'N214',
                        REFERENCE = 'NON_REGRESSION',
                        PRECISION = 1.0E-10,
                        VERSION = '9.02.15',
                        VALE = -4.2254262706848E-05, ),
                    _F( CHAM_GD = FATNLN01,
                        NOM_CMP = 'SIGEQ1',
                        NOEUD = 'N214',
                        REFERENCE = 'NON_REGRESSION',
                        PRECISION = 1.0E-10,
                        VERSION = '9.02.15',
                        VALE = 2.8392113675768E+02 ),
                    _F( CHAM_GD = FATNLN01,
                        NOM_CMP = 'NBRUP1',
                        NOEUD = 'N214',
                        REFERENCE = 'NON_REGRESSION',
                        PRECISION = 1.0E-10,
                        VERSION = '9.02.15',
                        VALE = 1.3505000000000E+04 ),
                    _F( CHAM_GD = FATNLN01,
                        NOM_CMP = 'ENDO1',
                        NOEUD = 'N214',
                        REFERENCE = 'NON_REGRESSION',
                        PRECISION = 1.0E-10,
                        VERSION = '9.02.15',
                        VALE = 7.4047664409136E-05 ),
                    _F( CHAM_GD = FATNLN01,
                        NOM_CMP = 'DTAUM2',
                        NOEUD = 'N214',
                        REFERENCE = 'NON_REGRESSION',
                        PRECISION = 1.0E-10,
                        VERSION = '9.02.15',
                        VALE = 1.1520977056656E+02 ),
                    _F( CHAM_GD = FATNLN01,
                        NOM_CMP = 'VNM2X',
                        NOEUD = 'N214',
                        REFERENCE = 'NON_REGRESSION',
                        PRECISION = 1.0E-10,
                        VERSION = '9.02.15',
                        VALE = -9.1924333354254E-01 ),
                    _F( CHAM_GD = FATNLN01,
                        NOM_CMP = 'VNM2Y',
                        NOEUD = 'N214',
                        REFERENCE = 'NON_REGRESSION',
                        PRECISION = 1.0E-10,
                        VERSION = '9.02.15',
                        VALE = 3.9019564505737E-01 ),
                    _F( CHAM_GD = FATNLN01,
                        NOM_CMP = 'VNM2Z',
                        NOEUD = 'N214',
                        REFERENCE = 'NON_REGRESSION',
                        PRECISION = 1.0E-10,
                        VERSION = '9.02.15',
                        VALE = 5.2335956242944E-02, ),
                    _F( CHAM_GD = FATNLN01,
                        NOM_CMP = 'SINMAX2',
                        NOEUD = 'N214',
                        REFERENCE = 'NON_REGRESSION',
                        PRECISION = 1.0E-10,
                        VERSION = '9.02.15',
                        VALE = 1.1296755026397E+02 ),
                    _F( CHAM_GD = FATNLN01,
                        NOM_CMP = 'SINMOY2',
                        NOEUD = 'N214',
                        REFERENCE = 'NON_REGRESSION',
                        PRECISION = 1.0E-10,
                        VERSION = '9.02.15',
                        VALE = 6.8110853707598E+00, ),
                    _F( CHAM_GD = FATNLN01,
                        NOM_CMP = 'EPNMAX2',
                        NOEUD = 'N214',
                        REFERENCE = 'NON_REGRESSION',
                        PRECISION = 1.0E-10,
                        VERSION = '9.02.15',
                        VALE = 3.6085283407484E-04 ),
                    _F( CHAM_GD = FATNLN01,
                        NOM_CMP = 'EPNMOY2',
                        NOEUD = 'N214',
                        REFERENCE = 'NON_REGRESSION',
                        PRECISION = 1.0E-10,
                        VERSION = '9.02.15',
                        VALE = 4.5106604259354E-05, ),
                    _F( CHAM_GD = FATNLN01,
                        NOM_CMP = 'SIGEQ2',
                        NOEUD = 'N214',
                        REFERENCE = 'NON_REGRESSION',
                        PRECISION = 1.0E-10,
                        VERSION = '9.02.15',
                        VALE = 3.4226598124581E+02 ),
                    _F( CHAM_GD = FATNLN01,
                        NOM_CMP = 'NBRUP2',
                        NOEUD = 'N214',
                        REFERENCE = 'NON_REGRESSION',
                        PRECISION = 1.0E-10,
                        VERSION = '9.02.15',
                        VALE = 4.8720000000000E+03 ),
                    _F( CHAM_GD = FATNLN01,
                        NOM_CMP = 'ENDO2',
                        NOEUD = 'N214',
                        REFERENCE = 'NON_REGRESSION',
                        PRECISION = 1.0E-10,
                        VERSION = '9.02.15',
                        VALE = 2.0525129321838E-04 )
                )
          )


TEST_RESU(CHAM_NO=( _F( CHAM_GD = FATNLN02,
                        NOM_CMP = 'DTAUM1',
                        NOEUD = 'N214',
                        REFERENCE = 'NON_REGRESSION',
                        PRECISION = 1.0E-10,
                        VERSION = '9.02.15',
                        VALE = 1.1557902030140E+02 ),
                    _F( CHAM_GD = FATNLN02,
                        NOM_CMP = 'VNM1X',
                        NOEUD = 'N214',
                        REFERENCE = 'NON_REGRESSION',
                        PRECISION = 1.0E-10,
                        VERSION = '9.02.15',
                        VALE = 3.8280107156988E-01 ),
                    _F( CHAM_GD = FATNLN02,
                        NOM_CMP = 'VNM1Y',
                        NOEUD = 'N214',
                        REFERENCE = 'NON_REGRESSION',
                        PRECISION = 1.0E-10,
                        VERSION = '9.02.15',
                        VALE = 8.4447216637038E-01 ),
                    _F( CHAM_GD = FATNLN02,
                        NOM_CMP = 'VNM1Z',
                        NOEUD = 'N214',
                        REFERENCE = 'NON_REGRESSION',
                        PRECISION = 1.0E-10,
                        VERSION = '9.02.15',
                        VALE = 3.7460659341591E-01, ),
                    _F( CHAM_GD = FATNLN02,
                        NOM_CMP = 'SINMAX1',
                        NOEUD = 'N214',
                        REFERENCE = 'NON_REGRESSION',
                        PRECISION = 1.0E-10,
                        VERSION = '9.02.15',
                        VALE = 7.3701737537055E+01 ),
                    _F( CHAM_GD = FATNLN02,
                        NOM_CMP = 'SINMOY1',
                        NOEUD = 'N214',
                        REFERENCE = 'NON_REGRESSION',
                        PRECISION = 1.0E-10,
                        VERSION = '9.02.15',
                        VALE = -6.6290480086559E+00, ),
                    _F( CHAM_GD = FATNLN02,
                        NOM_CMP = 'EPNMAX1',
                        NOEUD = 'N214',
                        REFERENCE = 'NON_REGRESSION',
                        PRECISION = 1.0E-10,
                        VERSION = '9.02.15',
                        CRITERE='ABSOLU',
                        VALE = 0. ),
                    _F( CHAM_GD = FATNLN02,
                        NOM_CMP = 'EPNMOY1',
                        NOEUD = 'N214',
                        REFERENCE = 'NON_REGRESSION',
                        PRECISION = 1.0E-10,
                        VERSION = '9.02.15',
                        VALE = -4.2254262706848E-05, ),
                    _F( CHAM_GD = FATNLN02,
                        NOM_CMP = 'SIGEQ1',
                        NOEUD = 'N214',
                        REFERENCE = 'NON_REGRESSION',
                        PRECISION = 1.0E-10,
                        VERSION = '9.02.15',
                        VALE = 2.8392113675768E+02 ),
                    _F( CHAM_GD = FATNLN02,
                        NOM_CMP = 'NBRUP1',
                        NOEUD = 'N214',
                        REFERENCE = 'NON_REGRESSION',
                        PRECISION = 4.0E-3,
                        VALE = 20270.0  ),
                    _F( CHAM_GD = FATNLN02,
                        NOM_CMP = 'ENDO1',
                        NOEUD = 'N214',
                        REFERENCE = 'NON_REGRESSION',
                        PRECISION = 4.0E-3,
                        VALE =  4.933357265479E-05 ),
                    _F( CHAM_GD = FATNLN02,
                        NOM_CMP = 'DTAUM2',
                        NOEUD = 'N214',
                        REFERENCE = 'NON_REGRESSION',
                        PRECISION = 1.0E-10,
                        VERSION = '9.02.15',
                        VALE = 1.1520977056656E+02 ),
                    _F( CHAM_GD = FATNLN02,
                        NOM_CMP = 'VNM2X',
                        NOEUD = 'N214',
                        REFERENCE = 'NON_REGRESSION',
                        PRECISION = 1.0E-10,
                        VERSION = '9.02.15',
                        VALE = -9.1924333354254E-01 ),
                    _F( CHAM_GD = FATNLN02,
                        NOM_CMP = 'VNM2Y',
                        NOEUD = 'N214',
                        REFERENCE = 'NON_REGRESSION',
                        PRECISION = 1.0E-10,
                        VERSION = '9.02.15',
                        VALE = 3.9019564505737E-01 ),
                    _F( CHAM_GD = FATNLN02,
                        NOM_CMP = 'VNM2Z',
                        NOEUD = 'N214',
                        REFERENCE = 'NON_REGRESSION',
                        PRECISION = 1.0E-10,
                        VERSION = '9.02.15',
                        VALE = 5.2335956242944E-02, ),
                    _F( CHAM_GD = FATNLN02,
                        NOM_CMP = 'SINMAX2',
                        NOEUD = 'N214',
                        REFERENCE = 'NON_REGRESSION',
                        PRECISION = 1.0E-10,
                        VERSION = '9.02.15',
                        VALE = 1.1296755026397E+02 ),
                    _F( CHAM_GD = FATNLN02,
                        NOM_CMP = 'SINMOY2',
                        NOEUD = 'N214',
                        REFERENCE = 'NON_REGRESSION',
                        PRECISION = 1.0E-10,
                        VERSION = '9.02.15',
                        VALE = 6.8110853707598E+00, ),
                    _F( CHAM_GD = FATNLN02,
                        NOM_CMP = 'EPNMAX2',
                        NOEUD = 'N214',
                        REFERENCE = 'NON_REGRESSION',
                        PRECISION = 1.0E-10,
                        VERSION = '9.02.15',
                        VALE = 3.6085283407484E-04 ),
                    _F( CHAM_GD = FATNLN02,
                        NOM_CMP = 'EPNMOY2',
                        NOEUD = 'N214',
                        REFERENCE = 'NON_REGRESSION',
                        PRECISION = 1.0E-10,
                        VERSION = '9.02.15',
                        VALE = 4.5106604259354E-05, ),
                    _F( CHAM_GD = FATNLN02,
                        NOM_CMP = 'SIGEQ2',
                        NOEUD = 'N214',
                        REFERENCE = 'NON_REGRESSION',
                        PRECISION = 1.0E-10,
                        VERSION = '9.02.15',
                        VALE = 3.4226598124581E+02 ),
                    _F( CHAM_GD = FATNLN02,
                        NOM_CMP = 'NBRUP2',
                        NOEUD = 'N214',
                        REFERENCE = 'NON_REGRESSION',
                        PRECISION = 4.0E-3,
                        VALE = 10124.0 ),
                    _F( CHAM_GD = FATNLN02,
                        NOM_CMP = 'ENDO2',
                        NOEUD = 'N214',
                        REFERENCE = 'NON_REGRESSION',
                        PRECISION = 4.0E-3,
                        VALE = 9.8775850589871E-05 )
                )
          )

######################################################################
# AMPLITUDE VARIABLE
######################################################################

# CALCUL DE LA FATIGUE SUR LES FACE 1, 2 ET 3 DE LA STRUCTURE AUX NOEUDS
# ----------------------------------------------------------------------


FAT_LNO0=CALC_FATIGUE( TYPE_CALCUL   = 'FATIGUE_MULTI',
                      OPTION        = 'DOMA_NOEUD',
                      TYPE_CHARGE   = 'NON_PERIODIQUE',
                      RESULTAT      = SOL_NL,
                      CHAM_MATER    = MAT2,
                      GROUP_MA      = ('CUBE'),
                      MAILLAGE      = CUBE,
                      CRITERE       = 'FORMULE_CRITERE',
                      FORMULE_GRDEQ   = CRIT_FA2,
                      COURBE_GRD_VIE  = 'WOHLER',
                      PROJECTION    = 'UN_AXE',
                    )

FAT_LNO1=CALC_FATIGUE( TYPE_CALCUL   = 'FATIGUE_MULTI',
                      OPTION        = 'DOMA_NOEUD',
                      TYPE_CHARGE   = 'NON_PERIODIQUE',
                      RESULTAT      = SOL_NL,
                      CHAM_MATER    = MAT2,
                      GROUP_MA      = ('CUBE'),
                      MAILLAGE      = CUBE,
                      CRITERE       = 'FORMULE_CRITERE',
                      FORMULE_GRDEQ   = CRIT_FA2,
                      COURBE_GRD_VIE  = 'FORM_VIE',
                      FORMULE_VIE     = WHOL,
                      PROJECTION    = 'UN_AXE',
                    )

FAT_LNO2=CALC_FATIGUE( TYPE_CALCUL   = 'FATIGUE_MULTI',
                      OPTION        = 'DOMA_NOEUD',
                      TYPE_CHARGE   = 'NON_PERIODIQUE',
                      RESULTAT      = SOL_NL,
                      CHAM_MATER    = MAT2,
                      GROUP_MA      = ('CUBE'),
                      MAILLAGE      = CUBE,
                      CRITERE       = 'FORMULE_CRITERE',
                      FORMULE_GRDEQ   = CRIT_FA2,
                      COURBE_GRD_VIE  = 'FORM_VIE',
                      FORMULE_VIE     = WHOL_F,
                      PROJECTION    = 'UN_AXE',
                    )

# ----------------------------------------------------------------------
# TEST DE LA FATIGUE SUR LES FACE 1, 2 ET 3 DE LA STRUCTURE AUX NOEUDS
# ----------------------------------------------------------------------

TEST_RESU(CHAM_NO=( _F( CHAM_GD = FAT_LNO0,
                        NOM_CMP = 'VNM1X',
                        NOEUD = 'N214',
                        REFERENCE = 'NON_REGRESSION',
                        PRECISION = 1.0E-10,
                        VERSION = '9.02.15',
                        VALE = 3.8280107156988E-01, ),
                    _F( CHAM_GD = FAT_LNO0,
                        NOM_CMP = 'VNM1Y',
                        NOEUD = 'N214',
                        REFERENCE = 'NON_REGRESSION',
                        PRECISION = 1.0E-10,
                        VERSION = '9.02.15',
                        VALE = 8.4447216637038E-01 ),
                    _F( CHAM_GD = FAT_LNO0,
                        NOM_CMP = 'VNM1Z',
                        NOEUD = 'N214',
                        REFERENCE = 'NON_REGRESSION',
                        PRECISION = 1.0E-10,
                        VERSION = '9.02.15',
                        VALE = 3.7460659341591E-01, ),
                    _F( CHAM_GD = FAT_LNO0,
                        NOM_CMP = 'ENDO1',
                        NOEUD = 'N214',
                        REFERENCE = 'NON_REGRESSION',
                        PRECISION = 1.0E-10,
                        VERSION = '9.02.15',
                        VALE = 9.2779623136707E-05 ),
                )
          )

TEST_RESU(CHAM_NO=( _F( CHAM_GD = FAT_LNO1,
                        NOM_CMP = 'VNM1X',
                        NOEUD = 'N214',
                        REFERENCE = 'NON_REGRESSION',
                        PRECISION = 1.0E-10,
                        VERSION = '9.02.15',
                        VALE = 3.8280107156988E-01, ),
                    _F( CHAM_GD = FAT_LNO1,
                        NOM_CMP = 'VNM1Y',
                        NOEUD = 'N214',
                        REFERENCE = 'NON_REGRESSION',
                        PRECISION = 1.0E-10,
                        VERSION = '9.02.15',
                        VALE = 8.4447216637038E-01 ),
                    _F( CHAM_GD = FAT_LNO1,
                        NOM_CMP = 'VNM1Z',
                        NOEUD = 'N214',
                        REFERENCE = 'NON_REGRESSION',
                        PRECISION = 1.0E-10,
                        VERSION = '9.02.15',
                        VALE = 3.7460659341591E-01, ),
                    _F( CHAM_GD = FAT_LNO1,
                        NOM_CMP = 'ENDO1',
                        NOEUD = 'N214',
                        REFERENCE = 'NON_REGRESSION',
                        PRECISION = 1.0E-4,
                        VERSION = '9.02.15',
                        VALE = 9.2779674265117E-05 ),
                )
          )

TEST_RESU(CHAM_NO=( _F( CHAM_GD = FAT_LNO2,
                        NOM_CMP = 'VNM1X',
                        NOEUD = 'N214',
                        REFERENCE = 'NON_REGRESSION',
                        PRECISION = 1.0E-10,
                        VERSION = '9.02.15',
                        VALE = 3.8280107156988E-01, ),
                    _F( CHAM_GD = FAT_LNO2,
                        NOM_CMP = 'VNM1Y',
                        NOEUD = 'N214',
                        REFERENCE = 'NON_REGRESSION',
                        PRECISION = 1.0E-10,
                        VERSION = '9.02.15',
                        VALE = 8.4447216637038E-01 ),
                    _F( CHAM_GD = FAT_LNO2,
                        NOM_CMP = 'VNM1Z',
                        NOEUD = 'N214',
                        REFERENCE = 'NON_REGRESSION',
                        PRECISION = 1.0E-10,
                        VERSION = '9.02.15',
                        VALE = 3.7460659341591E-01, ),
                    _F( CHAM_GD = FAT_LNO2,
                        NOM_CMP = 'ENDO1',
                        NOEUD = 'N214',
                        REFERENCE = 'NON_REGRESSION',
                        PRECISION = 8.0E-3,
                        VALE = 6.1692384350833E-05 ),
                )
          )

FIN()
