# MODIF  DATE 30/01/2012   AUTEUR MACOCCO K.MACOCCO 
# TITRE  FISSURE SEMI-ELLIPTIQUE AVEC MILIEU INFINI
#            CONFIGURATION MANAGEMENT OF EDF VERSION
# ======================================================================
# COPYRIGHT (C) 1991 - 2012  EDF R&D                  WWW.CODE-ASTER.ORG
# THIS PROGRAM IS FREE SOFTWARE; YOU CAN REDISTRIBUTE IT AND/OR MODIFY
# IT UNDER THE TERMS OF THE GNU GENERAL PUBLIC LICENSE AS PUBLISHED BY
# THE FREE SOFTWARE FOUNDATION; EITHER VERSION 2 OF THE LICENSE, OR
# (AT YOUR OPTION) ANY LATER VERSION.
#
# THIS PROGRAM IS DISTRIBUTED IN THE HOPE THAT IT WILL BE USEFUL, BUT
# WITHOUT ANY WARRANTY; WITHOUT EVEN THE IMPLIED WARRANTY OF
# MERCHANTABILITY OR FITNESS FOR A PARTICULAR PURPOSE. SEE THE GNU
# GENERAL PUBLIC LICENSE FOR MORE DETAILS.
#
# YOU SHOULD HAVE RECEIVED A COPY OF THE GNU GENERAL PUBLIC LICENSE
# ALONG WITH THIS PROGRAM; IF NOT, WRITE TO EDF R&D CODE_ASTER,
#    1 AVENUE DU GENERAL DE GAULLE, 92141 CLAMART CEDEX, FRANCE.
# ======================================================================
# CAS TEST SSLV110A
# CALCUL DE G ET G LOCAL PAR LA METHODE 'THETA_LEGENDRE'
#
# MODELISATION : ELEMENTS MECANIQUE 3D (PENTA15 ET HEXA20)
# MAILLAGE     : ASTER
#
# ----------------------------------------------------------------------
# GROUPES DE MAILLES:           PRES_REP : BOUT
# ----------------------------------------------------------------------
#

DEBUT(CODE=_F(NOM='SSLV110A', NIV_PUB_WEB='INTERNET'), DEBUG=_F(SDVERI='OUI'))

#
# --------------------------------------------------------------------

MA=LIRE_MAILLAGE(FORMAT='MED',  )

MO=AFFE_MODELE(  MAILLAGE=MA,
     AFFE=_F(  TOUT = 'OUI',PHENOMENE = 'MECANIQUE',MODELISATION = '3D') )

MAT=DEFI_MATERIAU( ELAS=_F(  E = 210000.,  NU = 0.3, RHO = 0.,
                            ALPHA = 0.))

CHMAT=AFFE_MATERIAU(  MAILLAGE=MA,  AFFE=_F(  TOUT = 'OUI',MATER = MAT))

# ------------------------------------------------------------------
#    --- STRUCTURE EN APPUI SIMPLE AVEC EFFORT VERTICAL

CH=AFFE_CHAR_MECA(  MODELE=MO,DDL_IMPO=(
     _F(  GROUP_NO = 'MACSYM', DZ = 0.),
              _F(  GROUP_NO = 'ELISYM', DX = 0.),
              _F(  GROUP_NO = 'GRNINF', DY = 0.)),
     FORCE_FACE=_F(  GROUP_MA = 'FACTRAC', FZ = 1.))


CHAMDEPL=MECA_STATIQUE(   MODELE=MO,   CHAM_MATER=CHMAT,
              EXCIT=_F( CHARGE = CH))

#
#
#    --- DEFINITION DU MODULE DE THETA ET DES RAYONS DEFINISSANT LA
#        COURONNE PAR FONCTIONS
#
MODUF=DEFI_FONCTION(  NOM_PARA='ABSC',  VALE=( 0., 1.,     26.69, 1., ))

RINF0=DEFI_FONCTION(  NOM_PARA='ABSC',  VALE=( 0., 0.,     26.69, 0., ))

RSUP0=DEFI_FONCTION(  NOM_PARA='ABSC',  VALE=( 0., 0.1875, 26.69, 0.7812,))

RINF1=DEFI_FONCTION(  NOM_PARA='ABSC',  VALE=( 0., 0.1875, 26.69, 0.7812,))

RSUP1=DEFI_FONCTION(  NOM_PARA='ABSC',  VALE=( 0., 0.375,  26.69, 1.5625,))

RINF2=DEFI_FONCTION(  NOM_PARA='ABSC',  VALE=( 0., 0.375,  26.69, 1.5625,))

RSUP2=DEFI_FONCTION(  NOM_PARA='ABSC',  VALE=( 0., 1.6465, 26.69, 3.125, ))

RINF3=DEFI_FONCTION(  NOM_PARA='ABSC',  VALE=( 0., 1.6465, 26.69, 3.125, ))

RSUP3=DEFI_FONCTION(  NOM_PARA='ABSC',  VALE=( 0., 5.484,  26.69, 6.25,  ))

#
MA=DEFI_GROUP(reuse=MA,       MAILLAGE=MA,CREA_GROUP_NO=(
                  _F(  NOM = 'GNO9',    NOEUD = ('NO9',   )),
                  _F(  NOM = 'GNO1099', NOEUD = ('NO1099',)),
                  _F(  NOM = 'GNO1259', NOEUD = ('NO1259',))))

FISS1=DEFI_FOND_FISS(MAILLAGE=MA,
                     FOND_FISS=_F(GROUP_NO = 'FONFIS',
                                  VECT_GRNO_ORIG=('GNO9','GNO1099',),
                                  VECT_GRNO_EXTR=('GNO9','GNO1259',)),
                     SYME='OUI',
                     LEVRE_SUP=_F(  GROUP_MA = 'GRPRES'),
#                    NORMALE : (0. 0. -1.)
                    )

#

DIRTHE=CREA_CHAMP( OPERATION='AFFE', TYPE_CHAM='NOEU_DEPL_R',
MAILLAGE=MA,AFFE=(

_F( NOEUD = 'NO1099',   NOM_CMP = ('DX', 'DY', 'DZ',),
  VALE = (   0.,  1.,   0., )),
_F( NOEUD = 'NO1100',   NOM_CMP = ('DX', 'DY', 'DZ',),
  VALE = ( 1.179317256499E-2,  0.999930458122, -6.901613511348E-7, )),
_F( NOEUD = 'NO1109',   NOM_CMP = ('DX', 'DY', 'DZ',),
  VALE = ( 2.36859145901E-2, 0.99971944937, -7.48663084624E-7, )),
_F( NOEUD = 'NO1110',   NOM_CMP = ('DX', 'DY', 'DZ',),
  VALE = (  3.557530548864518E-2, 0.9993669984, -8.0705889588E-7, )),
_F( NOEUD = 'NO1119',   NOM_CMP = ('DX', 'DY', 'DZ',),
  VALE = (  4.779550453478E-2,  0.998857141810344, -8.602249003425E-7,)),
_F( NOEUD = 'NO1120',   NOM_CMP = ('DX', 'DY', 'DZ',),
  VALE = (  6.00085536975E-2,  0.9981978628920,   -9.132622209886E-7, )),
_F( NOEUD = 'NO1129',   NOM_CMP = ('DX', 'DY', 'DZ',),
  VALE = (  7.27907250696E-2,  0.9973472365946, -9.595537304181E-7,)),
_F( NOEUD = 'NO1130',   NOM_CMP = ('DX', 'DY', 'DZ',),
  VALE = (  8.55609509400E-2, 0.9963329381653665, -1.0056877699E-6,)),
_F( NOEUD = 'NO1139',   NOM_CMP = ('DX', 'DY', 'DZ',),
  VALE = (9.918453646977099E-2,  0.9950690567614, -1.0436676714390E-6,)),
_F( NOEUD = 'NO1140',   NOM_CMP = ('DX', 'DY', 'DZ',),
  VALE = (0.1127895547059614,  0.9936188989487, -1.081452198921332E-6,)),
_F( NOEUD = 'NO1149',   NOM_CMP = ('DX', 'DY', 'DZ',),
  VALE = (0.127599323987627, 0.9918257974647879, -1.1097921538863E-6, )),
_F( NOEUD = 'NO1150',   NOM_CMP = ('DX', 'DY', 'DZ',),
  VALE = (0.1423806967442,  0.98981197062540, -1.137885130734487E-6,)),
_F( NOEUD = 'NO1159',   NOM_CMP = ('DX', 'DY', 'DZ',),
  VALE = (0.15883536533,  0.9873050828994536,  -1.155480184556449E-6,)),
_F( NOEUD = 'NO1160',   NOM_CMP = ('DX', 'DY', 'DZ',),
  VALE = (0.1752460300705,  0.9845246715766,  -1.172755123449773E-6,)),
_F( NOEUD = 'NO1169',   NOM_CMP = ('DX', 'DY', 'DZ',),
  VALE = (0.1939304564127,  0.9810152792256, -1.178790328103052E-6, )),
_F( NOEUD = 'NO1170',   NOM_CMP = ('DX', 'DY', 'DZ',),
  VALE = (0.2125447917068,  0.9771513247787, -1.184399490085882E-6, )),
_F( NOEUD = 'NO1179',   NOM_CMP = ('DX', 'DY', 'DZ',),
  VALE = (0.234321078943, 0.97215926265270, -1.178231125943736E-6,)),
_F( NOEUD = 'NO1180',   NOM_CMP = ('DX', 'DY', 'DZ',),
  VALE = (0.25598041011591, 0.966681969230, -1.171474674398351E-6,)),
_F( NOEUD = 'NO1189',   NOM_CMP = ('DX', 'DY', 'DZ',),
  VALE = (0.28204038425666, 0.9594025336880, -1.153018082547775E-6,)),
_F( NOEUD = 'NO1190',    NOM_CMP = ('DX', 'DY', 'DZ',),
  VALE = (0.30789387312520, 0.9514207076213, -1.133717351822309E-6,)),
# ... 25 like lines cut
  VALE = ( 1.,  0., 0., )))
                       )

#----------------------------------------------------------------------
#                           COURONNE 1
#----------------------------------------------------------------------

THETA0=CALC_THETA(   MODELE=MO,  FOND_FISS=FISS1,
                        THETA_3D=_F(  TOUT = 'OUI',  MODULE_FO = MODUF,
                                   R_INF_FO = RINF0,  R_SUP_FO = RSUP0)
                                 )

G0=CALC_G(  RESULTAT=CHAMDEPL,
                       OPTION='CALC_G_GLOB',
                        THETA=_F(THETA=THETA0,SYME='OUI'), )

G0BIS=CALC_G(  RESULTAT=CHAMDEPL,
                       OPTION='CALC_G_GLOB',
                        THETA=_F(FOND_FISS=FISS1,
                                 MODULE_FO = MODUF,
                                 R_INF_FO = RINF0,
                                 R_SUP_FO = RSUP0),
                         )


GLOC0=CALC_G(   RESULTAT=CHAMDEPL,
                       THETA=_F(FOND_FISS=FISS1,
                                MODULE_FO = MODUF,
                                R_INF_FO = RINF0,
                                R_SUP_FO = RSUP0),
                       LISSAGE=_F(DEGRE=7),
                       )

THETA0M=CALC_THETA(   MODELE=MO,  FOND_FISS=FISS1,
                        THETA_3D=_F(  TOUT = 'OUI',  MODULE_FO = MODUF,
                                   R_INF_FO = RINF0,  R_SUP_FO = RSUP0),
                                     DIRE_THETA=DIRTHE  )

G0M=CALC_G(            RESULTAT=CHAMDEPL,
                       OPTION='CALC_G_GLOB',
                       THETA=_F(THETA=THETA0M,SYME='OUI'),  )

GLOC0M=CALC_G(         RESULTAT=CHAMDEPL,
                       THETA=_F(FOND_FISS=FISS1,
                               R_SUP_FO=RSUP0,
                               R_INF_FO=RINF0,),
                       LISSAGE=_F(DEGRE=7),
                       )


GLOC0M1=CALC_G(       RESULTAT=CHAMDEPL,
                      THETA=_F(FOND_FISS=FISS1,
                               R_SUP_FO=RSUP0,
                               R_INF_FO=RINF0,),
                      LISSAGE=_F(LISSAGE_THETA='LAGRANGE_REGU',
                                 LISSAGE_G='LAGRANGE_REGU',),
                       )


#----------------------------------------------------------------------
#                           COURONNE 2
#----------------------------------------------------------------------

THETA1=CALC_THETA(   MODELE=MO,  FOND_FISS=FISS1,
                        THETA_3D=_F(  TOUT = 'OUI',  MODULE_FO = MODUF,
                                   R_INF_FO = RINF1,  R_SUP_FO = RSUP1)
                                 )

G1=CALC_G(     RESULTAT=CHAMDEPL,
                       OPTION='CALC_G_GLOB',
                     THETA=_F(THETA=THETA1,SYME='OUI'),  )

GLOC1=CALC_G(  RESULTAT=CHAMDEPL,
                        THETA=_F(FOND_FISS=FISS1,
                                 R_SUP_FO=RSUP1,
                                 R_INF_FO=RINF1,),
                        LISSAGE=_F(DEGRE=7),
                       )

THETA1M=CALC_THETA(   MODELE=MO,  FOND_FISS=FISS1,
                        THETA_3D=_F(  TOUT = 'OUI',  MODULE_FO = MODUF,
                                   R_INF_FO = RINF1,  R_SUP_FO = RSUP1),
                                     DIRE_THETA=DIRTHE )

G1M=CALC_G(  RESULTAT=CHAMDEPL,
                       OPTION='CALC_G_GLOB',
                     THETA=_F(THETA=THETA1M,SYME='OUI'),)

GLOC1M=CALC_G(    RESULTAT=CHAMDEPL,
                        THETA=_F(FOND_FISS=FISS1,
                                 R_SUP_FO=RSUP1,
                                 R_INF_FO=RINF1,),
                        LISSAGE=_F(DEGRE=7),
                     )


GLOC1M1=CALC_G(    RESULTAT=CHAMDEPL,
                        THETA=_F(FOND_FISS=FISS1,
                                 R_SUP_FO=RSUP1,
                                 R_INF_FO=RINF1,),
                      LISSAGE=_F(LISSAGE_THETA='LAGRANGE_REGU',
                                 LISSAGE_G='LAGRANGE_REGU',),
                     )


#----------------------------------------------------------------------
#                           COURONNE 3
#----------------------------------------------------------------------

THETA2=CALC_THETA(   MODELE=MO,  FOND_FISS=FISS1,
                        THETA_3D=_F(  TOUT = 'OUI',  MODULE_FO = MODUF,
                                   R_INF_FO = RINF2,  R_SUP_FO = RSUP2)
                                 )


G2=CALC_G(     RESULTAT=CHAMDEPL,
                      THETA=_F(THETA=THETA2,SYME='OUI'),
                       OPTION='CALC_G_GLOB',
                     )

GLOC2=CALC_G(  RESULTAT=CHAMDEPL,
                       THETA=_F(FOND_FISS=FISS1,R_SUP_FO=RSUP2,  R_INF_FO=RINF2),
                       LISSAGE=_F(DEGRE=7))

THETA2M=CALC_THETA(   MODELE=MO,  FOND_FISS=FISS1,
                        THETA_3D=_F(  TOUT = 'OUI',  MODULE_FO = MODUF,
                                   R_INF_FO = RINF2,  R_SUP_FO = RSUP2),
                                     DIRE_THETA=DIRTHE)

G2M=CALC_G(  RESULTAT=CHAMDEPL,
                      THETA=_F(THETA=THETA2M,SYME='OUI'),
                       OPTION='CALC_G_GLOB',
                     )

GLOC2M=CALC_G(   RESULTAT=CHAMDEPL,
                       LISSAGE=_F(DEGRE=7),
                       THETA=_F(FOND_FISS=FISS1,R_SUP_FO=RSUP2,  R_INF_FO=RINF2),
                       )


GLOC2M1=CALC_G(  RESULTAT=CHAMDEPL,
                      LISSAGE=_F(LISSAGE_THETA='LAGRANGE_REGU',
                                 LISSAGE_G='LAGRANGE_REGU',),
                       THETA=_F(FOND_FISS=FISS1,R_SUP_FO=RSUP2,  R_INF_FO=RINF2),
                       )


#----------------------------------------------------------------------
#              TEST DE G SUR LES 3 COURONNES
#----------------------------------------------------------------------


TEST_TABLE(       TABLE=G0,
                       NOM_PARA='G',
                           VALE=1.44E-3,
                      PRECISION=2.1E-2,
                      REFERENCE='ANALYTIQUE'  )

TEST_TABLE(       TABLE=G0BIS,
                       NOM_PARA='G',
                           VALE=1.44E-3,
                      PRECISION=2.1E-2,
                      REFERENCE='ANALYTIQUE'  )


TEST_TABLE(       TABLE=G1,
                        FILTRE=_F(  NOM_PARA = 'NUME_ORDRE',
                                 VALE_I = 1),
                       NOM_PARA='G',
                           VALE=1.44E-3,
                      PRECISION=1.E-2 ,
                      REFERENCE='ANALYTIQUE'    )

TEST_TABLE(       TABLE=G2,
                       NOM_PARA='G',
                           VALE=1.44E-3,
                      PRECISION=1.2E-2  ,
                      REFERENCE='ANALYTIQUE'   )

TEST_TABLE(       TABLE=G0M,
                       NOM_PARA='G',
                           VALE=1.44E-3,
                      PRECISION=2.1E-2 ,
                      REFERENCE='ANALYTIQUE'    )

TEST_TABLE(       TABLE=G1M,
                        FILTRE=_F(  NOM_PARA = 'NUME_ORDRE',
                                 VALE_I = 1),
                       NOM_PARA='G',
                           VALE=1.44E-3,
                      PRECISION=1.E-2 ,
                      REFERENCE='ANALYTIQUE'    )

TEST_TABLE(       TABLE=G2M,
                       NOM_PARA='G',
                           VALE=1.44E-3,
                      PRECISION=1.2E-2  ,
                      REFERENCE='ANALYTIQUE'   )

#----------------------------------------------------------------------
#              TEST DE G(A) SUR LES 3 COURONNES
#----------------------------------------------------------------------


TEST_TABLE(      TABLE=GLOC0,
                   FILTRE=_F(  NOM_PARA = 'NOEUD',
                            VALE_K = 'NO1099'),
                 NOM_PARA='G',
                      VALE=7.171E-5,
                 PRECISION=5.E-2  ,
                      REFERENCE='ANALYTIQUE'      )

TEST_TABLE(      TABLE=GLOC1,
                   FILTRE=_F(  NOM_PARA = 'NOEUD',
                            VALE_K = 'NO1099'),
                 NOM_PARA='G',
                      VALE=7.171E-5,
                 PRECISION=2.E-2  ,
                      REFERENCE='ANALYTIQUE'      )

TEST_TABLE(      TABLE=GLOC2,
                   FILTRE=_F(  NOM_PARA = 'NOEUD',
                            VALE_K = 'NO1099'),
                 NOM_PARA='G',
                      VALE=7.171E-5,
                 PRECISION=5.E-2  ,
                      REFERENCE='ANALYTIQUE'      )

#----------------------------------------------------------------------
#              TEST DE G(A) SUR LES 3 COURONNES (DIRECTION UTILISATEUR)
#----------------------------------------------------------------------


TEST_TABLE(      TABLE=GLOC0M,
                   FILTRE=_F(  NOM_PARA = 'NOEUD',
                            VALE_K = 'NO1099'),
                 NOM_PARA='G',
                      VALE=7.171E-5,
                 PRECISION=5.E-2  ,
                      REFERENCE='ANALYTIQUE'      )

TEST_TABLE(      TABLE=GLOC1M,
                   FILTRE=_F(  NOM_PARA = 'NOEUD',
                            VALE_K = 'NO1099'),
                 NOM_PARA='G',
                      VALE=7.171E-5,
                 PRECISION=2.E-2   ,
                      REFERENCE='ANALYTIQUE'     )

TEST_TABLE(      TABLE=GLOC2M,
                   FILTRE=_F(  NOM_PARA = 'NOEUD',
                            VALE_K = 'NO1099'),
                 NOM_PARA='G',
                      VALE=7.171E-5,
                 PRECISION=5.E-2   ,
                      REFERENCE='ANALYTIQUE'     )

TEST_TABLE(      TABLE=GLOC0M1,
                   FILTRE=_F(  NOM_PARA = 'NOEUD',
                            VALE_K = 'NO1099'),
                 NOM_PARA='G',
                      VALE=7.171E-5,
                 PRECISION=8.E-2,
                      REFERENCE='ANALYTIQUE'     )

TEST_TABLE(      TABLE=GLOC1M1,
                   FILTRE=_F(  NOM_PARA = 'NOEUD',
                            VALE_K = 'NO1099'),
                 NOM_PARA='G',
                      VALE=7.171E-5,
                 PRECISION=4.E-2,
                      REFERENCE='ANALYTIQUE'     )

TEST_TABLE(      TABLE=GLOC2M1,
                   FILTRE=_F(  NOM_PARA = 'NOEUD',
                            VALE_K = 'NO1099'),
                 NOM_PARA='G',
                      VALE=7.171E-5,
                 PRECISION=5.E-2,
                      REFERENCE='ANALYTIQUE'     )

#----------------------------------------------------------------------
#              TEST DE G(B) SUR LES 3 COURONNES
#----------------------------------------------------------------------


TEST_TABLE(      TABLE=GLOC0,
                   FILTRE=_F(  NOM_PARA = 'NOEUD',
                            VALE_K = 'NO1259'),
                 NOM_PARA='G',
                      VALE=1.721E-5,
                 PRECISION=1.4E-1 ,
                      REFERENCE='ANALYTIQUE'       )

TEST_TABLE(      TABLE=GLOC1,
                   FILTRE=_F(  NOM_PARA = 'NOEUD',
                            VALE_K = 'NO1259'),
                 NOM_PARA='G',
                      VALE=1.721E-5,
                 PRECISION=8.8E-2   ,
                      REFERENCE='ANALYTIQUE'     )

TEST_TABLE(      TABLE=GLOC2,
                   FILTRE=_F(  NOM_PARA = 'NOEUD',
                            VALE_K = 'NO1259'),
                 NOM_PARA='G',
                      VALE=1.721E-5,
                 PRECISION=1.4E-1   ,
                      REFERENCE='ANALYTIQUE'     )

#----------------------------------------------------------------------
#              TEST DE G(B) SUR LES 3 COURONNES (DIRECTION UTILISATEUR)
#----------------------------------------------------------------------


TEST_TABLE(      TABLE=GLOC0M,
                   FILTRE=_F(  NOM_PARA = 'NOEUD',
                            VALE_K = 'NO1259'),
                 NOM_PARA='G',
                      VALE=1.721E-5,
                 PRECISION=1.4E-1   ,
                      REFERENCE='ANALYTIQUE'     )

TEST_TABLE(      TABLE=GLOC1M,
                   FILTRE=_F(  NOM_PARA = 'NOEUD',
                            VALE_K = 'NO1259'),
                 NOM_PARA='G',
                      VALE=1.721E-5,
                 PRECISION=8.8E-2   ,
                      REFERENCE='ANALYTIQUE'     )

TEST_TABLE(      TABLE=GLOC2M,
                   FILTRE=_F(  NOM_PARA = 'NOEUD',
                            VALE_K = 'NO1259'),
                 NOM_PARA='G',
                      VALE=1.721E-5,
                 PRECISION=1.4E-1  ,
                      REFERENCE='ANALYTIQUE'      )


#----------------------------------------------------------------------
#              TEST DE G(C) SUR LES 3 COURONNES
#----------------------------------------------------------------------


TEST_TABLE(      TABLE=GLOC0,
                   FILTRE=_F(  NOM_PARA = 'NOEUD',
                            VALE_K = 'NO1179'),
                 NOM_PARA='G',
                      VALE=5.215E-5,
                 PRECISION=5.E-2  ,
                      REFERENCE='ANALYTIQUE'      )

TEST_TABLE(      TABLE=GLOC1,
                   FILTRE=_F(  NOM_PARA = 'NOEUD',
                            VALE_K = 'NO1179'),
                 NOM_PARA='G',
                      VALE=5.215E-5,
                 PRECISION=5.E-2  ,
                      REFERENCE='ANALYTIQUE'      )

TEST_TABLE(      TABLE=GLOC2,
                   FILTRE=_F(  NOM_PARA = 'NOEUD',
                            VALE_K = 'NO1179'),
                 NOM_PARA='G',
                      VALE=5.215E-5,
                 PRECISION=5.E-2  ,
                      REFERENCE='ANALYTIQUE'      )

#----------------------------------------------------------------------
#              TEST DE G(C) SUR LES 3 COURONNES (DIRECTION UTILISATEUR)
#----------------------------------------------------------------------


TEST_TABLE(      TABLE=GLOC0M,
                   FILTRE=_F(  NOM_PARA = 'NOEUD',
                            VALE_K = 'NO1179'),
                 NOM_PARA='G',
                      VALE=5.215E-5,
                 PRECISION=5.E-2  ,
                      REFERENCE='ANALYTIQUE'      )

TEST_TABLE(      TABLE=GLOC1M,
                   FILTRE=_F(  NOM_PARA = 'NOEUD',
                            VALE_K = 'NO1179'),
                 NOM_PARA='G',
                      VALE=5.215E-5,
                 PRECISION=5.E-2   ,
                      REFERENCE='ANALYTIQUE'     )

TEST_TABLE(      TABLE=GLOC2M,
                   FILTRE=_F(  NOM_PARA = 'NOEUD',
                            VALE_K = 'NO1179'),
                 NOM_PARA='G',
                      VALE=5.215E-5,
                 PRECISION=5.E-2   ,
                      REFERENCE='ANALYTIQUE'     )

TEST_TABLE(      TABLE=GLOC0M1,
                   FILTRE=_F(  NOM_PARA = 'NOEUD',
                            VALE_K = 'NO1179'),
                 NOM_PARA='G',
                      VALE=5.215E-5,
                 PRECISION=4.E-2   ,
                      REFERENCE='ANALYTIQUE'      )

TEST_TABLE(      TABLE=GLOC1M1,
                   FILTRE=_F(  NOM_PARA = 'NOEUD',
                            VALE_K = 'NO1179'),
                 NOM_PARA='G',
                      VALE=5.215E-5,
                 PRECISION=1.E-2   ,
                      REFERENCE='ANALYTIQUE'      )

TEST_TABLE(      TABLE=GLOC2M1,
                   FILTRE=_F(  NOM_PARA = 'NOEUD',
                            VALE_K = 'NO1179'),
                 NOM_PARA='G',
                      VALE=5.215E-5,
                 PRECISION=3.E-2   ,
                      REFERENCE='ANALYTIQUE'      )

FIN()
#
