# TITRE CYLINDRE EN C.P. (TRIA6 QUAD8) AXISYM
# ======================================================================
# COPYRIGHT (C) 1991 - 2013  EDF R&D                  WWW.CODE-ASTER.ORG
# THIS PROGRAM IS FREE SOFTWARE; YOU CAN REDISTRIBUTE IT AND/OR MODIFY
# IT UNDER THE TERMS OF THE GNU GENERAL PUBLIC LICENSE AS PUBLISHED BY
# THE FREE SOFTWARE FOUNDATION; EITHER VERSION 2 OF THE LICENSE, OR
# (AT YOUR OPTION) ANY LATER VERSION.
#
# THIS PROGRAM IS DISTRIBUTED IN THE HOPE THAT IT WILL BE USEFUL, BUT
# WITHOUT ANY WARRANTY; WITHOUT EVEN THE IMPLIED WARRANTY OF
# MERCHANTABILITY OR FITNESS FOR A PARTICULAR PURPOSE. SEE THE GNU
# GENERAL PUBLIC LICENSE FOR MORE DETAILS.
#
# YOU SHOULD HAVE RECEIVED A COPY OF THE GNU GENERAL PUBLIC LICENSE
# ALONG WITH THIS PROGRAM; IF NOT, WRITE TO EDF R&D CODE_ASTER,
#    1 AVENUE DU GENERAL DE GAULLE, 92141 CLAMART CEDEX, FRANCE.
# ======================================================================
#CAS_TEST__: SSLV04I
#
# ----------------------------------------------------------------------
# SSLV04 I                  COMMANDES                           22/08/91
# CYLINDRE CREUX EN CONTRAINTES PLANES
#
# MODELISATION : ELEMENTS MECANIQUE C_PLAN (TRIA6 QUAD8)     AXIS
# MAILLAGE     : ALIBABA > ASTER
# ----------------------------------------------------------------------
# GROUPES DE NOEUDS ET MAILLES: A B C D E F
#             BORDAB=GRNM11     FACEEF=GRMA12     FACEAE=GRMA13
# ----------------------------------------------------------------------

DEBUT(CODE=_F(
              NIV_PUB_WEB='INTERNET',),
      DEBUG=_F(SDVERI='OUI',),);

M=LIRE_MAILLAGE(FORMAT='MED',UNITE=20,);

MO=AFFE_MODELE(MAILLAGE=M,
               
               AFFE=_F(TOUT='OUI',
                       PHENOMENE='MECANIQUE',
                       MODELISATION='AXIS',),);

MA=DEFI_MATERIAU(ELAS=_F(E=200000.,
                         NU=0.3,
                         RHO=7800.,
                         ALPHA=0.,),);

CM=AFFE_MATERIAU(MAILLAGE=M,
                 AFFE=_F(TOUT='OUI',
                         MATER=MA,),);

CH=AFFE_CHAR_MECA(MODELE=MO,
                  DDL_IMPO=_F(GROUP_NO='F',
                              DY=0.,),
                  PRES_REP=_F(GROUP_MA='GRMA13',
                              PRES=60.,),);

RESU=MECA_STATIQUE(MODELE=MO,
                   CHAM_MATER=CM,
                   EXCIT=_F(CHARGE=CH,),);

RESU=CALC_CHAMP(reuse=RESU,RESULTAT=RESU,NUME_ORDRE=1,DEFORMATION=('EPSI_ELNO'))


RESU=CALC_CHAMP(reuse=RESU,RESULTAT=RESU,NUME_ORDRE=1,CONTRAINTE=('SIGM_ELNO'))


TR1=POST_RELEVE_T(ACTION=_F(OPERATION='EXTRACTION',
                            INTITULE='EXT_SIGM',
                            RESULTAT=RESU,
                            NOM_CHAM='SIGM_ELNO',
                            GROUP_NO=('A','B','C','D','E','F',),
                            NOM_CMP=('SIXX','SIYY','SIZZ','SIXY',),),);

TEST_RESU(RESU=(_F(NUME_ORDRE=1,
                   GROUP_NO='A',
                   RESULTAT=RESU,
                   NOM_CHAM='DEPL',
                   NOM_CMP='DX',
                   VALE_CALC=5.89997308348E-05,
                   CRITERE='RELATIF',
                   ),
                _F(NUME_ORDRE=1,
                   GROUP_NO='B',
                   RESULTAT=RESU,
                   NOM_CHAM='DEPL',
                   NOM_CMP='DX',
                   VALE_CALC=4.00000288521E-05,
                   CRITERE='RELATIF',
                   ),
                _F(NUME_ORDRE=1,
                   GROUP_NO='E',
                   RESULTAT=RESU,
                   NOM_CHAM='DEPL',
                   NOM_CMP='DX',
                   VALE_CALC=5.89997308347E-05,
                   CRITERE='RELATIF',
                   ),
                _F(NUME_ORDRE=1,
                   GROUP_NO='F',
                   RESULTAT=RESU,
                   NOM_CHAM='DEPL',
                   NOM_CMP='DX',
                   VALE_CALC=4.00000288519E-05,
                   CRITERE='RELATIF',
                   ),
                _F(NUME_ORDRE=1,
                   GROUP_NO='A',
                   RESULTAT=RESU,
                   NOM_CHAM='EPSI_ELNO',
                   NOM_CMP='EPXX',
                   VALE_CALC=-0.000449345943591,
                   VALE_REFE=-4.4999999999999999E-4,
                   REFERENCE='NON_DEFINI',
                   CRITERE='RELATIF',
                   PRECISION=1.E-2,
                   MAILLE='M2',),
                _F(NUME_ORDRE=1,
                   GROUP_NO='A',
                   RESULTAT=RESU,
                   NOM_CHAM='EPSI_ELNO',
                   NOM_CMP='EPYY',
                   VALE_CALC=-6.00337006652E-05,
                   VALE_REFE=0.0,
                   REFERENCE='NON_DEFINI',
                   CRITERE='ABSOLU',
                   PRECISION=1.E-2,
                   MAILLE='M2',),
                _F(NUME_ORDRE=1,
                   GROUP_NO='A',
                   RESULTAT=RESU,
                   NOM_CHAM='EPSI_ELNO',
                   NOM_CMP='EPZZ',
                   VALE_CALC=0.000589459117814,
                   VALE_REFE=5.9E-4,
                   REFERENCE='NON_DEFINI',
                   CRITERE='RELATIF',
                   PRECISION=1.E-2,
                   MAILLE='M2',),
                _F(NUME_ORDRE=1,
                   GROUP_NO='A',
                   RESULTAT=RESU,
                   NOM_CHAM='EPSI_ELNO',
                   NOM_CMP='EPXY',
                   VALE_CALC=-8.87749423731E-08,
                   VALE_REFE=0.0,
                   REFERENCE='NON_DEFINI',
                   CRITERE='ABSOLU',
                   PRECISION=1.E-2,
                   MAILLE='M2',),
                _F(NUME_ORDRE=1,
                   GROUP_NO='B',
                   RESULTAT=RESU,
                   NOM_CHAM='EPSI_ELNO',
                   NOM_CMP='EPXX',
                   VALE_CALC=-5.98046129697E-05,
                   VALE_REFE=-6.0000000000000002E-05,
                   REFERENCE='NON_DEFINI',
                   CRITERE='RELATIF',
                   PRECISION=1.E-2,
                   MAILLE='M59',),
                _F(NUME_ORDRE=1,
                   GROUP_NO='B',
                   RESULTAT=RESU,
                   NOM_CHAM='EPSI_ELNO',
                   NOM_CMP='EPYY',
                   VALE_CALC=-6.00143556191E-05,
                   VALE_REFE=0.0,
                   REFERENCE='NON_DEFINI',
                   CRITERE='ABSOLU',
                   PRECISION=1.E-2,
                   MAILLE='M59',),
                _F(NUME_ORDRE=1,
                   GROUP_NO='B',
                   RESULTAT=RESU,
                   NOM_CHAM='EPSI_ELNO',
                   NOM_CMP='EPZZ',
                   VALE_CALC=0.000199840039857,
                   VALE_REFE=2.0000000000000001E-4,
                   REFERENCE='NON_DEFINI',
                   CRITERE='RELATIF',
                   PRECISION=1.E-2,
                   MAILLE='M59',),
                _F(NUME_ORDRE=1,
                   GROUP_NO='B',
                   RESULTAT=RESU,
                   NOM_CHAM='EPSI_ELNO',
                   NOM_CMP='EPXY',
                   VALE_CALC=8.49594521407E-08,
                   VALE_REFE=0.0,
                   REFERENCE='NON_DEFINI',
                   CRITERE='ABSOLU',
                   PRECISION=1.E-2,
                   MAILLE='M59',),
                _F(NUME_ORDRE=1,
                   GROUP_NO='E',
                   RESULTAT=RESU,
                   NOM_CHAM='EPSI_ELNO',
                   NOM_CMP='EPXX',
                   VALE_CALC=-0.000449345943647,
                   VALE_REFE=-4.4999999999999999E-4,
                   REFERENCE='NON_DEFINI',
                   CRITERE='RELATIF',
                   PRECISION=1.E-2,
                   MAILLE='M1',),
                _F(NUME_ORDRE=1,
                   GROUP_NO='E',
                   RESULTAT=RESU,
                   NOM_CHAM='EPSI_ELNO',
                   NOM_CMP='EPYY',
                   VALE_CALC=-6.00337006109E-05,
                   VALE_REFE=0.0,
                   REFERENCE='NON_DEFINI',
                   CRITERE='ABSOLU',
                   PRECISION=1.E-2,
                   MAILLE='M1',),
                _F(NUME_ORDRE=1,
                   GROUP_NO='E',
                   RESULTAT=RESU,
                   NOM_CHAM='EPSI_ELNO',
                   NOM_CMP='EPZZ',
                   VALE_CALC=0.000589459117813,
                   VALE_REFE=5.9000000000000003E-4,
                   REFERENCE='NON_DEFINI',
                   CRITERE='RELATIF',
                   PRECISION=1.E-2,
                   MAILLE='M1',),
                _F(NUME_ORDRE=1,
                   GROUP_NO='E',
                   RESULTAT=RESU,
                   NOM_CHAM='EPSI_ELNO',
                   NOM_CMP='EPXY',
                   VALE_CALC=8.87749118737E-08,
                   VALE_REFE=0.0,
                   REFERENCE='NON_DEFINI',
                   CRITERE='ABSOLU',
                   PRECISION=1.E-2,
                   MAILLE='M1',),
                _F(NUME_ORDRE=1,
                   GROUP_NO='F',
                   RESULTAT=RESU,
                   NOM_CHAM='EPSI_ELNO',
                   NOM_CMP='EPXX',
                   VALE_CALC=-5.98046130028E-05,
                   VALE_REFE=-6.0000000000000002E-05,
                   REFERENCE='NON_DEFINI',
                   CRITERE='RELATIF',
                   PRECISION=1.E-2,
                   MAILLE='M48',),
                _F(NUME_ORDRE=1,
                   GROUP_NO='F',
                   RESULTAT=RESU,
                   NOM_CHAM='EPSI_ELNO',
                   NOM_CMP='EPYY',
                   VALE_CALC=-6.00143555912E-05,
                   VALE_REFE=0.0,
                   REFERENCE='NON_DEFINI',
                   CRITERE='ABSOLU',
                   PRECISION=1.E-2,
                   MAILLE='M48',),
                _F(NUME_ORDRE=1,
                   GROUP_NO='F',
                   RESULTAT=RESU,
                   NOM_CHAM='EPSI_ELNO',
                   NOM_CMP='EPZZ',
                   VALE_CALC=0.000199840039857,
                   VALE_REFE=2.0000000000000001E-4,
                   REFERENCE='NON_DEFINI',
                   CRITERE='RELATIF',
                   PRECISION=1.E-2,
                   MAILLE='M48',),
                _F(NUME_ORDRE=1,
                   GROUP_NO='F',
                   RESULTAT=RESU,
                   NOM_CHAM='EPSI_ELNO',
                   NOM_CMP='EPXY',
                   VALE_CALC=-8.49592579511E-08,
                   VALE_REFE=0.0,
                   REFERENCE='NON_DEFINI',
                   CRITERE='ABSOLU',
                   PRECISION=1.E-2,
                   MAILLE='M48',),
                ),
          )

#-----------------------------------------------------------------

TEST_RESU(RESU=(_F(NUME_ORDRE=1,
                   GROUP_NO='A',
                   RESULTAT=RESU,
                   NOM_CHAM='SIGM_ELNO',
                   NOM_CMP='SIXX',
                   VALE_CALC=-59.890205911,
                   VALE_REFE=-60.0,
                   REFERENCE='NON_DEFINI',
                   CRITERE='RELATIF',
                   PRECISION=1.E-2,
                   MAILLE='M2',),
                _F(NUME_ORDRE=1,
                   GROUP_NO='A',
                   RESULTAT=RESU,
                   NOM_CHAM='SIGM_ELNO',
                   NOM_CMP='SIYY',
                   VALE_CALC=0.00398530827808,
                   VALE_REFE=0.0,
                   REFERENCE='NON_DEFINI',
                   CRITERE='ABSOLU',
                   PRECISION=0.1,
                   MAILLE='M2',),
                _F(NUME_ORDRE=1,
                   GROUP_NO='A',
                   RESULTAT=RESU,
                   NOM_CHAM='SIGM_ELNO',
                   NOM_CMP='SIZZ',
                   VALE_CALC=99.9259573821,
                   CRITERE='RELATIF',
                   MAILLE='M2',),
                _F(NUME_ORDRE=1,
                   GROUP_NO='A',
                   RESULTAT=RESU,
                   NOM_CHAM='SIGM_ELNO',
                   NOM_CMP='SIXY',
                   VALE_CALC=-0.013657683442,
                   VALE_REFE=0.0,
                   REFERENCE='NON_DEFINI',
                   CRITERE='ABSOLU',
                   PRECISION=0.1,
                   MAILLE='M2',),
                ),
          )

#-----------------------------------------------------------------

TEST_RESU(RESU=(_F(NUME_ORDRE=1,
                   GROUP_NO='B',
                   RESULTAT=RESU,
                   NOM_CHAM='SIGM_ELNO',
                   NOM_CMP='SIXX',
                   VALE_CALC=0.0324908432805,
                   VALE_REFE=0.0,
                   REFERENCE='NON_DEFINI',
                   CRITERE='ABSOLU',
                   PRECISION=0.1,
                   MAILLE='M59',),
                _F(NUME_ORDRE=1,
                   GROUP_NO='B',
                   RESULTAT=RESU,
                   NOM_CHAM='SIGM_ELNO',
                   NOM_CMP='SIYY',
                   VALE_CALC=0.000222743373573,
                   VALE_REFE=0.0,
                   REFERENCE='NON_DEFINI',
                   CRITERE='ABSOLU',
                   PRECISION=0.05,
                   MAILLE='M59',),
                _F(NUME_ORDRE=1,
                   GROUP_NO='B',
                   RESULTAT=RESU,
                   NOM_CHAM='SIGM_ELNO',
                   NOM_CMP='SIZZ',
                   VALE_CALC=39.9778220474,
                   CRITERE='RELATIF',
                   MAILLE='M59',),
                _F(NUME_ORDRE=1,
                   GROUP_NO='B',
                   RESULTAT=RESU,
                   NOM_CHAM='SIGM_ELNO',
                   NOM_CMP='SIXY',
                   VALE_CALC=0.0130706849447,
                   VALE_REFE=0.0,
                   REFERENCE='NON_DEFINI',
                   CRITERE='ABSOLU',
                   PRECISION=0.05,
                   MAILLE='M59',),
                ),
          )

#-----------------------------------------------------------------

TEST_RESU(RESU=(_F(NUME_ORDRE=1,
                   GROUP_NO='E',
                   RESULTAT=RESU,
                   NOM_CHAM='SIGM_ELNO',
                   NOM_CMP='SIXX',
                   VALE_CALC=-59.89020592,
                   VALE_REFE=-60.0,
                   REFERENCE='NON_DEFINI',
                   CRITERE='RELATIF',
                   PRECISION=1.E-2,
                   MAILLE='M1',),
                _F(NUME_ORDRE=1,
                   GROUP_NO='E',
                   RESULTAT=RESU,
                   NOM_CHAM='SIGM_ELNO',
                   NOM_CMP='SIYY',
                   VALE_CALC=0.00398531621941,
                   VALE_REFE=0.0,
                   REFERENCE='NON_DEFINI',
                   CRITERE='ABSOLU',
                   PRECISION=0.1,
                   MAILLE='M1',),
                _F(NUME_ORDRE=1,
                   GROUP_NO='E',
                   RESULTAT=RESU,
                   NOM_CHAM='SIGM_ELNO',
                   NOM_CMP='SIZZ',
                   VALE_CALC=99.9259573814,
                   CRITERE='RELATIF',
                   MAILLE='M1',),
                _F(NUME_ORDRE=1,
                   GROUP_NO='E',
                   RESULTAT=RESU,
                   NOM_CHAM='SIGM_ELNO',
                   NOM_CMP='SIXY',
                   VALE_CALC=0.0136576787498,
                   VALE_REFE=0.0,
                   REFERENCE='NON_DEFINI',
                   CRITERE='ABSOLU',
                   PRECISION=0.1,
                   MAILLE='M1',),
                ),
          )

#-----------------------------------------------------------------

TEST_RESU(RESU=(_F(NUME_ORDRE=1,
                   GROUP_NO='F',
                   RESULTAT=RESU,
                   NOM_CHAM='SIGM_ELNO',
                   NOM_CMP='SIXX',
                   VALE_CALC=0.0324908376056,
                   VALE_REFE=0.0,
                   REFERENCE='NON_DEFINI',
                   CRITERE='ABSOLU',
                   PRECISION=0.1,
                   MAILLE='M48',),
                _F(NUME_ORDRE=1,
                   GROUP_NO='F',
                   RESULTAT=RESU,
                   NOM_CHAM='SIGM_ELNO',
                   NOM_CMP='SIYY',
                   VALE_CALC=0.000222747088478,
                   VALE_REFE=0.0,
                   REFERENCE='NON_DEFINI',
                   CRITERE='ABSOLU',
                   PRECISION=0.05,
                   MAILLE='M48',),
                _F(NUME_ORDRE=1,
                   GROUP_NO='F',
                   RESULTAT=RESU,
                   NOM_CHAM='SIGM_ELNO',
                   NOM_CMP='SIZZ',
                   VALE_CALC=39.9778220468,
                   CRITERE='RELATIF',
                   MAILLE='M48',),
                _F(NUME_ORDRE=1,
                   GROUP_NO='F',
                   RESULTAT=RESU,
                   NOM_CHAM='SIGM_ELNO',
                   NOM_CMP='SIXY',
                   VALE_CALC=-0.0130706550694,
                   VALE_REFE=0.0,
                   REFERENCE='NON_DEFINI',
                   CRITERE='ABSOLU',
                   PRECISION=0.05,
                   MAILLE='M48',),
                ),
          )

#-----------------------------------------------------------------
#  TEST DU CHARGEMENT ROTATION EN AXIS

CHROT=AFFE_CHAR_MECA(MODELE=MO,
                     ROTATION=_F(VITESSE=100.,
                                 AXE=(0.,1.,0.,),),
                     DDL_IMPO=_F(GROUP_NO='F',
                                 DY=0.,),);

RESU2=MECA_STATIQUE(MODELE=MO,
                    CHAM_MATER=CM,
                    EXCIT=_F(CHARGE=CHROT,),);

RESU2=CALC_CHAMP(reuse=RESU2,RESULTAT=RESU2,NUME_ORDRE=1,CONTRAINTE=('SIGM_ELNO'))


TEST_RESU(RESU=(_F(NUME_ORDRE=1,
                   GROUP_NO='A',
                   RESULTAT=RESU2,
                   NOM_CHAM='DEPL',
                   NOM_CMP='DX',
                   VALE_CALC=1.35511345368,
                   CRITERE='RELATIF',
                   ),
                _F(NUME_ORDRE=1,
                   GROUP_NO='C',
                   RESULTAT=RESU2,
                   NOM_CHAM='DEPL',
                   NOM_CMP='DX',
                   VALE_CALC=1.35531703041,
                   CRITERE='RELATIF',
                   ),
                _F(NUME_ORDRE=1,
                   GROUP_NO='E',
                   RESULTAT=RESU2,
                   NOM_CHAM='DEPL',
                   NOM_CMP='DX',
                   VALE_CALC=1.35511345369,
                   CRITERE='RELATIF',
                   ),
                ),
          )

#-----------------------------------------------------------------

TEST_RESU(RESU=(_F(NUME_ORDRE=1,
                   GROUP_NO='A',
                   RESULTAT=RESU2,
                   NOM_CHAM='SIGM_ELNO',
                   NOM_CMP='SIXX',
                   VALE_CALC=1893.58641219,
                   VALE_REFE=1893.5799999999999,
                   REFERENCE='NON_DEFINI',
                   CRITERE='RELATIF',
                   PRECISION=1.E-2,
                   MAILLE='M2',),
                _F(NUME_ORDRE=1,
                   GROUP_NO='A',
                   RESULTAT=RESU2,
                   NOM_CHAM='SIGM_ELNO',
                   NOM_CMP='SIYY',
                   VALE_CALC=29.2182280073,
                   VALE_REFE=29.2182,
                   REFERENCE='NON_DEFINI',
                   CRITERE='ABSOLU',
                   PRECISION=0.1,
                   MAILLE='M2',),
                _F(NUME_ORDRE=1,
                   GROUP_NO='A',
                   RESULTAT=RESU2,
                   NOM_CHAM='SIGM_ELNO',
                   NOM_CMP='SIZZ',
                   VALE_CALC=2709166.04372,
                   CRITERE='RELATIF',
                   MAILLE='M2',),
                _F(NUME_ORDRE=1,
                   GROUP_NO='A',
                   RESULTAT=RESU2,
                   NOM_CHAM='SIGM_ELNO',
                   NOM_CMP='SIXY',
                   VALE_CALC=-184.722492136,
                   VALE_REFE=-184.72200000000001,
                   REFERENCE='NON_DEFINI',
                   CRITERE='ABSOLU',
                   PRECISION=0.1,
                   MAILLE='M2',),
                ),
          )

#  TEST DU CHARGEMENT ROTATION EN AXIS_FOURIER

MO2=AFFE_MODELE(MAILLAGE=M,
                
                AFFE=_F(TOUT='OUI',
                        PHENOMENE='MECANIQUE',
                        MODELISATION='AXIS_FOURIER',),);

CH2=AFFE_CHAR_MECA(MODELE=MO2,
                   ROTATION=_F(VITESSE=100.,
                               AXE=(0.,1.,0.,),),);

CHDIR=AFFE_CHAR_MECA(MODELE=MO2,
                     DDL_IMPO=_F(GROUP_NO='F',
                                 DY=0.,
                                 DZ=0.,),);

RESU3=MACRO_ELAS_MULT(MODELE=MO2,
                      CHAM_MATER=CM,
                      CHAR_MECA_GLOBAL=CHDIR,
                      CAS_CHARGE=_F(MODE_FOURIER=0,
                                    CHAR_MECA=CH2,),);

RESUFOUR=COMB_FOURIER(RESULTAT=RESU3,
                      ANGLE=0.,
                      NOM_CHAM='DEPL',);

TEST_RESU(RESU=(_F(NUME_ORDRE=1,
                   GROUP_NO='A',
                   RESULTAT=RESUFOUR,
                   NOM_CHAM='DEPL',
                   NOM_CMP='DX',
                   VALE_CALC=1.35511346318,
                   CRITERE='RELATIF',
                   ),
                _F(NUME_ORDRE=1,
                   GROUP_NO='C',
                   RESULTAT=RESUFOUR,
                   NOM_CHAM='DEPL',
                   NOM_CMP='DX',
                   VALE_CALC=1.35531703991,
                   CRITERE='RELATIF',
                   ),
                _F(NUME_ORDRE=1,
                   GROUP_NO='E',
                   RESULTAT=RESUFOUR,
                   NOM_CHAM='DEPL',
                   NOM_CMP='DX',
                   VALE_CALC=1.35511346318,
                   CRITERE='RELATIF',
                   ),
                ),
          )


CHFO=AFFE_CHAR_MECA(MODELE=MO2,
                  PRES_REP=_F(GROUP_MA='GRMA13',
                              PRES=60.,),);

RESUF=MACRO_ELAS_MULT(MODELE=MO2,
                      CHAM_MATER=CM,
                      CHAR_MECA_GLOBAL=CHDIR,
                      CAS_CHARGE=_F(MODE_FOURIER=0,
                                    CHAR_MECA=CHFO,),);
RESUF = CALC_CHAMP(reuse=RESUF,
                    RESULTAT=RESUF,
                    DEFORMATION='EPSI_ELNO')

RESUFO=COMB_FOURIER(RESULTAT=RESUF,
                      ANGLE=48.5,
                      NOM_CHAM=('DEPL','EPSI_ELNO'));


TEST_RESU(RESU=(_F(NUME_ORDRE=1,
                   GROUP_NO='A',
                   REFERENCE='ANALYTIQUE',
                   RESULTAT=RESUFO,
                   NOM_CHAM='EPSI_ELNO',
                   NOM_CMP='EPXX',
                   VALE_CALC=-0.000449345947598,
                   VALE_REFE=-4.5E-4,
                   CRITERE='RELATIF',
                   MAILLE='M2',
                   PRECISION=1.E-2,
                   ),
                _F(NUME_ORDRE=1,
                   GROUP_NO='A',
                   REFERENCE='ANALYTIQUE',
                   RESULTAT=RESUFO,
                   NOM_CHAM='EPSI_ELNO',
                   NOM_CMP='EPZZ',
                   VALE_CALC=0.000589459131201,
                   VALE_REFE=5.9E-4,
                   CRITERE='RELATIF',
                   MAILLE='M2',
                   PRECISION=1.E-2,
                   ),
                _F(NUME_ORDRE=1,
                   GROUP_NO='B',
                   REFERENCE='ANALYTIQUE',
                   RESULTAT=RESUFO,
                   NOM_CHAM='EPSI_ELNO',
                   NOM_CMP='EPXX',
                   VALE_CALC=-5.98035111938E-05,
                   VALE_REFE=-6.E-5,
                   CRITERE='RELATIF',
                   MAILLE='M59',
                   PRECISION=1.E-2,
                   ),
                _F(NUME_ORDRE=1,
                   GROUP_NO='B',
                   REFERENCE='ANALYTIQUE',
                   RESULTAT=RESUFO,
                   NOM_CHAM='EPSI_ELNO',
                   NOM_CMP='EPZZ',
                   VALE_CALC=0.000199825631253,
                   VALE_REFE=2.E-4,
                   CRITERE='RELATIF',
                   MAILLE='M59',
                   PRECISION=1.E-2,
                   ),
                ),
          )


FIN();

#
