# ======================================================================
# COPYRIGHT (C) 1991 - 2016  EDF R&D                  WWW.CODE-ASTER.ORG
# THIS PROGRAM IS FREE SOFTWARE; YOU CAN REDISTRIBUTE IT AND/OR MODIFY
# IT UNDER THE TERMS OF THE GNU GENERAL PUBLIC LICENSE AS PUBLISHED BY
# THE FREE SOFTWARE FOUNDATION; EITHER VERSION 2 OF THE LICENSE, OR
# (AT YOUR OPTION) ANY LATER VERSION.
#
# THIS PROGRAM IS DISTRIBUTED IN THE HOPE THAT IT WILL BE USEFUL, BUT
# WITHOUT ANY WARRANTY; WITHOUT EVEN THE IMPLIED WARRANTY OF
# MERCHANTABILITY OR FITNESS FOR A PARTICULAR PURPOSE. SEE THE GNU
# GENERAL PUBLIC LICENSE FOR MORE DETAILS.
#
# YOU SHOULD HAVE RECEIVED A COPY OF THE GNU GENERAL PUBLIC LICENSE
# ALONG WITH THIS PROGRAM; IF NOT, WRITE TO EDF R&D CODE_ASTER,
#    1 AVENUE DU GENERAL DE GAULLE, 92141 CLAMART CEDEX, FRANCE.
# ======================================================================
#CAS_TEST__: SSLV100C
# ----------------------------------------------------------------------
# SSLV100 G                  COMMANDES                          8/08/91
# CYLINDRE CREUX EN DEFORMATIONS PLANES
#
# MODELISATION : ELEMENTS MECANIQUE D_PLAN ( QUAD9)
# MAILLAGE     : ASTER (ISSU DE ALI-BABA)
# ----------------------------------------------------------------------
# GROUPES DE NOEUDS: A , B , C , D , E , F , BORDAB
# GROUPES DE MAILLES:  FACEAE , FACEEF
# ----------------------------------------------------------------------
#

DEBUT(CODE=_F(NIV_PUB_WEB='INTERNET'),DEBUG=_F(SDVERI='OUI'))

M=LIRE_MAILLAGE(FORMAT='MED',   )

MO=AFFE_MODELE(            MAILLAGE=M,
                       # VERIF       :   'MAILLE'
                                  AFFE=_F(  TOUT = 'OUI',
                                         PHENOMENE = 'MECANIQUE',
                                         MODELISATION = 'D_PLAN'))

MA=DEFI_MATERIAU(   ELAS=_F(  E     = 200000.,
                              NU    = 0.3,
                              ALPHA = 0.     ),
                    RCCM=_F(  M_KE  = 1.7,
                              N_KE  = 0.3,
                              SM    = 200.   ),
                )

CM=AFFE_MATERIAU(        MAILLAGE=M,
                                  AFFE=_F(  TOUT = 'OUI',
                                         MATER = MA))

CH=AFFE_CHAR_MECA(         MODELE=MO,
                              DDL_IMPO=_F(  GROUP_NO = 'BORDAB',  DY = 0.),
                             FACE_IMPO=_F(  GROUP_MA = 'FACEEF',  DNOR = 0.),
                              PRES_REP=_F(  GROUP_MA = 'FACEAE',  PRES = 60.))

RESU=MECA_STATIQUE(MODELE=MO,
                   CHAM_MATER=CM,
                   EXCIT=_F(CHARGE=CH,),
                    );

RESU=CALC_CHAMP(reuse=RESU,RESULTAT=RESU,CONTRAINTE=('SIGM_ELNO'))


#--------------------------------------------------------------------


T_RESU=MACR_LIGN_COUPE(RESULTAT=RESU,NOM_CHAM='SIGM_ELNO',
                   LIGN_COUPE=(
                     _F(TYPE='SEGMENT', NB_POINTS=100, INTITULE='CH1',
                        COOR_ORIG=( 9.2387974262238E-02, 3.8268297910690E-02, ),
                        COOR_EXTR=( 1.8477588891983E-01, 7.6536655426025E-02, )),
                     _F(TYPE='SEGMENT', NB_POINTS=100, INTITULE='CH2',
                        COOR_ORIG=( 0., 0., ),
                        COOR_EXTR=( 1.8477588891983E-01, 7.6536655426025E-02, )),
                  ))

T_PMPB=POST_RCCM(  OPTION='PM_PB',
                   TYPE_RESU_MECA='EVOLUTION',
                   MATER=MA,
                   TRANSITOIRE=_F( TABL_RESU_MECA=T_RESU, ),
                )

#--------------------------------------------------------------------
TEST_TABLE(
           VALE_CALC=80.087706172,
           NOM_PARA='PM',
           TABLE=T_PMPB,
           FILTRE=(_F(NOM_PARA='INTITULE',
                      VALE_K='CH1',),
                   _F(NOM_PARA='LIEU',
                      VALE_K='ORIG',),
                   ),
           )

TEST_TABLE(
           VALE_CALC=54.6441709869,
           NOM_PARA='PB',
           TABLE=T_PMPB,
           FILTRE=(_F(NOM_PARA='INTITULE',
                      VALE_K='CH1',),
                   _F(NOM_PARA='LIEU',
                      VALE_K='ORIG',),
                   ),
           )

TEST_TABLE(
           VALE_CALC=134.731877014,
           NOM_PARA='PMB',
           TABLE=T_PMPB,
           FILTRE=(_F(NOM_PARA='INTITULE',
                      VALE_K='CH1',),
                   _F(NOM_PARA='LIEU',
                      VALE_K='ORIG',),
                   ),
           )

TEST_TABLE(
           VALE_CALC=25.4435359516,
           NOM_PARA='PMB',
           TABLE=T_PMPB,
           FILTRE=(_F(NOM_PARA='INTITULE',
                      VALE_K='CH1',),
                   _F(NOM_PARA='LIEU',
                      VALE_K='EXTR',),
                   ),
           )

#--------------------------------------------------------------------
TEST_TABLE(
           VALE_CALC=79.2971236065,
           NOM_PARA='PM',
           TABLE=T_PMPB,
           FILTRE=(_F(NOM_PARA='INTITULE',
                      VALE_K='CH2',),
                   _F(NOM_PARA='LIEU',
                      VALE_K='ORIG',),
                   ),
           )

TEST_TABLE(
           VALE_CALC=53.3569738876,
           NOM_PARA='PB',
           TABLE=T_PMPB,
           FILTRE=(_F(NOM_PARA='INTITULE',
                      VALE_K='CH2',),
                   _F(NOM_PARA='LIEU',
                      VALE_K='ORIG',),
                   ),
           )

TEST_TABLE(
           VALE_CALC=132.654097493,
           NOM_PARA='PMB',
           TABLE=T_PMPB,
           FILTRE=(_F(NOM_PARA='INTITULE',
                      VALE_K='CH2',),
                   _F(NOM_PARA='LIEU',
                      VALE_K='ORIG',),
                   ),
           )

TEST_TABLE(
           VALE_CALC=25.9401497236,
           NOM_PARA='PMB',
           TABLE=T_PMPB,
           FILTRE=(_F(NOM_PARA='INTITULE',
                      VALE_K='CH2',),
                   _F(NOM_PARA='LIEU',
                      VALE_K='EXTR',),
                   ),
           )

#--------------------------------------------------------------------
TEST_RESU(RESU=(_F(NUME_ORDRE=1,
                   GROUP_NO='A',
                   REFERENCE='ANALYTIQUE',
                   RESULTAT=RESU,
                   NOM_CHAM='DEPL',
                   NOM_CMP='DX',
                   VALE_CALC=5.71726696679E-05,
                   VALE_REFE=5.7200000000000001E-05,
                   CRITERE='RELATIF',
                   PRECISION=1.E-2,),
                _F(NUME_ORDRE=1,
                   GROUP_NO='A',
                   REFERENCE='ANALYTIQUE',
                   RESULTAT=RESU,
                   NOM_CHAM='DEPL',
                   NOM_CMP='DY',
                   VALE_CALC=0.,
                   VALE_REFE=0.0,
                   CRITERE='ABSOLU',
                   PRECISION=1.E-10,),
                _F(NUME_ORDRE=1,
                   GROUP_NO='B',
                   REFERENCE='ANALYTIQUE',
                   RESULTAT=RESU,
                   NOM_CHAM='DEPL',
                   NOM_CMP='DX',
                   VALE_CALC=3.63862688622E-05,
                   VALE_REFE=3.6399999999999997E-05,
                   CRITERE='RELATIF',
                   PRECISION=1.E-2,),
                _F(NUME_ORDRE=1,
                   GROUP_NO='B',
                   REFERENCE='ANALYTIQUE',
                   RESULTAT=RESU,
                   NOM_CHAM='DEPL',
                   NOM_CMP='DY',
                   VALE_CALC=0.,
                   VALE_REFE=0.0,
                   CRITERE='ABSOLU',
                   PRECISION=1.E-10,),
                _F(NUME_ORDRE=1,
                   GROUP_NO='C',
                   REFERENCE='ANALYTIQUE',
                   RESULTAT=RESU,
                   NOM_CHAM='DEPL',
                   NOM_CMP='DX',
                   VALE_CALC=5.28206479587E-05,
                   VALE_REFE=5.2845900000000002E-05,
                   CRITERE='RELATIF',
                   PRECISION=1.E-2,),
                _F(NUME_ORDRE=1,
                   GROUP_NO='C',
                   REFERENCE='ANALYTIQUE',
                   RESULTAT=RESU,
                   NOM_CHAM='DEPL',
                   NOM_CMP='DY',
                   VALE_CALC=2.18789938015E-05,
                   VALE_REFE=2.1889500000000001E-05,
                   CRITERE='RELATIF',
                   PRECISION=1.E-2,),
                _F(NUME_ORDRE=1,
                   GROUP_NO='D',
                   REFERENCE='ANALYTIQUE',
                   RESULTAT=RESU,
                   NOM_CHAM='DEPL',
                   NOM_CMP='DX',
                   VALE_CALC=3.36165332108E-05,
                   VALE_REFE=3.36292E-05,
                   CRITERE='RELATIF',
                   PRECISION=1.E-2,),
                _F(NUME_ORDRE=1,
                   GROUP_NO='D',
                   REFERENCE='ANALYTIQUE',
                   RESULTAT=RESU,
                   NOM_CHAM='DEPL',
                   NOM_CMP='DY',
                   VALE_CALC=1.39244179721E-05,
                   VALE_REFE=1.39297E-05,
                   CRITERE='RELATIF',
                   PRECISION=1.E-2,),
                _F(NUME_ORDRE=1,
                   GROUP_NO='E',
                   REFERENCE='ANALYTIQUE',
                   RESULTAT=RESU,
                   NOM_CHAM='DEPL',
                   NOM_CMP='DX',
                   VALE_CALC=4.04271920127E-05,
                   VALE_REFE=4.04465E-05,
                   CRITERE='RELATIF',
                   PRECISION=1.E-2,),
                _F(NUME_ORDRE=1,
                   GROUP_NO='E',
                   REFERENCE='ANALYTIQUE',
                   RESULTAT=RESU,
                   NOM_CHAM='DEPL',
                   NOM_CMP='DY',
                   VALE_CALC=4.04271920127E-05,
                   VALE_REFE=4.04465E-05,
                   CRITERE='RELATIF',
                   PRECISION=1.E-2,),
                _F(NUME_ORDRE=1,
                   GROUP_NO='F',
                   REFERENCE='ANALYTIQUE',
                   RESULTAT=RESU,
                   NOM_CHAM='DEPL',
                   NOM_CMP='DX',
                   VALE_CALC=2.57289960622E-05,
                   VALE_REFE=2.5738700000000001E-05,
                   CRITERE='RELATIF',
                   PRECISION=1.E-2,),
                _F(NUME_ORDRE=1,
                   GROUP_NO='F',
                   REFERENCE='ANALYTIQUE',
                   RESULTAT=RESU,
                   NOM_CHAM='DEPL',
                   NOM_CMP='DY',
                   VALE_CALC=2.57289960622E-05,
                   VALE_REFE=2.5738700000000001E-05,
                   CRITERE='RELATIF',
                   PRECISION=1.E-2,),
                   
                _F(NUME_ORDRE=1,
                   GROUP_NO='A',
                   REFERENCE='ANALYTIQUE',
                   RESULTAT=RESU,
                   NOM_CHAM='SIGM_ELNO',
                   NOM_CMP='SIXX',
                   VALE_CALC=-59.7915652297,
                   VALE_REFE=-60.0,
                   CRITERE='RELATIF',
                   PRECISION=1.E-2,
                   MAILLE='M1',),
                _F(NUME_ORDRE=1,
                   GROUP_NO='A',
                   REFERENCE='ANALYTIQUE',
                   RESULTAT=RESU,
                   NOM_CHAM='SIGM_ELNO',
                   NOM_CMP='SIYY',
                   VALE_CALC=99.8983016985,
                   VALE_REFE=100.0,
                   CRITERE='RELATIF',
                   PRECISION=1.E-2,
                   MAILLE='M1',),
                _F(NUME_ORDRE=1,
                   GROUP_NO='A',
                   REFERENCE='ANALYTIQUE',
                   RESULTAT=RESU,
                   NOM_CHAM='SIGM_ELNO',
                   NOM_CMP='SIZZ',
                   VALE_CALC=12.0320209406,
                   VALE_REFE=12.0,
                   CRITERE='RELATIF',
                   PRECISION=0.050000000000000003,
                   MAILLE='M1',),
                _F(NUME_ORDRE=1,
                   GROUP_NO='A',
                   REFERENCE='ANALYTIQUE',
                   RESULTAT=RESU,
                   NOM_CHAM='SIGM_ELNO',
                   NOM_CMP='SIXY',
                   VALE_CALC=-0.00674169589471,
                   VALE_REFE=0.0,
                   CRITERE='ABSOLU',
                   PRECISION=1.E-2,
                   MAILLE='M1',),
                   
                _F(NUME_ORDRE=1,
                   GROUP_NO='B',
                   REFERENCE='ANALYTIQUE',
                   RESULTAT=RESU,
                   NOM_CHAM='SIGM_ELNO',
                   NOM_CMP='SIXX',
                   VALE_CALC=0.00390582068743,
                   VALE_REFE=0.0,
                   CRITERE='ABSOLU',
                   PRECISION=0.10000000000000001,
                   MAILLE='M12',),
                _F(NUME_ORDRE=1,
                   GROUP_NO='B',
                   REFERENCE='ANALYTIQUE',
                   RESULTAT=RESU,
                   NOM_CHAM='SIGM_ELNO',
                   NOM_CMP='SIYY',
                   VALE_CALC=40.006409454,
                   VALE_REFE=40.0,
                   CRITERE='RELATIF',
                   PRECISION=1.E-2,
                   MAILLE='M12',),
                _F(NUME_ORDRE=1,
                   GROUP_NO='B',
                   REFERENCE='ANALYTIQUE',
                   RESULTAT=RESU,
                   NOM_CHAM='SIGM_ELNO',
                   NOM_CMP='SIZZ',
                   VALE_CALC=12.0030945824,
                   VALE_REFE=12.0,
                   CRITERE='RELATIF',
                   PRECISION=1.E-2,
                   MAILLE='M12',),
                _F(NUME_ORDRE=1,
                   GROUP_NO='B',
                   REFERENCE='ANALYTIQUE',
                   RESULTAT=RESU,
                   NOM_CHAM='SIGM_ELNO',
                   NOM_CMP='SIXY',
                   VALE_CALC=-0.000336653748237,
                   VALE_REFE=0.0,
                   CRITERE='ABSOLU',
                   PRECISION=1.E-2,
                   MAILLE='M12',),
                   
                _F(NUME_ORDRE=1,
                   GROUP_NO='C',
                   REFERENCE='ANALYTIQUE',
                   RESULTAT=RESU,
                   NOM_CHAM='SIGM_ELNO',
                   NOM_CMP='SIXX',
                   VALE_CALC=-36.4101847491,
                   VALE_REFE=-36.568539999999999,
                   CRITERE='RELATIF',
                   PRECISION=0.02,
                   MAILLE='M73',),
                _F(NUME_ORDRE=1,
                   GROUP_NO='C',
                   REFERENCE='ANALYTIQUE',
                   RESULTAT=RESU,
                   NOM_CHAM='SIGM_ELNO',
                   NOM_CMP='SIXX',
                   VALE_CALC=-36.4004263867,
                   VALE_REFE=-36.568539999999999,
                   CRITERE='RELATIF',
                   PRECISION=0.02,
                   MAILLE='M85',),
                _F(NUME_ORDRE=1,
                   GROUP_NO='C',
                   REFERENCE='ANALYTIQUE',
                   RESULTAT=RESU,
                   NOM_CHAM='SIGM_ELNO',
                   NOM_CMP='SIYY',
                   VALE_CALC=76.5184685685,
                   VALE_REFE=76.568539999999999,
                   CRITERE='RELATIF',
                   PRECISION=1.E-2,
                   MAILLE='M73',),
                _F(NUME_ORDRE=1,
                   GROUP_NO='C',
                   REFERENCE='ANALYTIQUE',
                   RESULTAT=RESU,
                   NOM_CHAM='SIGM_ELNO',
                   NOM_CMP='SIYY',
                   VALE_CALC=76.5089472555,
                   VALE_REFE=76.568539999999999,
                   CRITERE='RELATIF',
                   PRECISION=1.E-2,
                   MAILLE='M85',),
                _F(NUME_ORDRE=1,
                   GROUP_NO='C',
                   REFERENCE='ANALYTIQUE',
                   RESULTAT=RESU,
                   NOM_CHAM='SIGM_ELNO',
                   NOM_CMP='SIZZ',
                   VALE_CALC=12.0324851458,
                   VALE_REFE=12.0,
                   CRITERE='RELATIF',
                   PRECISION=0.029999999999999999,
                   MAILLE='M73',),
                _F(NUME_ORDRE=1,
                   GROUP_NO='C',
                   REFERENCE='ANALYTIQUE',
                   RESULTAT=RESU,
                   NOM_CHAM='SIGM_ELNO',
                   NOM_CMP='SIZZ',
                   VALE_CALC=12.0325562606,
                   VALE_REFE=12.0,
                   CRITERE='RELATIF',
                   PRECISION=0.029999999999999999,
                   MAILLE='M85',),
                _F(NUME_ORDRE=1,
                   GROUP_NO='C',
                   REFERENCE='ANALYTIQUE',
                   RESULTAT=RESU,
                   NOM_CHAM='SIGM_ELNO',
                   NOM_CMP='SIXY',
                   VALE_CALC=-56.4542593854,
                   VALE_REFE=-56.568539999999999,
                   CRITERE='RELATIF',
                   PRECISION=1.E-2,
                   MAILLE='M73',),
                _F(NUME_ORDRE=1,
                   GROUP_NO='C',
                   REFERENCE='ANALYTIQUE',
                   RESULTAT=RESU,
                   NOM_CHAM='SIGM_ELNO',
                   NOM_CMP='SIXY',
                   VALE_CALC=-56.4640525396,
                   VALE_REFE=-56.568539999999999,
                   CRITERE='RELATIF',
                   PRECISION=1.E-2,
                   MAILLE='M85',),
                   
                _F(NUME_ORDRE=1,
                   GROUP_NO='D',
                   REFERENCE='ANALYTIQUE',
                   RESULTAT=RESU,
                   NOM_CHAM='SIGM_ELNO',
                   NOM_CMP='SIXX',
                   VALE_CALC=5.86199789297,
                   VALE_REFE=5.8578599999999996,
                   CRITERE='RELATIF',
                   PRECISION=0.02,
                   MAILLE='M84',),
                _F(NUME_ORDRE=1,
                   GROUP_NO='D',
                   REFERENCE='ANALYTIQUE',
                   RESULTAT=RESU,
                   NOM_CHAM='SIGM_ELNO',
                   NOM_CMP='SIXX',
                   VALE_CALC=5.86229194074,
                   VALE_REFE=5.8578599999999996,
                   CRITERE='RELATIF',
                   PRECISION=0.02,
                   MAILLE='M96',),
                _F(NUME_ORDRE=1,
                   GROUP_NO='D',
                   REFERENCE='ANALYTIQUE',
                   RESULTAT=RESU,
                   NOM_CHAM='SIGM_ELNO',
                   NOM_CMP='SIYY',
                   VALE_CALC=34.1488763066,
                   VALE_REFE=34.142139999999998,
                   CRITERE='RELATIF',
                   PRECISION=1.E-2,
                   MAILLE='M84',),
                _F(NUME_ORDRE=1,
                   GROUP_NO='D',
                   REFERENCE='ANALYTIQUE',
                   RESULTAT=RESU,
                   NOM_CHAM='SIGM_ELNO',
                   NOM_CMP='SIYY',
                   VALE_CALC=34.1481337259,
                   VALE_REFE=34.142139999999998,
                   CRITERE='RELATIF',
                   PRECISION=1.E-2,
                   MAILLE='M96',),
                _F(NUME_ORDRE=1,
                   GROUP_NO='D',
                   REFERENCE='ANALYTIQUE',
                   RESULTAT=RESU,
                   NOM_CHAM='SIGM_ELNO',
                   NOM_CMP='SIZZ',
                   VALE_CALC=12.0032622599,
                   VALE_REFE=12.0,
                   CRITERE='RELATIF',
                   PRECISION=1.E-2,
                   MAILLE='M84',),
                _F(NUME_ORDRE=1,
                   GROUP_NO='D',
                   REFERENCE='ANALYTIQUE',
                   RESULTAT=RESU,
                   NOM_CHAM='SIGM_ELNO',
                   NOM_CMP='SIZZ',
                   VALE_CALC=12.0031277,
                   VALE_REFE=12.0,
                   CRITERE='RELATIF',
                   PRECISION=1.E-2,
                   MAILLE='M96',),
                _F(NUME_ORDRE=1,
                   GROUP_NO='D',
                   REFERENCE='ANALYTIQUE',
                   RESULTAT=RESU,
                   NOM_CHAM='SIGM_ELNO',
                   NOM_CMP='SIXY',
                   VALE_CALC=-14.14288169,
                   VALE_REFE=-14.142139999999999,
                   CRITERE='RELATIF',
                   PRECISION=1.E-2,
                   MAILLE='M84',),
                _F(NUME_ORDRE=1,
                   GROUP_NO='D',
                   REFERENCE='ANALYTIQUE',
                   RESULTAT=RESU,
                   NOM_CHAM='SIGM_ELNO',
                   NOM_CMP='SIXY',
                   VALE_CALC=-14.1432131855,
                   VALE_REFE=-14.142139999999999,
                   CRITERE='RELATIF',
                   PRECISION=1.E-2,
                   MAILLE='M96',),
                   
                _F(NUME_ORDRE=1,
                   GROUP_NO='E',
                   REFERENCE='ANALYTIQUE',
                   RESULTAT=RESU,
                   NOM_CHAM='SIGM_ELNO',
                   NOM_CMP='SIXX',
                   VALE_CALC=20.046417003,
                   VALE_REFE=20.0,
                   CRITERE='RELATIF',
                   PRECISION=0.029999999999999999,
                   MAILLE='M136',),
                _F(NUME_ORDRE=1,
                   GROUP_NO='E',
                   REFERENCE='ANALYTIQUE',
                   RESULTAT=RESU,
                   NOM_CHAM='SIGM_ELNO',
                   NOM_CMP='SIYY',
                   VALE_CALC=20.0601515762,
                   VALE_REFE=20.0,
                   CRITERE='RELATIF',
                   PRECISION=0.029999999999999999,
                   MAILLE='M136',),
                _F(NUME_ORDRE=1,
                   GROUP_NO='E',
                   REFERENCE='ANALYTIQUE',
                   RESULTAT=RESU,
                   NOM_CHAM='SIGM_ELNO',
                   NOM_CMP='SIZZ',
                   VALE_CALC=12.0319705737,
                   VALE_REFE=12.0,
                   CRITERE='RELATIF',
                   PRECISION=0.029999999999999999,
                   MAILLE='M136',),
                _F(NUME_ORDRE=1,
                   GROUP_NO='E',
                   REFERENCE='ANALYTIQUE',
                   RESULTAT=RESU,
                   NOM_CHAM='SIGM_ELNO',
                   NOM_CMP='SIXY',
                   VALE_CALC=-79.8446585295,
                   VALE_REFE=-80.0,
                   CRITERE='RELATIF',
                   PRECISION=1.E-2,
                   MAILLE='M136',),
                   
                _F(NUME_ORDRE=1,
                   GROUP_NO='F',
                   REFERENCE='ANALYTIQUE',
                   RESULTAT=RESU,
                   NOM_CHAM='SIGM_ELNO',
                   NOM_CMP='SIXX',
                   VALE_CALC=20.0055133435,
                   VALE_REFE=20.0,
                   CRITERE='RELATIF',
                   PRECISION=1.E-2,
                   MAILLE='M102',),
                _F(NUME_ORDRE=1,
                   GROUP_NO='F',
                   REFERENCE='ANALYTIQUE',
                   RESULTAT=RESU,
                   NOM_CHAM='SIGM_ELNO',
                   NOM_CMP='SIYY',
                   VALE_CALC=20.0060556877,
                   VALE_REFE=20.0,
                   CRITERE='RELATIF',
                   PRECISION=1.E-2,
                   MAILLE='M102',),
                _F(NUME_ORDRE=1,
                   GROUP_NO='F',
                   REFERENCE='ANALYTIQUE',
                   RESULTAT=RESU,
                   NOM_CHAM='SIGM_ELNO',
                   NOM_CMP='SIZZ',
                   VALE_CALC=12.0034707094,
                   VALE_REFE=12.0,
                   CRITERE='RELATIF',
                   PRECISION=1.E-2,
                   MAILLE='M102',),
                _F(NUME_ORDRE=1,
                   GROUP_NO='F',
                   REFERENCE='ANALYTIQUE',
                   RESULTAT=RESU,
                   NOM_CHAM='SIGM_ELNO',
                   NOM_CMP='SIXY',
                   VALE_CALC=-20.0018048745,
                   VALE_REFE=-20.0,
                   CRITERE='RELATIF',
                   PRECISION=1.E-2,
                   MAILLE='M102',),
                ),
          )

#--------------------------------------------------------------------
FIN()
#
