# ======================================================================
# COPYRIGHT (C) 1991 - 2016  EDF R&D                  WWW.CODE-ASTER.ORG
# THIS PROGRAM IS FREE SOFTWARE; YOU CAN REDISTRIBUTE IT AND/OR MODIFY
# IT UNDER THE TERMS OF THE GNU GENERAL PUBLIC LICENSE AS PUBLISHED BY
# THE FREE SOFTWARE FOUNDATION; EITHER VERSION 2 OF THE LICENSE, OR   
# (AT YOUR OPTION) ANY LATER VERSION.                                 
#
# THIS PROGRAM IS DISTRIBUTED IN THE HOPE THAT IT WILL BE USEFUL, BUT 
# WITHOUT ANY WARRANTY; WITHOUT EVEN THE IMPLIED WARRANTY OF          
# MERCHANTABILITY OR FITNESS FOR A PARTICULAR PURPOSE. SEE THE GNU    
# GENERAL PUBLIC LICENSE FOR MORE DETAILS.                            
#
# YOU SHOULD HAVE RECEIVED A COPY OF THE GNU GENERAL PUBLIC LICENSE   
# ALONG WITH THIS PROGRAM; IF NOT, WRITE TO EDF R&D CODE_ASTER,       
#    1 AVENUE DU GENERAL DE GAULLE, 92141 CLAMART CEDEX, FRANCE.      
# ======================================================================
#        ENTRE DEUX SEMI-ESPACES ELASTIQUES ISOTROPES
#        B/A = 1.
#

DEBUT( CODE=_F(NIV_PUB_WEB='INTERNET'))

MA=LIRE_MAILLAGE(VERI_MAIL=_F(VERIF='OUI'),FORMAT='MED',  )

MO=AFFE_MODELE(  MAILLAGE=MA, 
     AFFE=_F(  TOUT = 'OUI',PHENOMENE = 'MECANIQUE',MODELISATION = '3D') )

MA=DEFI_GROUP(reuse=MA,
               MAILLAGE=MA,
               CREA_GROUP_NO=(_F(NOM='FOND',
                                 NOEUD=( 'N186', 'N183', 'N182', 'N175',
                                         'N174', 'N166', 'N165', 'N155',
                                         'N154', 'N142', 'N141', 'N121',
                                         'N120', 'N110', 'N109', 'N99',
                                         'N98',  )),),
              )

#Barsoum
MA = MODI_MAILLAGE(reuse = MA,
                  MAILLAGE = MA,
                  MODI_MAILLE=_F(OPTION='NOEUD_QUART',
                                 GROUP_NO_FOND='FOND'),
                 );

MAT1=DEFI_MATERIAU( ELAS=_F(  E = 198000.,  NU = 0.1) )

MAT2=DEFI_MATERIAU( ELAS=_F(  E = 594000.,  NU = 0.1) )

CHMAT=AFFE_MATERIAU(  MAILLAGE=MA,AFFE=(
                       _F(  GROUP_MA = 'VMAT1',  MATER = MAT1),
                       _F(  GROUP_MA = 'VMAT2',  MATER = MAT2))
                     )

# ------------------------------------------------------------------

MA=DEFI_GROUP( reuse=MA,   MAILLAGE=MA, 
                     CREA_GROUP_NO=_F( 
                        GROUP_MA = ( 'LFF', 'LEVREINF', 'LFFS',  'LEVREINS', 
                                     'SAV_S', 'SSUP_S', ))
                 )

CH=AFFE_CHAR_MECA(   MODELE=MO,DDL_IMPO=( 
       _F(  GROUP_NO = 'SAV_S', DY = 0.), 
                _F(  GROUP_NO = 'PORIG', DX = 0.), 
                _F(  GROUP_NO = 'SSUP_S', DZ = 0.), 
                _F(  GROUP_NO = 'LEVREINF', DZ = 0.)), 
       PRES_REP=_F(  GROUP_MA = 'LEVREINS',  PRES = 1.)
                    )

CHAMDEPL=MECA_STATIQUE(   MODELE=MO,   CHAM_MATER=CHMAT, 
              EXCIT=_F( CHARGE = CH)
                          )

FISS1=DEFI_FOND_FISS(MAILLAGE=MA,
                     SYME='OUI',
                     FOND_FISS=_F(NOEUD = ( 'N186', 'N183', 'N182', 'N175', 'N174', 'N166',
                                                 'N165', 'N155', 'N154', 'N142', 'N141', 'N121',
                                                 'N120', 'N110', 'N109', 'N99',  'N98',  ),
                                  DTAN_ORIG=( 1.,  0.,  0.,),),
                     LEVRE_SUP=_F(  GROUP_MA = 'LEVREINS'),
                    );

#
#----------------------------------------------------------------------
#                           COURONNE 1
#----------------------------------------------------------------------
#
# DEFINITION DES RAYONS DES COURONNES DU CHAMPS THETA
#
RAY_INF1=DEFI_CONSTANTE(    VALE=0.12 )

RAY_SUP1=DEFI_CONSTANTE(    VALE=0.24 )

MOD_T1=DEFI_CONSTANTE(    VALE=1.   )

# -------------------------------------


G0_C1=CALC_G(  RESULTAT=CHAMDEPL,
              OPTION='CALC_G_GLOB',THETA=_F(
                                            FOND_FISS=FISS1,
                                            MODULE_FO=MOD_T1,
                                            R_SUP_FO=RAY_SUP1,
                                            R_INF_FO=RAY_INF1),
              )

#
# CALCUL DE G LOCAL AVEC THETA_LEGENDRE
# -------------------------------------

GLO1_LE5=CALC_G(  RESULTAT=CHAMDEPL,
                  THETA=_F(FOND_FISS=FISS1,  
                            R_INF_FO=RAY_INF1,  R_SUP_FO=RAY_SUP1,),
                         )

#
#----------------------------------------------------------------------
#                           COURONNE 2
#----------------------------------------------------------------------
#
# DEFINITION DES RAYONS DES COURONNES DU CHAMPS THETA
#
RAY_INF2=DEFI_CONSTANTE(   VALE=0.20)

RAY_SUP2=DEFI_CONSTANTE(   VALE=0.30)

#
MOD_T2=DEFI_CONSTANTE(   VALE=1.)

# -------------------------------------


G0_C2=CALC_G(  RESULTAT=CHAMDEPL,
               OPTION='CALC_G_GLOB',THETA=_F(
                                             FOND_FISS=FISS1,
                                             MODULE_FO=MOD_T2,
                                             R_SUP_FO=RAY_SUP2,
                                             R_INF_FO=RAY_INF2),
               )

#
# CALCUL DE G LOCAL AVEC THETA_LEGENDRE
# -------------------------------------

GLO2_LE5=CALC_G(  RESULTAT=CHAMDEPL,
                  THETA=_F(FOND_FISS=FISS1,  
                           R_INF_FO=RAY_INF2,  R_SUP_FO=RAY_SUP2),)

#
# IMPRESSION DES RESULTATS
# ------------------------
# la solution analytique est donnée par MURAKAMI (cf case 9.70)

TEST_TABLE(
           PRECISION=1.E-2,
           VALE_CALC=2.2040163895288e-05,
           VALE_REFE=2.187e-05,
           REFERENCE='ANALYTIQUE',
           NOM_PARA='G',
           TABLE=G0_C1,)

TEST_TABLE(
           PRECISION=1.E-2,
           VALE_CALC=2.20460928789E-05,
           VALE_REFE=2.187e-05,
           REFERENCE='ANALYTIQUE',
           NOM_PARA='G',
           TABLE=G0_C2,)

TEST_TABLE(
           PRECISION=0.040000000000000001,
           VALE_CALC=8.9753232791912E-06,
           VALE_REFE=9.1495999999999996E-06,
           REFERENCE='ANALYTIQUE',
           NOM_PARA='G',
           TABLE=GLO1_LE5,
           FILTRE=_F(NOM_PARA='NOEUD',
                     VALE_K='N186',),
           )

TEST_TABLE(
           PRECISION=0.059999999999999998,
           VALE_CALC=8.6656857832672E-06,
           VALE_REFE=9.1093999999999996E-06,
           REFERENCE='ANALYTIQUE',
           NOM_PARA='G',
           TABLE=GLO1_LE5,
           FILTRE=_F(NOM_PARA='NOEUD',
                     VALE_K='N182',),
           )

TEST_TABLE(
           PRECISION=0.050000000000000003,
           VALE_CALC=8.6261065907443E-06,
           VALE_REFE=8.8821999999999994E-06,
           REFERENCE='ANALYTIQUE',
           NOM_PARA='G',
           TABLE=GLO1_LE5,
           FILTRE=_F(NOM_PARA='NOEUD',
                     VALE_K='N174',),
           )

TEST_TABLE(
           PRECISION=0.11,
           VALE_CALC=8.1103267875506E-06,
           VALE_REFE=8.9301999999999996E-06,
           REFERENCE='ANALYTIQUE',
           NOM_PARA='G',
           TABLE=GLO1_LE5,
           FILTRE=_F(NOM_PARA='NOEUD',
                     VALE_K='N155',),
           )

TEST_TABLE(
           PRECISION=0.070000000000000007,
           VALE_CALC=6.7427021097824E-06,
           VALE_REFE=7.1453E-06,
           REFERENCE='ANALYTIQUE',
           NOM_PARA='G',
           TABLE=GLO1_LE5,
           FILTRE=_F(NOM_PARA='NOEUD',
                     VALE_K='N121',),
           )

TEST_TABLE(
           PRECISION=0.040000000000000001,
           VALE_CALC=9.0139942312562E-06,
           VALE_REFE=9.1495999999999996E-06,
           REFERENCE='ANALYTIQUE',
           NOM_PARA='G',
           TABLE=GLO2_LE5,
           FILTRE=_F(NOM_PARA='NOEUD',
                     VALE_K='N186',),
           )

TEST_TABLE(
           PRECISION=0.059999999999999998,
           VALE_CALC=8.6622146367951E-06,
           VALE_REFE=9.1093999999999996E-06,
           REFERENCE='ANALYTIQUE',
           NOM_PARA='G',
           TABLE=GLO2_LE5,
           FILTRE=_F(NOM_PARA='NOEUD',
                     VALE_K='N182',),
           )

TEST_TABLE(
           PRECISION=0.050000000000000003,
           VALE_CALC=8.6442510896964E-06,
           VALE_REFE=8.8821999999999994E-06,
           REFERENCE='ANALYTIQUE',
           NOM_PARA='G',
           TABLE=GLO2_LE5,
           FILTRE=_F(NOM_PARA='NOEUD',
                     VALE_K='N174',),
           )

TEST_TABLE(
           PRECISION=0.10000000000000001,
           VALE_CALC=8.1240103760221E-06,
           VALE_REFE=8.9301999999999996E-06,
           REFERENCE='ANALYTIQUE',
           NOM_PARA='G',
           TABLE=GLO2_LE5,
           FILTRE=_F(NOM_PARA='NOEUD',
                     VALE_K='N155',),
           )

TEST_TABLE(
           PRECISION=0.070000000000000007,
           VALE_CALC=6.7501190262359E-06,
           VALE_REFE=7.1453E-06,
           REFERENCE='ANALYTIQUE',
           NOM_PARA='G',
           TABLE=GLO2_LE5,
           FILTRE=_F(NOM_PARA='NOEUD',
                     VALE_K='N121',),
           )

FIN()
#
