# MODIF  DATE 07/03/2005   AUTEUR CIBHHLV L.VIVAN 
# TITRE CYLINDRE SOUMIS A UNE PRESSION EN MODE 1 FOURIER (QUAD8)
#            CONFIGURATION MANAGEMENT OF EDF VERSION
# ======================================================================
# COPYRIGHT (C) 1991 - 2001  EDF R&D                  WWW.CODE-ASTER.ORG
# THIS PROGRAM IS FREE SOFTWARE; YOU CAN REDISTRIBUTE IT AND/OR MODIFY
# IT UNDER THE TERMS OF THE GNU GENERAL PUBLIC LICENSE AS PUBLISHED BY
# THE FREE SOFTWARE FOUNDATION; EITHER VERSION 2 OF THE LICENSE, OR   
# (AT YOUR OPTION) ANY LATER VERSION.                                 
#
# THIS PROGRAM IS DISTRIBUTED IN THE HOPE THAT IT WILL BE USEFUL, BUT 
# WITHOUT ANY WARRANTY; WITHOUT EVEN THE IMPLIED WARRANTY OF          
# MERCHANTABILITY OR FITNESS FOR A PARTICULAR PURPOSE. SEE THE GNU    
# GENERAL PUBLIC LICENSE FOR MORE DETAILS.                            
#
# YOU SHOULD HAVE RECEIVED A COPY OF THE GNU GENERAL PUBLIC LICENSE   
# ALONG WITH THIS PROGRAM; IF NOT, WRITE TO EDF R&D CODE_ASTER,       
#    1 AVENUE DU GENERAL DE GAULLE, 92141 CLAMART CEDEX, FRANCE.      
# ======================================================================
# CAS TEST SSLV109B
# ----------------------------------------------------------------------
# CYLINDRE EN FLEXION FOURIER HARMONIQUE 1
#
# MODELISATION : ELEMENTS MECANIQUE AXIS_FOURIER (QUAD8)
# MAILLAGE     : ALIBABA ==> ASTER
#
# ----------------------------------------------------------------------
# GROUPES DE MAILLES: PRES_REP : BOUT
# ----------------------------------------------------------------------
#

DEBUT(   CODE=_F( NOM = 'SSLV109B',NIV_PUB_WEB='INTERNET') )

M=LIRE_MAILLAGE()

MO=AFFE_MODELE(        MAILLAGE=M,
                                AFFE=_F(  TOUT = 'OUI',         
                                       PHENOMENE = 'MECANIQUE',    
                                       MODELISATION = 'AXIS_FOURIER', ))

MA=DEFI_MATERIAU(          ELAS=_F(  E = 72.,            
                                       NU = 0.3,           
                                       RHO = 0.,                        ))

P=DEFI_FONCTION(      NOM_PARA='X',
           VALE=(0.,0., .5, .5, 1., 1.,) )

U0=DEFI_CONSTANTE(    VALE=0. )

CM=AFFE_MATERIAU(      MAILLAGE=M,
                                AFFE=_F(  TOUT = 'OUI',         
                                       MATER = MA,                      ))

BLOQU=AFFE_CHAR_MECA_F(       MODELE=MO,DDL_IMPO=(
               _F(  NOEUD = 'N1',           DX = U0,   DY = U0,    DZ = U0,   ),
                        _F(  NOEUD = 'N2',           DY = U0,   ),
                        _F(  NOEUD = 'N3',           DY = U0,   ))   )

CH=AFFE_CHAR_MECA_F(       MODELE=MO,
               PRES_REP=_F(  GROUP_MA = 'BOUT',       PRES = P,  )  )

RESU=MACRO_ELAS_MULT(            MODELE=MO,
                                   CHAM_MATER=CM,
                             CHAR_MECA_GLOBAL=BLOQU,
                            CAS_CHARGE=_F( 
                                 MODE_FOURIER = 1,
                                   
                                 TYPE_MODE = 'SYME',
                                 CHAR_MECA = CH,
                                 OPTION = 'SIGM_ELNO_DEPL',
                                 SOUS_TITRE = 'MODE FOURIER 1 SYME')
                          )

DEPLA=CREA_CHAMP(  OPERATION='EXTR', TYPE_CHAM='NOEU_DEPL_R',
NOM_CHAM='DEPL', RESULTAT=RESU,
                       NUME_MODE=1
                                      )

SIGMA=CREA_CHAMP(  OPERATION='EXTR', TYPE_CHAM='ELNO_SIEF_R',
NOM_CHAM='SIGM_ELNO_DEPL', RESULTAT=RESU,
                       NUME_MODE=1
                            )

RESU=CALC_ELEM(  reuse=RESU,
                  OPTION='EPOT_ELEM_DEPL',
                  NUME_MODE=1,
                  RESULTAT=RESU,
                 )

TEST_RESU(CHAM_NO=(
   # DEPLACEMENTS
          _F(  CHAM_GD = DEPLA, 
            NOEUD = 'N3',    NOM_CMP = 'DX',    VALE = 2.083333333E-3,    ),
          _F(  CHAM_GD = DEPLA,     CRITERE = 'ABSOLU',
            NOEUD = 'N3',    NOM_CMP = 'DY',    VALE = 0.,                ),
          _F(  CHAM_GD = DEPLA,  
            NOEUD = 'N3',    NOM_CMP = 'DZ',    VALE = -2.083333333E-3,    ),
          _F(  CHAM_GD = DEPLA,  
            NOEUD = 'N7',    NOM_CMP = 'DX',    VALE = 0.25,              ),
          _F(  CHAM_GD = DEPLA,     CRITERE = 'ABSOLU',
            NOEUD = 'N7',    NOM_CMP = 'DY',    VALE = 0.,                ),
          _F(  CHAM_GD = DEPLA,  
            NOEUD = 'N7',    NOM_CMP = 'DZ',    VALE = 0.25,              ),
          _F(  CHAM_GD = DEPLA,  
            NOEUD = 'N8',    NOM_CMP = 'DX',    VALE = 0.250520833333,    ),
          _F(  CHAM_GD = DEPLA,  
            NOEUD = 'N8',    NOM_CMP = 'DY',    VALE = -0.041666666666,   ),
          _F(  CHAM_GD = DEPLA,  
            NOEUD = 'N8',    NOM_CMP = 'DZ',    VALE = 0.249479166666,    ),
          _F(  CHAM_GD = DEPLA,  
            NOEUD = 'N9',    NOM_CMP = 'DX',    VALE = 0.252083333333,    ),
          _F(  CHAM_GD = DEPLA,  
            NOEUD = 'N9',    NOM_CMP = 'DY',    VALE = -0.083333333333,   ),
          _F(  CHAM_GD = DEPLA,  
            NOEUD = 'N9',    NOM_CMP = 'DZ',    VALE = 0.247916666666,    ),
          _F(  CHAM_GD = DEPLA,  
            NOEUD = 'N13',   NOM_CMP = 'DX',    VALE = 1.,                ),
          _F(  CHAM_GD = DEPLA,     CRITERE = 'ABSOLU',
            NOEUD = 'N13',   NOM_CMP = 'DY',    VALE = 0.,                ),
          _F(  CHAM_GD = DEPLA,  
            NOEUD = 'N13',   NOM_CMP = 'DZ',    VALE = 1.,                ),
          _F(  CHAM_GD = DEPLA,  
            NOEUD = 'N15',   NOM_CMP = 'DX',    VALE = 1.0020833333333,   ),
          _F(  CHAM_GD = DEPLA,  
            NOEUD = 'N15',   NOM_CMP = 'DY',    VALE = -0.1666666666666,  ),
          _F(  CHAM_GD = DEPLA,  
            NOEUD = 'N15',   NOM_CMP = 'DZ',    VALE = 0.9979166666666,   )),CHAM_ELEM=(
   # CONTRAINTES
           
          _F(  CHAM_GD = SIGMA,  
            MAILLE = 'M1',   NOEUD = 'N3',    NOM_CMP = 'SIYY',   VALE = -1.,    ),
          _F(  CHAM_GD = SIGMA,     CRITERE = 'ABSOLU',
            MAILLE = 'M2',   NOEUD = 'N7',    NOM_CMP = 'SIYY',   VALE = 0.,     ),
          _F(  CHAM_GD = SIGMA,  
            MAILLE = 'M2',   NOEUD = 'N8',    NOM_CMP = 'SIYY',   VALE = -0.5,   ),
          _F(  CHAM_GD = SIGMA,  
            MAILLE = 'M1',   NOEUD = 'N9',    NOM_CMP = 'SIYY',   VALE = -1.,    ),
          _F(  CHAM_GD = SIGMA,  
            MAILLE = 'M2',   NOEUD = 'N9',    NOM_CMP = 'SIYY',   VALE = -1.,    ),
          _F(  CHAM_GD = SIGMA,     CRITERE = 'ABSOLU',   PRECISION = 2.E-3, 
            MAILLE = 'M2',   NOEUD = 'N13',   NOM_CMP = 'SIYY',   VALE = 0.,     ),
          _F(  CHAM_GD = SIGMA,  
            MAILLE = 'M2',   NOEUD = 'N15',   NOM_CMP = 'SIYY',   VALE = -1., )),RESU=(
   # ENERGIE
              
            _F(  RESULTAT = RESU, NUME_MODE=1, NOM_CHAM='EPOT_ELEM_DEPL',
             MAILLE = 'M1',     POINT = 1, NOM_CMP = 'TOTALE',     VALE = 1.04166667E-02,    ),
            _F(  RESULTAT = RESU, NUME_MODE=1, NOM_CHAM='EPOT_ELEM_DEPL',
            MAILLE = 'M2',     POINT = 1, NOM_CMP = 'TOTALE',     VALE = 1.04166667E-02,    ))
            )

FIN()
#
