# TITRE CYLINDRE EN INCOMPRESSIBLE (PENTA15)
# ======================================================================
# COPYRIGHT (C) 1991 - 2013  EDF R&D                  WWW.CODE-ASTER.ORG
# THIS PROGRAM IS FREE SOFTWARE; YOU CAN REDISTRIBUTE IT AND/OR MODIFY
# IT UNDER THE TERMS OF THE GNU GENERAL PUBLIC LICENSE AS PUBLISHED BY
# THE FREE SOFTWARE FOUNDATION; EITHER VERSION 2 OF THE LICENSE, OR
# (AT YOUR OPTION) ANY LATER VERSION.
#
# THIS PROGRAM IS DISTRIBUTED IN THE HOPE THAT IT WILL BE USEFUL, BUT
# WITHOUT ANY WARRANTY; WITHOUT EVEN THE IMPLIED WARRANTY OF
# MERCHANTABILITY OR FITNESS FOR A PARTICULAR PURPOSE. SEE THE GNU    e
# GENERAL PUBLIC LICENSE FOR MORE DETAILS.
#
# YOU SHOULD HAVE RECEIVED A COPY OF THE GNU GENERAL PUBLIC LICENSE
# ALONG WITH THIS PROGRAM; IF NOT, WRITE TO EDF R&D CODE_ASTER,
#    1 AVENUE DU GENERAL DE GAULLE, 92141 CLAMART CEDEX, FRANCE.
# ======================================================================
# CAS_TEST__: SSLV130E
#
# ----------------------------------------------------------------------
#
# CYLINDRE CREUX EN INCOMPRESSIBLE (NU=0.4999)
# SOUS PRESSION INTERNE (60 MPA)
#
# MODELISATION : ELEMENTS MECANIQUE 3D INCOMP.(PENTA15)
# MAILLAGE     : GIBI
# ----------------------------------------------------------------------
# GROUPES DE NOEUDS ET MAILLES :
# GRNO: A B C D E F  NOEUMI
# GRMA: FACEEF     FACEAE   FACEAB   FACSUP   FACINF VOLUME
# ----------------------------------------------------------------------

DEBUT(CODE=_F(NOM='SSLV130E',
              NIV_PUB_WEB='INTERNET',),
      DEBUG=_F(SDVERI='OUI',),);

M=LIRE_MAILLAGE(FORMAT='MED',);

MO=AFFE_MODELE(MAILLAGE=M,
               VERIF='MAILLE',
               AFFE=_F(GROUP_MA=('VOLUME','FACEEF','FACEAE','FACEAB','FACSUP','FACINF',),
                       PHENOMENE='MECANIQUE',
                       MODELISATION='3D_INCO',),);

M=MODI_MAILLAGE(reuse =M,
                MAILLAGE=M,
                ORIE_PEAU_3D=_F(GROUP_MA=('FACEEF','FACEAE',),),);

MA=DEFI_MATERIAU(ELAS=_F(E=200000.,
                         NU=0.4999,
                         ALPHA=0.,),);

CM=AFFE_MATERIAU(MAILLAGE=M,
                 AFFE=_F(TOUT='OUI',
                         MATER=MA,),);

CH=AFFE_CHAR_MECA(MODELE=MO,
                  DDL_IMPO=(_F(GROUP_MA='FACEAB',
                               DX=0.,),
                            _F(GROUP_MA='FACSUP',
                               DZ=0.,),
                            _F(GROUP_MA='FACINF',
                               DZ=0.,),),
                  FACE_IMPO=_F(GROUP_MA='FACEEF',
                               DNOR=0.,),
                  PRES_REP=_F(GROUP_MA='FACEAE',
                              PRES=60.,),);

INSTANTS=DEFI_LIST_REEL(DEBUT=0.,
                        INTERVALLE=_F(JUSQU_A=1.,
                                      NOMBRE=1,),);

RAMPE=DEFI_FONCTION(NOM_PARA='INST',VALE=(0.,0.,
                          1.,1.,
                          ),);

EVOL=STAT_NON_LINE(MODELE=MO,
                   CHAM_MATER=CM,
                   EXCIT=_F(CHARGE=CH,
                            FONC_MULT=RAMPE,),
                   COMP_INCR=_F(RELATION='ELAS',),
                   INCREMENT=_F(LIST_INST=INSTANTS,),
                   NEWTON=_F(REAC_ITER=1,),
                   SOLVEUR=_F(RENUM='MD',),);

EVOL=CALC_CHAMP(reuse=EVOL,RESULTAT=EVOL,CRITERES=('SIEQ_ELNO','EPEQ_ELNO'),DEFORMATION=('EPSI_ELNO'),CONTRAINTE=('SIGM_ELNO'))


EVOL=CALC_CHAMP(reuse =EVOL,
             RESULTAT=EVOL,
             DEFORMATION='EPSI_NOEU',CONTRAINTE='SIGM_NOEU',CRITERES=('EPEQ_NOEU','SIEQ_NOEU'));

#--------------------------------------------------------------
#       COMPARAISON DES RESULTATS A LA SOLUTION ANALYTIQUE
#        POUR UN  SOLIDE INCOMPRESSIBLE NU = 0.5
#---------------------------------------------------------------

TEST_RESU(RESU=(_F(GROUP_NO='A',
                   INST=1.0,
                   REFERENCE='ANALYTIQUE',
                   RESULTAT=EVOL,
                   NOM_CHAM='DEPL',
                   NOM_CMP='DX',
                   VALE_CALC=1.0753347963189E-22,
                   VALE_REFE=0.0,
                   CRITERE='ABSOLU',
                   PRECISION=1.E-5,),
                _F(GROUP_NO='A',
                   INST=1.0,
                   REFERENCE='ANALYTIQUE',
                   RESULTAT=EVOL,
                   NOM_CHAM='DEPL',
                   NOM_CMP='DY',
                   VALE_CALC= 5.9999497584772E-05,
                   VALE_REFE=6.E-05,
                   CRITERE='RELATIF',
                   PRECISION=1.E-3,),
                _F(GROUP_NO='F',
                   INST=1.0,
                   REFERENCE='ANALYTIQUE',
                   RESULTAT=EVOL,
                   NOM_CHAM='DEPL',
                   NOM_CMP='DX',
                   VALE_CALC=-2.1215004437895E-05,
                   VALE_REFE=-2.1213203E-05,
                   CRITERE='RELATIF',
                   PRECISION=1.E-3,),
                _F(GROUP_NO='F',
                   INST=1.0,
                   REFERENCE='ANALYTIQUE',
                   RESULTAT=EVOL,
                   NOM_CHAM='DEPL',
                   NOM_CMP='DY',
                   VALE_CALC=2.1215004437895E-05,
                   VALE_REFE=2.1213203E-05,
                   CRITERE='RELATIF',
                   PRECISION=1.E-3,),
                ),
          )

TEST_RESU(RESU=(_F(GROUP_NO='A',
                   INST=1.0,
                   REFERENCE='ANALYTIQUE',
                   RESULTAT=EVOL,
                   NOM_CHAM='EPSI_NOEU',
                   NOM_CMP='EPXX',
                   VALE_CALC=5.989485427472E-04,
                   VALE_REFE=6.E-4,
                   CRITERE='RELATIF',
                   PRECISION=5.E-3,),
                _F(GROUP_NO='A',
                   INST=1.0,
                   REFERENCE='ANALYTIQUE',
                   RESULTAT=EVOL,
                   NOM_CHAM='EPSI_NOEU',
                   NOM_CMP='EPYY',
                   VALE_CALC=-5.9896590186154E-04,
                   VALE_REFE=-6.E-4,
                   CRITERE='RELATIF',
                   PRECISION=5.E-3,),
                _F(GROUP_NO='A',
                   INST=1.0,
                   REFERENCE='ANALYTIQUE',
                   RESULTAT=EVOL,
                   NOM_CHAM='EPSI_NOEU',
                   NOM_CMP='EPZZ',
                   VALE_CALC=-8.083079235043E-17,
                   VALE_REFE=0.0,
                   CRITERE='ABSOLU',
                   PRECISION=1.E-05,),
                _F(GROUP_NO='A',
                   INST=1.0,
                   REFERENCE='ANALYTIQUE',
                   RESULTAT=EVOL,
                   NOM_CHAM='EPSI_NOEU',
                   NOM_CMP='EPXY',
                   VALE_CALC=3.4731118506238E-06,
                   VALE_REFE=0.0,
                   CRITERE='ABSOLU',
                   PRECISION=1.E-05,),
                _F(GROUP_NO='F',
                   INST=1.0,
                   REFERENCE='ANALYTIQUE',
                   RESULTAT=EVOL,
                   NOM_CHAM='EPSI_NOEU',
                   NOM_CMP='EPXX',
                   VALE_CALC=-2.2790997677448E-07,
                   VALE_REFE=0.0,
                   CRITERE='ABSOLU',
                   PRECISION=1.E-05,),
                _F(GROUP_NO='F',
                   INST=1.0,
                   REFERENCE='ANALYTIQUE',
                   RESULTAT=EVOL,
                   NOM_CHAM='EPSI_NOEU',
                   NOM_CMP='EPYY',
                   VALE_CALC=2.0735047362622E-07,
                   VALE_REFE=0.0,
                   CRITERE='ABSOLU',
                   PRECISION=1.E-05,),
                _F(GROUP_NO='F',
                   INST=1.0,
                   REFERENCE='ANALYTIQUE',
                   RESULTAT=EVOL,
                   NOM_CHAM='EPSI_NOEU',
                   NOM_CMP='EPXY',
                   VALE_CALC=1.5017249997773E-04,
                   VALE_REFE=1.5E-4,
                   CRITERE='RELATIF',
                   PRECISION=5.E-3,),
                ),
          )

TEST_RESU(RESU=(_F(GROUP_NO='A',
                   INST=1.0,
                   REFERENCE='ANALYTIQUE',
                   RESULTAT=EVOL,
                   NOM_CHAM='SIGM_NOEU',
                   NOM_CMP='SIXX',
                   VALE_CALC=99.795156744637,
                   VALE_REFE=100.0,
                   CRITERE='RELATIF',
                   PRECISION=5.E-3,),
                _F(GROUP_NO='A',
                   INST=1.0,
                   REFERENCE='ANALYTIQUE',
                   RESULTAT=EVOL,
                   NOM_CHAM='SIGM_NOEU',
                   NOM_CMP='SIYY',
                   VALE_CALC=-59.937418041514,
                   VALE_REFE=-60.0,
                   CRITERE='RELATIF',
                   PRECISION=5.E-3,),
                _F(GROUP_NO='A',
                   INST=1.0,
                   REFERENCE='ANALYTIQUE',
                   RESULTAT=EVOL,
                   NOM_CHAM='SIGM_NOEU',
                   NOM_CMP='SIZZ',
                   VALE_CALC=19.930026702997,
                   VALE_REFE=20.0,
                   CRITERE='RELATIF',
                   PRECISION=5.E-3,),
                _F(GROUP_NO='A',
                   INST=1.0,
                   REFERENCE='ANALYTIQUE',
                   RESULTAT=EVOL,
                   NOM_CHAM='SIGM_NOEU',
                   NOM_CMP='SIXY',
                   VALE_CALC=0.46311245424679,
                   VALE_REFE=0.0,
                   CRITERE='ABSOLU',
                   PRECISION=0.6,),
                _F(GROUP_NO='F',
                   INST=1.0,
                   REFERENCE='ANALYTIQUE',
                   RESULTAT=EVOL,
                   NOM_CHAM='SIGM_NOEU',
                   NOM_CMP='SIXX',
                   VALE_CALC=19.991581916147,
                   VALE_REFE=20.0,
                   CRITERE='RELATIF',
                   PRECISION=5.E-3,),
                _F(GROUP_NO='F',
                   INST=1.0,
                   REFERENCE='ANALYTIQUE',
                   RESULTAT=EVOL,
                   NOM_CHAM='SIGM_NOEU',
                   NOM_CMP='SIYY',
                   VALE_CALC=20.049620512107,
                   VALE_REFE=20.0,
                   CRITERE='RELATIF',
                   PRECISION=5.E-3,),
                _F(GROUP_NO='F',
                   INST=1.0,
                   REFERENCE='ANALYTIQUE',
                   RESULTAT=EVOL,
                   NOM_CHAM='SIGM_NOEU',
                   NOM_CMP='SIZZ',
                   VALE_CALC=20.021971939069,
                   VALE_REFE=20.0,
                   CRITERE='RELATIF',
                   PRECISION=5.E-3,),
                _F(GROUP_NO='F',
                   INST=1.0,
                   REFERENCE='ANALYTIQUE',
                   RESULTAT=EVOL,
                   NOM_CHAM='SIGM_NOEU',
                   NOM_CMP='SIXY',
                   VALE_CALC=20.024334952694,
                   VALE_REFE=20.0,
                   CRITERE='RELATIF',
                   PRECISION=5.E-3,),
                ),
          )

TEST_RESU(RESU=(_F(GROUP_NO='A',
                   INST=1.0,
                   REFERENCE='ANALYTIQUE',
                   RESULTAT=EVOL,
                   NOM_CHAM='EPEQ_NOEU',
                   NOM_CMP='INVA_2',
                   VALE_CALC=6.9162813354747E-04,
                   VALE_REFE=6.9282E-4,
                   CRITERE='RELATIF',
                   PRECISION=5.E-3,
                   MAILLE='M1',),
                _F(GROUP_NO='A',
                   INST=1.0,
                   REFERENCE='ANALYTIQUE',
                   RESULTAT=EVOL,
                   NOM_CHAM='EPEQ_NOEU',
                   NOM_CMP='PRIN_1',
                   VALE_CALC=-5.9897616531785E-04,
                   VALE_REFE=-6.E-4,
                   CRITERE='RELATIF',
                   PRECISION=5.E-3,
                   MAILLE='M1',),
                _F(GROUP_NO='A',
                   INST=1.0,
                   REFERENCE='ANALYTIQUE',
                   RESULTAT=EVOL,
                   NOM_CHAM='EPEQ_NOEU',
                   NOM_CMP='PRIN_2',
                   VALE_CALC=-8.0830792350429E-17,
                   VALE_REFE=0.0,
                   CRITERE='ABSOLU',
                   PRECISION=1.E-05,
                   MAILLE='M1',),
                _F(GROUP_NO='A',
                   INST=1.0,
                   REFERENCE='ANALYTIQUE',
                   RESULTAT=EVOL,
                   NOM_CHAM='EPEQ_NOEU',
                   NOM_CMP='PRIN_3',
                   VALE_CALC=5.9895880620351E-04,
                   VALE_REFE=6.E-4,
                   CRITERE='RELATIF',
                   PRECISION=5.E-3,
                   MAILLE='M1',),
                ),
          )

TEST_RESU(RESU=(_F(GROUP_NO='A',
                   INST=1.0,
                   REFERENCE='ANALYTIQUE',
                   RESULTAT=EVOL,
                   NOM_CHAM='SIEQ_NOEU',
                   NOM_CMP='VMIS',
                   VALE_CALC=138.33484903276,
                   VALE_REFE=138.5641,
                   CRITERE='RELATIF',
                   PRECISION=5.E-3,
                   MAILLE='M1',),
                _F(GROUP_NO='A',
                   INST=1.0,
                   REFERENCE='ANALYTIQUE',
                   RESULTAT=EVOL,
                   NOM_CHAM='SIEQ_NOEU',
                   NOM_CMP='TRESCA',
                   VALE_CALC=159.73531189031,
                   VALE_REFE=160.0,
                   CRITERE='RELATIF',
                   PRECISION=5.E-3,
                   MAILLE='M1',),
                _F(GROUP_NO='A',
                   INST=1.0,
                   REFERENCE='ANALYTIQUE',
                   RESULTAT=EVOL,
                   NOM_CHAM='SIEQ_NOEU',
                   NOM_CMP='PRIN_1',
                   VALE_CALC=-59.938786593592,
                   VALE_REFE=-60.0,
                   CRITERE='RELATIF',
                   PRECISION=5.E-3,
                   MAILLE='M1',),
                _F(GROUP_NO='A',
                   INST=1.0,
                   REFERENCE='ANALYTIQUE',
                   RESULTAT=EVOL,
                   NOM_CHAM='SIEQ_NOEU',
                   NOM_CMP='PRIN_2',
                   VALE_CALC=19.930026702997,
                   VALE_REFE=20.0,
                   CRITERE='RELATIF',
                   PRECISION=5.E-3,
                   MAILLE='M1',),
                _F(GROUP_NO='A',
                   INST=1.0,
                   REFERENCE='ANALYTIQUE',
                   RESULTAT=EVOL,
                   NOM_CHAM='SIEQ_NOEU',
                   NOM_CMP='PRIN_3',
                   VALE_CALC=99.796525296715,
                   VALE_REFE=100.0,
                   CRITERE='RELATIF',
                   PRECISION=5.E-3,
                   MAILLE='M1',),
                _F(GROUP_NO='A',
                   INST=1.0,
                   REFERENCE='ANALYTIQUE',
                   RESULTAT=EVOL,
                   NOM_CHAM='SIEQ_NOEU',
                   NOM_CMP='VMIS_SG',
                   VALE_CALC=138.33484903276,
                   VALE_REFE=138.5641,
                   CRITERE='RELATIF',
                   PRECISION=5.E-3,
                   MAILLE='M1',),
                ),
          )

#-----------------------------------------------------------------
#  TEST IDENTIQUE EN IMPOSANT LA CONDITION TR(EPS)=0
#------------------------------------------------------------------

M=DEFI_GROUP(reuse =M,
             MAILLAGE=M,
             CREA_GROUP_NO=_F(GROUP_MA='VOLUME',
                              NOM='MSOMMET',
                              CRIT_NOEUD='SOMMET',),);

CH2=AFFE_CHAR_MECA(MODELE=MO,
                   DDL_IMPO=(_F(GROUP_MA='FACEAB',
                                DX=0.,),
                             _F(GROUP_MA='FACSUP',
                                DZ=0.,),
                             _F(GROUP_MA='FACINF',
                                DZ=0.,),
                             _F(GROUP_NO='MSOMMET',
                                GONF=0.,),),
                   FACE_IMPO=_F(GROUP_MA='FACEEF',
                                DNOR=0.,),
                   PRES_REP=_F(GROUP_MA='FACEAE',
                               PRES=60.,),);

EVOL2=STAT_NON_LINE(MODELE=MO,
                    CHAM_MATER=CM,
                    EXCIT=_F(CHARGE=CH2,
                             FONC_MULT=RAMPE,),
                    COMP_INCR=_F(RELATION='ELAS',),
                    INCREMENT=_F(LIST_INST=INSTANTS,),
                    NEWTON=_F(REAC_ITER=1,),
                    SOLVEUR=_F(RENUM='MD',),);

EVOL2=CALC_CHAMP(reuse=EVOL2,RESULTAT=EVOL2,CRITERES=('SIEQ_ELNO','EPEQ_ELNO'),DEFORMATION=('EPSI_ELNO'),CONTRAINTE=('SIGM_ELNO'))


EVOL2=CALC_CHAMP(reuse =EVOL2,
              RESULTAT=EVOL2,
              DEFORMATION='EPSI_NOEU',CONTRAINTE='SIGM_NOEU',CRITERES=('EPEQ_NOEU','SIEQ_NOEU'));

TEST_RESU(RESU=(_F(GROUP_NO='A',
                   INST=1.0,
                   REFERENCE='ANALYTIQUE',
                   RESULTAT=EVOL2,
                   NOM_CHAM='DEPL',
                   NOM_CMP='DX',
                   VALE_CALC=3.1929171644547E-22,
                   VALE_REFE=0.0,
                   CRITERE='ABSOLU',
                   PRECISION=1.E-05,),
                _F(GROUP_NO='A',
                   INST=1.0,
                   REFERENCE='ANALYTIQUE',
                   RESULTAT=EVOL2,
                   NOM_CHAM='DEPL',
                   NOM_CMP='DY',
                   VALE_CALC=5.9996497732875E-05,
                   VALE_REFE=6.E-05,
                   CRITERE='RELATIF',
                   PRECISION=1.E-3,),
                _F(GROUP_NO='F',
                   INST=1.0,
                   REFERENCE='ANALYTIQUE',
                   RESULTAT=EVOL2,
                   NOM_CHAM='DEPL',
                   NOM_CMP='DX',
                   VALE_CALC=-2.1210762039115E-05,
                   VALE_REFE=-2.1213203E-05,
                   CRITERE='RELATIF',
                   PRECISION=1.E-3,),
                _F(GROUP_NO='F',
                   INST=1.0,
                   REFERENCE='ANALYTIQUE',
                   RESULTAT=EVOL2,
                   NOM_CHAM='DEPL',
                   NOM_CMP='DY',
                   VALE_CALC=2.1210762039115E-05,
                   VALE_REFE=2.1213203E-05,
                   CRITERE='RELATIF',
                   PRECISION=1.E-3,),
                ),
          )

TEST_RESU(RESU=(_F(GROUP_NO='A',
                   INST=1.0,
                   REFERENCE='ANALYTIQUE',
                   RESULTAT=EVOL2,
                   NOM_CHAM='EPSI_NOEU',
                   NOM_CMP='EPXX',
                   VALE_CALC=5.9891852753863E-04,
                   VALE_REFE=6.E-4,
                   CRITERE='RELATIF',
                   PRECISION=5.E-3,),
                _F(GROUP_NO='A',
                   INST=1.0,
                   REFERENCE='ANALYTIQUE',
                   RESULTAT=EVOL2,
                   NOM_CHAM='EPSI_NOEU',
                   NOM_CMP='EPYY',
                   VALE_CALC=-5.9899567777001E-04,
                   VALE_REFE=-6.E-4,
                   CRITERE='RELATIF',
                   PRECISION=5.E-3,),
                _F(GROUP_NO='A',
                   INST=1.0,
                   REFERENCE='ANALYTIQUE',
                   RESULTAT=EVOL2,
                   NOM_CHAM='EPSI_NOEU',
                   NOM_CMP='EPZZ',
                   VALE_CALC=-7.6433583774574E-17,
                   VALE_REFE=0.0,
                   CRITERE='ABSOLU',
                   PRECISION=1.E-05,),
                _F(GROUP_NO='A',
                   INST=1.0,
                   REFERENCE='ANALYTIQUE',
                   RESULTAT=EVOL2,
                   NOM_CHAM='EPSI_NOEU',
                   NOM_CMP='EPXY',
                   VALE_CALC=3.4731724860343E-06,
                   VALE_REFE=0.0,
                   CRITERE='ABSOLU',
                   PRECISION=1.E-05,),
                _F(GROUP_NO='F',
                   INST=1.0,
                   REFERENCE='ANALYTIQUE',
                   RESULTAT=EVOL2,
                   NOM_CHAM='EPSI_NOEU',
                   NOM_CMP='EPXX',
                   VALE_CALC=-2.5795517667625E-07,
                   VALE_REFE=0.0,
                   CRITERE='ABSOLU',
                   PRECISION=1.E-05,),
                _F(GROUP_NO='F',
                   INST=1.0,
                   REFERENCE='ANALYTIQUE',
                   RESULTAT=EVOL2,
                   NOM_CHAM='EPSI_NOEU',
                   NOM_CMP='EPYY',
                   VALE_CALC=1.7732666746328E-07,
                   VALE_REFE=0.0,
                   CRITERE='ABSOLU',
                   PRECISION=1.E-05,),
                _F(GROUP_NO='F',
                   INST=1.0,
                   REFERENCE='ANALYTIQUE',
                   RESULTAT=EVOL2,
                   NOM_CHAM='EPSI_NOEU',
                   NOM_CMP='EPXY',
                   VALE_CALC=1.5017252915089E-04,
                   VALE_REFE=1.5E-4,
                   CRITERE='RELATIF',
                   PRECISION=5.E-3,),
                ),
          )

TEST_RESU(RESU=(_F(GROUP_NO='A',
                   INST=1.0,
                   REFERENCE='ANALYTIQUE',
                   RESULTAT=EVOL2,
                   NOM_CHAM='SIGM_NOEU',
                   NOM_CMP='SIXX',
                   VALE_CALC=99.795127245711,
                   VALE_REFE=100.0,
                   CRITERE='RELATIF',
                   PRECISION=5.E-3,),
                _F(GROUP_NO='A',
                   INST=1.0,
                   REFERENCE='ANALYTIQUE',
                   RESULTAT=EVOL2,
                   NOM_CHAM='SIGM_NOEU',
                   NOM_CMP='SIYY',
                   VALE_CALC=-59.937415631633,
                   VALE_REFE=-60.0,
                   CRITERE='RELATIF',
                   PRECISION=5.E-3,),
                _F(GROUP_NO='A',
                   INST=1.0,
                   REFERENCE='ANALYTIQUE',
                   RESULTAT=EVOL2,
                   NOM_CHAM='SIGM_NOEU',
                   NOM_CMP='SIZZ',
                   VALE_CALC=19.9339994987,
                   VALE_REFE=20.0,
                   CRITERE='RELATIF',
                   PRECISION=5.E-3,),
                _F(GROUP_NO='A',
                   INST=1.0,
                   REFERENCE='ANALYTIQUE',
                   RESULTAT=EVOL2,
                   NOM_CHAM='SIGM_NOEU',
                   NOM_CMP='SIXY',
                   VALE_CALC=0.46312053950720,
                   VALE_REFE=0.0,
                   CRITERE='ABSOLU',
                   PRECISION=0.6,),
                _F(GROUP_NO='F',
                   INST=1.0,
                   REFERENCE='ANALYTIQUE',
                   RESULTAT=EVOL2,
                   NOM_CHAM='SIGM_NOEU',
                   NOM_CMP='SIXX',
                   VALE_CALC=19.991585103664,
                   VALE_REFE=20.0,
                   CRITERE='RELATIF',
                   PRECISION=5.E-3,),
                _F(GROUP_NO='F',
                   INST=1.0,
                   REFERENCE='ANALYTIQUE',
                   RESULTAT=EVOL2,
                   NOM_CHAM='SIGM_NOEU',
                   NOM_CMP='SIYY',
                   VALE_CALC=20.049626552312,
                   VALE_REFE=20.0,
                   CRITERE='RELATIF',
                   PRECISION=5.E-3,),
                _F(GROUP_NO='F',
                   INST=1.0,
                   REFERENCE='ANALYTIQUE',
                   RESULTAT=EVOL2,
                   NOM_CHAM='SIGM_NOEU',
                   NOM_CMP='SIZZ',
                   VALE_CALC=20.025981420325,
                   VALE_REFE=20.0,
                   CRITERE='RELATIF',
                   PRECISION=5.E-3,),
                _F(GROUP_NO='F',
                   INST=1.0,
                   REFERENCE='ANALYTIQUE',
                   RESULTAT=EVOL2,
                   NOM_CHAM='SIGM_NOEU',
                   NOM_CMP='SIXY',
                   VALE_CALC=20.024338842709,
                   VALE_REFE=20.0,
                   CRITERE='RELATIF',
                   PRECISION=5.E-3,),
                ),
          )

TEST_RESU(RESU=(_F(GROUP_NO='A',
                   INST=1.0,
                   REFERENCE='ANALYTIQUE',
                   RESULTAT=EVOL2,
                   NOM_CHAM='EPEQ_NOEU',
                   NOM_CMP='INVA_2',
                   VALE_CALC=6.9162799628621E-04,
                   VALE_REFE=6.9282E-4,
                   CRITERE='RELATIF',
                   PRECISION=5.E-3,
                   MAILLE='M1',),
                _F(GROUP_NO='A',
                   INST=1.0,
                   REFERENCE='ANALYTIQUE',
                   RESULTAT=EVOL2,
                   NOM_CHAM='EPEQ_NOEU',
                   NOM_CMP='PRIN_1',
                   VALE_CALC=-5.9900594158266E-04,
                   VALE_REFE=-6.E-4,
                   CRITERE='RELATIF',
                   PRECISION=5.E-3,
                   MAILLE='M1',),
                _F(GROUP_NO='A',
                   INST=1.0,
                   REFERENCE='ANALYTIQUE',
                   RESULTAT=EVOL2,
                   NOM_CHAM='EPEQ_NOEU',
                   NOM_CMP='PRIN_2',
                   VALE_CALC=-7.6433583774577E-17,
                   VALE_REFE=0.0,
                   CRITERE='ABSOLU',
                   PRECISION=1.E-05,
                   MAILLE='M1',),
                _F(GROUP_NO='A',
                   INST=1.0,
                   REFERENCE='ANALYTIQUE',
                   RESULTAT=EVOL2,
                   NOM_CHAM='EPEQ_NOEU',
                   NOM_CMP='PRIN_3',
                   VALE_CALC=5.9892879135129E-04,
                   VALE_REFE=6.E-4,
                   CRITERE='RELATIF',
                   PRECISION=5.E-3,
                   MAILLE='M1',),
                ),
          )

TEST_RESU(RESU=(_F(GROUP_NO='A',
                   INST=1.0,
                   REFERENCE='ANALYTIQUE',
                   RESULTAT=EVOL2,
                   NOM_CHAM='SIEQ_NOEU',
                   NOM_CMP='VMIS',
                   VALE_CALC=138.33482157868,
                   VALE_REFE=138.5641,
                   CRITERE='RELATIF',
                   PRECISION=5.E-3,
                   MAILLE='M1',),
                _F(GROUP_NO='A',
                   INST=1.0,
                   REFERENCE='ANALYTIQUE',
                   RESULTAT=EVOL2,
                   NOM_CHAM='SIEQ_NOEU',
                   NOM_CMP='TRESCA',
                   VALE_CALC=159.73528007653,
                   VALE_REFE=160.0,
                   CRITERE='RELATIF',
                   PRECISION=5.E-3,
                   MAILLE='M1',),
                _F(GROUP_NO='A',
                   INST=1.0,
                   REFERENCE='ANALYTIQUE',
                   RESULTAT=EVOL2,
                   NOM_CHAM='SIEQ_NOEU',
                   NOM_CMP='PRIN_1',
                   VALE_CALC=-59.938784231227,
                   VALE_REFE=-60.0,
                   CRITERE='RELATIF',
                   PRECISION=5.E-3,
                   MAILLE='M1',),
                _F(GROUP_NO='A',
                   INST=1.0,
                   REFERENCE='ANALYTIQUE',
                   RESULTAT=EVOL2,
                   NOM_CHAM='SIEQ_NOEU',
                   NOM_CMP='PRIN_2',
                   VALE_CALC=19.9339994987,
                   VALE_REFE=20.0,
                   CRITERE='RELATIF',
                   PRECISION=5.E-3,
                   MAILLE='M1',),
                _F(GROUP_NO='A',
                   INST=1.0,
                   REFERENCE='ANALYTIQUE',
                   RESULTAT=EVOL2,
                   NOM_CHAM='SIEQ_NOEU',
                   NOM_CMP='PRIN_3',
                   VALE_CALC=99.796495845305,
                   VALE_REFE=100.0,
                   CRITERE='RELATIF',
                   PRECISION=5.E-3,
                   MAILLE='M1',),
                _F(GROUP_NO='A',
                   INST=1.0,
                   REFERENCE='ANALYTIQUE',
                   RESULTAT=EVOL2,
                   NOM_CHAM='SIEQ_NOEU',
                   NOM_CMP='VMIS_SG',
                   VALE_CALC=138.33482157868,
                   VALE_REFE=138.5641,
                   CRITERE='RELATIF',
                   PRECISION=5.E-3,
                   MAILLE='M1',),
                ),
          )

#--------------------------------------------------------------------------------
#  TEST SUR UN NOEUD SITUE EN MILIEU DE MAILLE POUR TESTER LE PASSAGE AUX NOEUDS MILIEUX
#  NOEUMI = A + (0 0 1/2 pas )

TEST_RESU(RESU=(_F(GROUP_NO='NOEUMI',
                   INST=1.0,
                   REFERENCE='ANALYTIQUE',
                   RESULTAT=EVOL,
                   NOM_CHAM='EPSI_NOEU',
                   NOM_CMP='EPXX',
                   VALE_CALC=5.9894854274702E-4,
                   VALE_REFE=6.E-4,
                   CRITERE='RELATIF',
                   PRECISION=5.E-3,),
                _F(GROUP_NO='NOEUMI',
                   INST=1.0,
                   REFERENCE='ANALYTIQUE',
                   RESULTAT=EVOL,
                   NOM_CHAM='EPSI_NOEU',
                   NOM_CMP='EPYY',
                   VALE_CALC=-5.9896590186202E-04,
                   VALE_REFE=-6.E-4,
                   CRITERE='RELATIF',
                   PRECISION=5.E-3,),
                _F(GROUP_NO='NOEUMI',
                   INST=1.0,
                   REFERENCE='ANALYTIQUE',
                   RESULTAT=EVOL,
                   NOM_CHAM='SIGM_NOEU',
                   NOM_CMP='SIXX',
                   VALE_CALC=99.795156744857,
                   VALE_REFE=100.0,
                   CRITERE='RELATIF',
                   PRECISION=5.E-3,),
                _F(GROUP_NO='NOEUMI',
                   INST=1.0,
                   REFERENCE='ANALYTIQUE',
                   RESULTAT=EVOL,
                   NOM_CHAM='SIGM_NOEU',
                   NOM_CMP='SIYY',
                   VALE_CALC=-59.937418041333,
                   VALE_REFE=-60.0,
                   CRITERE='RELATIF',
                   PRECISION=5.E-3,),
                _F(GROUP_NO='NOEUMI',
                   INST=1.0,
                   REFERENCE='ANALYTIQUE',
                   RESULTAT=EVOL,
                   NOM_CHAM='SIGM_NOEU',
                   NOM_CMP='SIZZ',
                   VALE_CALC=19.930026703028,
                   VALE_REFE=20.0,
                   CRITERE='RELATIF',
                   PRECISION=5.E-3,),
                ),
          )

#--------------------------------------------------------------------------------

MOUP=AFFE_MODELE(MAILLAGE=M,
                 VERIF='MAILLE',
                 AFFE=_F(GROUP_MA=('VOLUME','FACEEF','FACEAE','FACEAB','FACSUP','FACINF',),
                         PHENOMENE='MECANIQUE',
                         MODELISATION='3D_INCO',),);

CHUP=AFFE_CHAR_MECA(MODELE=MOUP,
                    DDL_IMPO=(_F(GROUP_MA='FACEAB',
                                 DX=0.,),
                              _F(GROUP_MA='FACSUP',
                                 DZ=0.,),
                              _F(GROUP_MA='FACINF',
                                 DZ=0.,),),
                    FACE_IMPO=_F(GROUP_MA='FACEEF',
                                 DNOR=0.,),
                    PRES_REP=_F(GROUP_MA='FACEAE',
                                PRES=60.,),);

EVOLUP=STAT_NON_LINE(MODELE=MOUP,
                     CHAM_MATER=CM,
                     EXCIT=_F(CHARGE=CHUP,
                              FONC_MULT=RAMPE,),
                     COMP_INCR=_F(RELATION='ELAS',),
                     INCREMENT=_F(LIST_INST=INSTANTS,),
                     NEWTON=_F(REAC_ITER=1,),
                     SOLVEUR=_F(RENUM='MD',),);

EVOLUP=CALC_CHAMP(reuse=EVOLUP,RESULTAT=EVOLUP,CRITERES=('SIEQ_ELNO','EPEQ_ELNO'),DEFORMATION=('EPSI_ELNO'),CONTRAINTE=('SIGM_ELNO'))


EVOLUP=CALC_CHAMP(reuse =EVOLUP,
               RESULTAT=EVOLUP,
               DEFORMATION='EPSI_NOEU',CONTRAINTE='SIGM_NOEU',CRITERES=('EPEQ_NOEU','SIEQ_NOEU'));

#--------------------------------------------------------------
#       COMPARAISON DES RESULTATS A LA SOLUTION ANALYTIQUE
#       POUR UN  SOLIDE INCOMPRESSIBLE NU = 0.5
#       3D_INCO_UP ET PENTA15
#---------------------------------------------------------------

TEST_RESU(RESU=(_F(GROUP_NO='A',
                   INST=1.0,
                   REFERENCE='ANALYTIQUE',
                   RESULTAT=EVOLUP,
                   NOM_CHAM='DEPL',
                   NOM_CMP='DX',
                   VALE_CALC=1.0753347963189E-22,
                   VALE_REFE=0.0,
                   CRITERE='ABSOLU',
                   PRECISION=1.E-05,),
                _F(GROUP_NO='A',
                   INST=1.0,
                   REFERENCE='ANALYTIQUE',
                   RESULTAT=EVOLUP,
                   NOM_CHAM='DEPL',
                   NOM_CMP='DY',
                   VALE_CALC=5.9999497584772E-05,
                   VALE_REFE=6.E-05,
                   CRITERE='RELATIF',
                   PRECISION=1.E-3,),
                _F(GROUP_NO='F',
                   INST=1.0,
                   REFERENCE='ANALYTIQUE',
                   RESULTAT=EVOLUP,
                   NOM_CHAM='DEPL',
                   NOM_CMP='DX',
                   VALE_CALC=-2.1215004437895E-05,
                   VALE_REFE=-2.1213203E-05,
                   CRITERE='RELATIF',
                   PRECISION=1.E-3,),
                _F(GROUP_NO='F',
                   INST=1.0,
                   REFERENCE='ANALYTIQUE',
                   RESULTAT=EVOLUP,
                   NOM_CHAM='DEPL',
                   NOM_CMP='DY',
                   VALE_CALC=2.1215004437895E-05,
                   VALE_REFE=2.1213203E-05,
                   CRITERE='RELATIF',
                   PRECISION=1.E-3,),
                ),
          )

TEST_RESU(RESU=(_F(GROUP_NO='A',
                   INST=1.0,
                   REFERENCE='ANALYTIQUE',
                   RESULTAT=EVOLUP,
                   NOM_CHAM='EPSI_NOEU',
                   NOM_CMP='EPXX',
                   VALE_CALC= 5.989485427472E-04,
                   VALE_REFE=6.E-4,
                   CRITERE='RELATIF',
                   PRECISION=5.E-3,),
                _F(GROUP_NO='A',
                   INST=1.0,
                   REFERENCE='ANALYTIQUE',
                   RESULTAT=EVOLUP,
                   NOM_CHAM='EPSI_NOEU',
                   NOM_CMP='EPYY',
                   VALE_CALC=-5.9896590186154E-04,
                   VALE_REFE=-6.E-4,
                   CRITERE='RELATIF',
                   PRECISION=5.E-3,),
                _F(GROUP_NO='A',
                   INST=1.0,
                   REFERENCE='ANALYTIQUE',
                   RESULTAT=EVOLUP,
                   NOM_CHAM='EPSI_NOEU',
                   NOM_CMP='EPZZ',
                   VALE_CALC=-8.083079235043E-17,
                   VALE_REFE=0.0,
                   CRITERE='ABSOLU',
                   PRECISION=1.E-05,),
                _F(GROUP_NO='A',
                   INST=1.0,
                   REFERENCE='ANALYTIQUE',
                   RESULTAT=EVOLUP,
                   NOM_CHAM='EPSI_NOEU',
                   NOM_CMP='EPXY',
                   VALE_CALC= 3.4731118506238E-06,
                   VALE_REFE=0.0,
                   CRITERE='ABSOLU',
                   PRECISION=1.E-05,),
                _F(GROUP_NO='F',
                   INST=1.0,
                   REFERENCE='ANALYTIQUE',
                   RESULTAT=EVOLUP,
                   NOM_CHAM='EPSI_NOEU',
                   NOM_CMP='EPXX',
                   VALE_CALC=-2.2790997677448E-07,
                   VALE_REFE=0.0,
                   CRITERE='ABSOLU',
                   PRECISION=1.E-05,),
                _F(GROUP_NO='F',
                   INST=1.0,
                   REFERENCE='ANALYTIQUE',
                   RESULTAT=EVOLUP,
                   NOM_CHAM='EPSI_NOEU',
                   NOM_CMP='EPYY',
                   VALE_CALC=2.0735047362622E-07,
                   VALE_REFE=0.0,
                   CRITERE='ABSOLU',
                   PRECISION=1.E-05,),
                _F(GROUP_NO='F',
                   INST=1.0,
                   REFERENCE='ANALYTIQUE',
                   RESULTAT=EVOLUP,
                   NOM_CHAM='EPSI_NOEU',
                   NOM_CMP='EPXY',
                   VALE_CALC=1.5017249997773E-04,
                   VALE_REFE=1.5E-4,
                   CRITERE='RELATIF',
                   PRECISION=5.E-3,),
                ),
          )

TEST_RESU(RESU=(_F(GROUP_NO='A',
                   INST=1.0,
                   REFERENCE='ANALYTIQUE',
                   RESULTAT=EVOLUP,
                   NOM_CHAM='SIGM_NOEU',
                   NOM_CMP='SIXX',
                   VALE_CALC=99.795156744637,
                   VALE_REFE=100.0,
                   CRITERE='RELATIF',
                   PRECISION=5.E-3,),
                _F(GROUP_NO='A',
                   INST=1.0,
                   REFERENCE='ANALYTIQUE',
                   RESULTAT=EVOLUP,
                   NOM_CHAM='SIGM_NOEU',
                   NOM_CMP='SIYY',
                   VALE_CALC=-59.937418041514,
                   VALE_REFE=-60.0,
                   CRITERE='RELATIF',
                   PRECISION=5.E-3,),
                _F(GROUP_NO='A',
                   INST=1.0,
                   REFERENCE='ANALYTIQUE',
                   RESULTAT=EVOLUP,
                   NOM_CHAM='SIGM_NOEU',
                   NOM_CMP='SIZZ',
                   VALE_CALC=19.930026702997,
                   VALE_REFE=20.0,
                   CRITERE='RELATIF',
                   PRECISION=5.E-3,),
                _F(GROUP_NO='A',
                   INST=1.0,
                   REFERENCE='ANALYTIQUE',
                   RESULTAT=EVOLUP,
                   NOM_CHAM='SIGM_NOEU',
                   NOM_CMP='SIXY',
                   VALE_CALC=0.46311245424679,
                   VALE_REFE=0.0,
                   CRITERE='ABSOLU',
                   PRECISION=0.6,),
                _F(GROUP_NO='F',
                   INST=1.0,
                   REFERENCE='ANALYTIQUE',
                   RESULTAT=EVOLUP,
                   NOM_CHAM='SIGM_NOEU',
                   NOM_CMP='SIXX',
                   VALE_CALC=19.991581916147,
                   VALE_REFE=20.0,
                   CRITERE='RELATIF',
                   PRECISION=5.E-3,),
                _F(GROUP_NO='F',
                   INST=1.0,
                   REFERENCE='ANALYTIQUE',
                   RESULTAT=EVOLUP,
                   NOM_CHAM='SIGM_NOEU',
                   NOM_CMP='SIYY',
                   VALE_CALC=20.049620512107,
                   VALE_REFE=20.0,
                   CRITERE='RELATIF',
                   PRECISION=5.E-3,),
                _F(GROUP_NO='F',
                   INST=1.0,
                   REFERENCE='ANALYTIQUE',
                   RESULTAT=EVOLUP,
                   NOM_CHAM='SIGM_NOEU',
                   NOM_CMP='SIZZ',
                   VALE_CALC=20.021971939069,
                   VALE_REFE=20.0,
                   CRITERE='RELATIF',
                   PRECISION=5.E-3,),
                _F(GROUP_NO='F',
                   INST=1.0,
                   REFERENCE='ANALYTIQUE',
                   RESULTAT=EVOLUP,
                   NOM_CHAM='SIGM_NOEU',
                   NOM_CMP='SIXY',
                   VALE_CALC=20.024334952694,
                   VALE_REFE=20.0,
                   CRITERE='RELATIF',
                   PRECISION=5.E-3,),
                ),
          )

TEST_RESU(RESU=(_F(GROUP_NO='A',
                   INST=1.0,
                   REFERENCE='ANALYTIQUE',
                   RESULTAT=EVOLUP,
                   NOM_CHAM='EPEQ_NOEU',
                   NOM_CMP='INVA_2',
                   VALE_CALC=6.9162813354747E-04,
                   VALE_REFE=6.9282E-4,
                   CRITERE='RELATIF',
                   PRECISION=5.E-3,
                   MAILLE='M1',),
                _F(GROUP_NO='A',
                   INST=1.0,
                   REFERENCE='ANALYTIQUE',
                   RESULTAT=EVOLUP,
                   NOM_CHAM='EPEQ_NOEU',
                   NOM_CMP='PRIN_1',
                   VALE_CALC=-5.9897616531785E-04,
                   VALE_REFE=-6.E-4,
                   CRITERE='RELATIF',
                   PRECISION=5.E-3,
                   MAILLE='M1',),
                _F(GROUP_NO='A',
                   INST=1.0,
                   REFERENCE='ANALYTIQUE',
                   RESULTAT=EVOLUP,
                   NOM_CHAM='EPEQ_NOEU',
                   NOM_CMP='PRIN_2',
                   VALE_CALC=-8.0830792350429E-17,
                   VALE_REFE=0.0,
                   CRITERE='ABSOLU',
                   PRECISION=1.E-05,
                   MAILLE='M1',),
                _F(GROUP_NO='A',
                   INST=1.0,
                   REFERENCE='ANALYTIQUE',
                   RESULTAT=EVOLUP,
                   NOM_CHAM='EPEQ_NOEU',
                   NOM_CMP='PRIN_3',
                   VALE_CALC=5.9895880620351E-04,
                   VALE_REFE=6.E-4,
                   CRITERE='RELATIF',
                   PRECISION=5.E-3,
                   MAILLE='M1',),
                ),
          )

TEST_RESU(RESU=(_F(GROUP_NO='A',
                   INST=1.0,
                   REFERENCE='ANALYTIQUE',
                   RESULTAT=EVOLUP,
                   NOM_CHAM='SIEQ_NOEU',
                   NOM_CMP='VMIS',
                   VALE_CALC=138.33484903276,
                   VALE_REFE=138.5641,
                   CRITERE='RELATIF',
                   PRECISION=5.E-3,
                   MAILLE='M1',),
                _F(GROUP_NO='A',
                   INST=1.0,
                   REFERENCE='ANALYTIQUE',
                   RESULTAT=EVOLUP,
                   NOM_CHAM='SIEQ_NOEU',
                   NOM_CMP='TRESCA',
                   VALE_CALC=159.73531189031,
                   VALE_REFE=160.0,
                   CRITERE='RELATIF',
                   PRECISION=5.E-3,
                   MAILLE='M1',),
                _F(GROUP_NO='A',
                   INST=1.0,
                   REFERENCE='ANALYTIQUE',
                   RESULTAT=EVOLUP,
                   NOM_CHAM='SIEQ_NOEU',
                   NOM_CMP='PRIN_1',
                   VALE_CALC=-59.938786593592,
                   VALE_REFE=-60.0,
                   CRITERE='RELATIF',
                   PRECISION=5.E-3,
                   MAILLE='M1',),
                _F(GROUP_NO='A',
                   INST=1.0,
                   REFERENCE='ANALYTIQUE',
                   RESULTAT=EVOLUP,
                   NOM_CHAM='SIEQ_NOEU',
                   NOM_CMP='PRIN_2',
                   VALE_CALC=19.930026702997,
                   VALE_REFE=20.0,
                   CRITERE='RELATIF',
                   PRECISION=5.E-3,
                   MAILLE='M1',),
                _F(GROUP_NO='A',
                   INST=1.0,
                   REFERENCE='ANALYTIQUE',
                   RESULTAT=EVOLUP,
                   NOM_CHAM='SIEQ_NOEU',
                   NOM_CMP='PRIN_3',
                   VALE_CALC=99.796525296715,
                   VALE_REFE=100.0,
                   CRITERE='RELATIF',
                   PRECISION=5.E-3,
                   MAILLE='M1',),
                _F(GROUP_NO='A',
                   INST=1.0,
                   REFERENCE='ANALYTIQUE',
                   RESULTAT=EVOLUP,
                   NOM_CHAM='SIEQ_NOEU',
                   NOM_CMP='VMIS_SG',
                   VALE_CALC=138.33484903276,
                   VALE_REFE=138.5641,
                   CRITERE='RELATIF',
                   PRECISION=5.E-3,
                   MAILLE='M1',),
                ),
          )

M0=CREA_MAILLAGE(MAILLAGE=M,
                 QUAD_LINE=_F(TOUT='OUI',),);

MOOS=AFFE_MODELE(MAILLAGE=M0,
                 VERIF='MAILLE',
                 AFFE=_F(GROUP_MA=('VOLUME','FACEEF','FACEAE','FACEAB','FACSUP','FACINF',),
                         PHENOMENE='MECANIQUE',
                         MODELISATION='3D_INCO_OSGS',),);

CHOS=AFFE_CHAR_MECA(MODELE=MOOS,
                    DDL_IMPO=(_F(GROUP_MA='FACEAB',
                                 DX=0.,),
                              _F(GROUP_MA='FACSUP',
                                 DZ=0.,),
                              _F(GROUP_MA='FACINF',
                                 DZ=0.,),),
                    FACE_IMPO=_F(GROUP_MA='FACEEF',
                                 DNOR=0.,),
                    PRES_REP=_F(GROUP_MA='FACEAE',
                                PRES=60.,),);

CM0=AFFE_MATERIAU(MAILLAGE=M0,
                  AFFE=_F(TOUT='OUI',
                          MATER=MA,),);

EVOLOS=STAT_NON_LINE(MODELE=MOOS,
                     CHAM_MATER=CM0,
                     EXCIT=_F(CHARGE=CHOS,
                              FONC_MULT=RAMPE,),
                     COMP_INCR=_F(RELATION='ELAS',),
                     INCREMENT=_F(LIST_INST=INSTANTS,),
                     NEWTON=_F(REAC_ITER=1,),
                     SOLVEUR=_F(RENUM='MD',),);

EVOLOS=CALC_CHAMP(reuse=EVOLOS,RESULTAT=EVOLOS,CRITERES=('SIEQ_ELNO','EPEQ_ELNO'),DEFORMATION=('EPSI_ELNO'),CONTRAINTE=('SIGM_ELNO'))


EVOLOS=CALC_CHAMP(reuse =EVOLOS,
               RESULTAT=EVOLOS,
               DEFORMATION='EPSI_NOEU',CONTRAINTE='SIGM_NOEU',CRITERES=('EPEQ_NOEU','SIEQ_NOEU'));

#--------------------------------------------------------------
#       COMPARAISON DES RESULTATS A LA SOLUTION ANALYTIQUE
#       POUR UN  SOLIDE INCOMPRESSIBLE NU = 0.5
#       3D_INCO_UP ET PENTA15
#---------------------------------------------------------------

TEST_RESU(RESU=(_F(GROUP_NO='A',
                   INST=1.0,
                   REFERENCE='ANALYTIQUE',
                   RESULTAT=EVOLOS,
                   NOM_CHAM='DEPL',
                   NOM_CMP='DX',
                   VALE_CALC=6.6174449004242E-23,
                   VALE_REFE=0.0,
                   CRITERE='ABSOLU',
                   PRECISION=1.E-05,),
                _F(GROUP_NO='A',
                   INST=1.0,
                   REFERENCE='ANALYTIQUE',
                   RESULTAT=EVOLOS,
                   NOM_CHAM='DEPL',
                   NOM_CMP='DY',
                   VALE_CALC= 5.9768708406132E-05,
                   VALE_REFE=6.E-05,
                   CRITERE='RELATIF',
                   PRECISION=5.E-3,),
                _F(GROUP_NO='F',
                   INST=1.0,
                   REFERENCE='ANALYTIQUE',
                   RESULTAT=EVOLOS,
                   NOM_CHAM='DEPL',
                   NOM_CMP='DX',
                   VALE_CALC=-2.1159613712783E-05,
                   VALE_REFE=-2.1213203E-05,
                   CRITERE='RELATIF',
                   PRECISION=3.E-3,),
                _F(GROUP_NO='F',
                   INST=1.0,
                   REFERENCE='ANALYTIQUE',
                   RESULTAT=EVOLOS,
                   NOM_CHAM='DEPL',
                   NOM_CMP='DY',
                   VALE_CALC= 2.1159613712783E-05,
                   VALE_REFE=2.1213203E-05,
                   CRITERE='RELATIF',
                   PRECISION=3.E-3,),
                ),
          )

TEST_RESU(RESU=(_F(GROUP_NO='A',
                   INST=1.0,
                   REFERENCE='ANALYTIQUE',
                   RESULTAT=EVOLOS,
                   NOM_CHAM='EPSI_NOEU',
                   NOM_CMP='EPXX',
                   VALE_CALC= 5.5298553093567E-04,
                   VALE_REFE=5.9999999999999995E-4,
                   CRITERE='RELATIF',
                   PRECISION=0.1,),
                _F(GROUP_NO='A',
                   INST=1.0,
                   REFERENCE='ANALYTIQUE',
                   RESULTAT=EVOLOS,
                   NOM_CHAM='EPSI_NOEU',
                   NOM_CMP='EPYY',
                   VALE_CALC=-5.50451891707E-04,
                   VALE_REFE=-5.9999999999999995E-4,
                   CRITERE='RELATIF',
                   PRECISION=0.1,),
                _F(GROUP_NO='A',
                   INST=1.0,
                   REFERENCE='ANALYTIQUE',
                   RESULTAT=EVOLOS,
                   NOM_CHAM='EPSI_NOEU',
                   NOM_CMP='EPZZ',
                   VALE_CALC=-4.1008284174647E-16,
                   VALE_REFE=0.0,
                   CRITERE='ABSOLU',
                   PRECISION=1.E-05,),
                _F(GROUP_NO='A',
                   INST=1.0,
                   REFERENCE='ANALYTIQUE',
                   RESULTAT=EVOLOS,
                   NOM_CHAM='EPSI_NOEU',
                   NOM_CMP='EPXY',
                   VALE_CALC= 4.4202159099298E-05,
                   VALE_REFE=0.0,
                   CRITERE='ABSOLU',
                   PRECISION=5.E-05,),
                _F(GROUP_NO='F',
                   INST=1.0,
                   REFERENCE='ANALYTIQUE',
                   RESULTAT=EVOLOS,
                   NOM_CHAM='EPSI_NOEU',
                   NOM_CMP='EPXX',
                   VALE_CALC= 4.2756544362737E-06,
                   VALE_REFE=0.0,
                   CRITERE='ABSOLU',
                   PRECISION=1.E-05,),
                _F(GROUP_NO='F',
                   INST=1.0,
                   REFERENCE='ANALYTIQUE',
                   RESULTAT=EVOLOS,
                   NOM_CHAM='EPSI_NOEU',
                   NOM_CMP='EPYY',
                   VALE_CALC=-8.0453245987036E-06,
                   VALE_REFE=0.0,
                   CRITERE='ABSOLU',
                   PRECISION=1.E-05,),
                _F(GROUP_NO='F',
                   INST=1.0,
                   REFERENCE='ANALYTIQUE',
                   RESULTAT=EVOLOS,
                   NOM_CHAM='EPSI_NOEU',
                   NOM_CMP='EPXY',
                   VALE_CALC= 1.5157047749024E-04,
                   VALE_REFE=1.5E-4,
                   CRITERE='RELATIF',
                   PRECISION=0.015,),
                ),
          )

TEST_RESU(RESU=(_F(GROUP_NO='A',
                   INST=1.0,
                   REFERENCE='ANALYTIQUE',
                   RESULTAT=EVOLOS,
                   NOM_CHAM='SIGM_NOEU',
                   NOM_CMP='SIXX',
                   VALE_CALC=94.405772479356,
                   VALE_REFE=100.0,
                   CRITERE='RELATIF',
                   PRECISION=0.059999999999999998,),
                _F(GROUP_NO='A',
                   INST=1.0,
                   REFERENCE='ANALYTIQUE',
                   RESULTAT=EVOLOS,
                   NOM_CHAM='SIGM_NOEU',
                   NOM_CMP='SIYY',
                   VALE_CALC=-52.72902619291,
                   VALE_REFE=-60.0,
                   CRITERE='RELATIF',
                   PRECISION=0.14999999999999999,),
                _F(GROUP_NO='A',
                   INST=1.0,
                   REFERENCE='ANALYTIQUE',
                   RESULTAT=EVOLOS,
                   NOM_CHAM='SIGM_NOEU',
                   NOM_CMP='SIZZ',
                   VALE_CALC=20.669452599886,
                   VALE_REFE=20.0,
                   CRITERE='RELATIF',
                   PRECISION=0.050000000000000003,),
                _F(NUME_ORDRE=1,
                   GROUP_NO='A',
                   REFERENCE='ANALYTIQUE',
                   RESULTAT=EVOLOS,
                   NOM_CHAM='SIGM_NOEU',
                   NOM_CMP='SIXY',
                   VALE_CALC=5.8940141475162,
                   VALE_REFE=0.0,
                   CRITERE='ABSOLU',
                   PRECISION=6.0,),
                _F(GROUP_NO='F',
                   INST=1.0,
                   REFERENCE='ANALYTIQUE',
                   RESULTAT=EVOLOS,
                   NOM_CHAM='SIGM_NOEU',
                   NOM_CMP='SIXX',
                   VALE_CALC=20.605873178161,
                   VALE_REFE=20.0,
                   CRITERE='RELATIF',
                   PRECISION=0.5,),
                _F(GROUP_NO='F',
                   INST=1.0,
                   REFERENCE='ANALYTIQUE',
                   RESULTAT=EVOLOS,
                   NOM_CHAM='SIGM_NOEU',
                   NOM_CMP='SIYY',
                   VALE_CALC=18.962966446382,
                   VALE_REFE=20.0,
                   CRITERE='RELATIF',
                   PRECISION=0.059999999999999998,),
                _F(GROUP_NO='F',
                   INST=1.0,
                   REFERENCE='ANALYTIQUE',
                   RESULTAT=EVOLOS,
                   NOM_CHAM='SIGM_NOEU',
                   NOM_CMP='SIZZ',
                   VALE_CALC=20.035747911644,
                   VALE_REFE=20.0,
                   CRITERE='RELATIF',
                   PRECISION=5.0000000000000001E-3,),
                _F(GROUP_NO='F',
                   INST=1.0,
                   REFERENCE='ANALYTIQUE',
                   RESULTAT=EVOLOS,
                   NOM_CHAM='SIGM_NOEU',
                   NOM_CMP='SIXY',
                   VALE_CALC=20.210744381657,
                   VALE_REFE=20.0,
                   CRITERE='RELATIF',
                   PRECISION=0.014999999999999999,),
                ),
          )

TEST_RESU(RESU=(_F(GROUP_NO='A',
                   INST=1.0,
                   REFERENCE='ANALYTIQUE',
                   RESULTAT=EVOLOS,
                   NOM_CHAM='EPEQ_NOEU',
                   NOM_CMP='INVA_2',
                   VALE_CALC= 6.39669450E-04,
                   VALE_REFE=6.9282000000000002E-4,
                   CRITERE='RELATIF',
                   PRECISION=0.080000000000000002,
                   MAILLE='M1',),
                _F(GROUP_NO='A',
                   INST=1.0,
                   REFERENCE='ANALYTIQUE',
                   RESULTAT=EVOLOS,
                   NOM_CHAM='EPEQ_NOEU',
                   NOM_CMP='PRIN_1',
                   VALE_CALC=-5.52578253E-04,
                   VALE_REFE=-5.9999999999999995E-4,
                   CRITERE='RELATIF',
                   PRECISION=0.080000000000000002,
                   MAILLE='M1',),
                _F(GROUP_NO='A',
                   INST=1.0,
                   REFERENCE='ANALYTIQUE',
                   RESULTAT=EVOLOS,
                   NOM_CHAM='EPEQ_NOEU',
                   NOM_CMP='PRIN_2',
                   VALE_CALC=-4.09946777E-16,
                   VALE_REFE=0.0,
                   CRITERE='ABSOLU',
                   PRECISION=1.0000000000000001E-05,
                   MAILLE='M1',),
                _F(GROUP_NO='A',
                   INST=1.0,
                   REFERENCE='ANALYTIQUE',
                   RESULTAT=EVOLOS,
                   NOM_CHAM='EPEQ_NOEU',
                   NOM_CMP='PRIN_3',
                   VALE_CALC= 5.55111892E-04,
                   VALE_REFE=5.9999999999999995E-4,
                   CRITERE='RELATIF',
                   PRECISION=0.080000000000000002,
                   MAILLE='M1',),
                ),
          )

TEST_RESU(RESU=(_F(GROUP_NO='A',
                   INST=1.0,
                   REFERENCE='ANALYTIQUE',
                   RESULTAT=EVOLOS,
                   NOM_CHAM='SIEQ_NOEU',
                   NOM_CMP='VMIS',
                   VALE_CALC=127.942419555,
                   VALE_REFE=138.5641,
                   CRITERE='RELATIF',
                   PRECISION=0.10000000000000001,
                   MAILLE='M1',),
                _F(GROUP_NO='A',
                   INST=1.0,
                   REFERENCE='ANALYTIQUE',
                   RESULTAT=EVOLOS,
                   NOM_CHAM='SIEQ_NOEU',
                   NOM_CMP='TRESCA',
                   VALE_CALC=147.701866079,
                   VALE_REFE=160.0,
                   CRITERE='RELATIF',
                   PRECISION=0.10000000000000001,
                   MAILLE='M1',),
                _F(GROUP_NO='A',
                   INST=1.0,
                   REFERENCE='ANALYTIQUE',
                   RESULTAT=EVOLOS,
                   NOM_CHAM='SIEQ_NOEU',
                   NOM_CMP='PRIN_1',
                   VALE_CALC=-53.012559896,
                   VALE_REFE=-60.0,
                   CRITERE='RELATIF',
                   PRECISION=0.12,
                   MAILLE='M1',),
                _F(GROUP_NO='A',
                   INST=1.0,
                   REFERENCE='ANALYTIQUE',
                   RESULTAT=EVOLOS,
                   NOM_CHAM='SIEQ_NOEU',
                   NOM_CMP='PRIN_2',
                   VALE_CALC=20.669452600,
                   VALE_REFE=20.0,
                   CRITERE='RELATIF',
                   PRECISION=0.050000000000000003,
                   MAILLE='M1',),
                _F(GROUP_NO='A',
                   INST=1.0,
                   REFERENCE='ANALYTIQUE',
                   RESULTAT=EVOLOS,
                   NOM_CHAM='SIEQ_NOEU',
                   NOM_CMP='PRIN_3',
                   VALE_CALC=94.689306183,
                   VALE_REFE=100.0,
                   CRITERE='RELATIF',
                   PRECISION=0.059999999999999998,
                   MAILLE='M1',),
                _F(GROUP_NO='A',
                   INST=1.0,
                   REFERENCE='ANALYTIQUE',
                   RESULTAT=EVOLOS,
                   NOM_CHAM='SIEQ_NOEU',
                   NOM_CMP='VMIS_SG',
                   VALE_CALC=127.942419555,
                   VALE_REFE=138.5641,
                   CRITERE='RELATIF',
                   PRECISION=0.10000000000000001,
                   MAILLE='M1',),
                ),
          )

FIN();

#
