# ======================================================================
# COPYRIGHT (C) 1991 - 2016  EDF R&D                  WWW.CODE-ASTER.ORG
# THIS PROGRAM IS FREE SOFTWARE; YOU CAN REDISTRIBUTE IT AND/OR MODIFY
# IT UNDER THE TERMS OF THE GNU GENERAL PUBLIC LICENSE AS PUBLISHED BY
# THE FREE SOFTWARE FOUNDATION; EITHER VERSION 2 OF THE LICENSE, OR
# (AT YOUR OPTION) ANY LATER VERSION.
#
# THIS PROGRAM IS DISTRIBUTED IN THE HOPE THAT IT WILL BE USEFUL, BUT
# WITHOUT ANY WARRANTY; WITHOUT EVEN THE IMPLIED WARRANTY OF
# MERCHANTABILITY OR FITNESS FOR A PARTICULAR PURPOSE. SEE THE GNU
# GENERAL PUBLIC LICENSE FOR MORE DETAILS.
#
# YOU SHOULD HAVE RECEIVED A COPY OF THE GNU GENERAL PUBLIC LICENSE
# ALONG WITH THIS PROGRAM; IF NOT, WRITE TO EDF R&D CODE_ASTER,
#    1 AVENUE DU GENERAL DE GAULLE, 92141 CLAMART CEDEX, FRANCE.
# ======================================================================
#

DEBUT(CODE=_F(NIV_PUB_WEB='INTERNET'),DEBUG=_F(SDVERI='OUI'))

M=LIRE_MAILLAGE(FORMAT='MED',)

MO=AFFE_MODELE(            MAILLAGE=M,
                                   
                                  AFFE=_F(  TOUT = 'OUI',
                                         PHENOMENE = 'MECANIQUE',
                                         MODELISATION = 'C_PLAN'))

MA=DEFI_MATERIAU(            ELAS=_F(  E = 200000.,
                                         NU = 0.3,
                                         ALPHA = 0.) )

CM=AFFE_MATERIAU(        MAILLAGE=M,
                                  AFFE=_F(  TOUT = 'OUI',
                                         MATER = MA))

DEFI_GROUP(reuse=M,       MAILLAGE=M,
                  CREA_GROUP_NO=_F( NOM = 'AB', GROUP_MA = 'AB')
                )

TA=POST_ELEM(    MODELE=MO,
                     AIRE_INTERNE=_F(  GROUP_MA_BORD = 'AE7')
                 )

MODI_MAILLAGE(  reuse=M,
        INFO=2,
               MAILLAGE=M,
           ORIE_PEAU_2D=_F(  GROUP_MA = ( 'AE7', ))
                  )

CH=AFFE_CHAR_MECA(         MODELE=MO,DDL_IMPO=(
                              _F(  GROUP_NO = 'AB',  DY = 0.),
                              _F(  GROUP_NO = ('PY1', 'PY2',),  DX = 0.)),
                              PRES_REP=_F(  GROUP_MA = 'AE7',  PRES = 60.))


RESU=MECA_STATIQUE(         MODELE=MO,    CHAM_MATER=CM,
                          EXCIT=_F(  CHARGE = CH),

                    )

CALC_CHAMP(reuse=RESU,RESULTAT=RESU,CONTRAINTE=('SIGM_ELNO'),DEFORMATION=('EPSI_ELNO'))


CALC_CHAMP( reuse=RESU,                      RESULTAT=RESU,
                     DEFORMATION='EPSI_NOEU',CONTRAINTE='SIGM_NOEU')

TEST_RESU(RESU=(_F(NUME_ORDRE=1,
                   GROUP_NO='A',
                   RESULTAT=RESU,
                   NOM_CHAM='DEPL',
                   NOM_CMP='DX',
                   VALE_CALC= 5.89988781E-05,
                   VALE_REFE=5.8999999999999998E-05,
                   REFERENCE='ANALYTIQUE',
                   CRITERE='RELATIF',
                   PRECISION=1.E-2,),
                _F(NUME_ORDRE=1,
                   GROUP_NO='A',
                   RESULTAT=RESU,
                   NOM_CHAM='DEPL',
                   NOM_CMP='DY',
                   VALE_CALC=0.0,
                   VALE_REFE=0.0,
                   REFERENCE='ANALYTIQUE',
                   PRECISION=1.E-4,
                   CRITERE='ABSOLU',
                   ),
                _F(NUME_ORDRE=1,
                   GROUP_NO='B',
                   RESULTAT=RESU,
                   NOM_CHAM='DEPL',
                   NOM_CMP='DX',
                   VALE_CALC= 3.99996272E-05,
                   VALE_REFE=4.0000000000000003E-05,
                   REFERENCE='ANALYTIQUE',
                   CRITERE='RELATIF',
                   PRECISION=1.E-2,),
                _F(NUME_ORDRE=1,
                   GROUP_NO='B',
                   RESULTAT=RESU,
                   NOM_CHAM='DEPL',
                   NOM_CMP='DY',
                   VALE_CALC=0.0,
                   VALE_REFE=0.0,
                   REFERENCE='ANALYTIQUE',
                   PRECISION=1.E-4,
                   CRITERE='ABSOLU',
                   ),
                _F(NUME_ORDRE=1,
                   GROUP_NO='E',
                   RESULTAT=RESU,
                   NOM_CHAM='DEPL',
                   NOM_CMP='DY',
                   VALE_CALC= 4.17214571E-05,
                   VALE_REFE=4.1719299999999999E-05,
                   REFERENCE='ANALYTIQUE',
                   CRITERE='RELATIF',
                   PRECISION=1.E-2,),
                _F(NUME_ORDRE=1,
                   GROUP_NO='E',
                   RESULTAT=RESU,
                   NOM_CHAM='DEPL',
                   NOM_CMP='DX',
                   VALE_CALC= 4.17214571E-05,
                   VALE_REFE=4.1719299999999999E-05,
                   REFERENCE='ANALYTIQUE',
                   CRITERE='RELATIF',
                   PRECISION=1.E-2,),
                _F(NUME_ORDRE=1,
                   GROUP_NO='F',
                   RESULTAT=RESU,
                   NOM_CHAM='DEPL',
                   NOM_CMP='DY',
                   VALE_CALC= 2.82840606E-05,
                   VALE_REFE=2.82843E-05,
                   REFERENCE='ANALYTIQUE',
                   CRITERE='RELATIF',
                   PRECISION=1.E-2,),
                _F(NUME_ORDRE=1,
                   GROUP_NO='F',
                   RESULTAT=RESU,
                   NOM_CHAM='DEPL',
                   NOM_CMP='DX',
                   VALE_CALC= 2.82840606E-05,
                   VALE_REFE=2.82843E-05,
                   REFERENCE='ANALYTIQUE',
                   CRITERE='RELATIF',
                   PRECISION=1.E-2,),
                ),
          )

TEST_RESU(RESU=(_F(NUME_ORDRE=1,
                   GROUP_NO='A',
                   RESULTAT=RESU,
                   NOM_CHAM='SIGM_NOEU',
                   NOM_CMP='SIXX',
                   VALE_CALC=-59.497019752,
                   VALE_REFE=-60.0,
                   REFERENCE='ANALYTIQUE',
                   CRITERE='RELATIF',
                   PRECISION=1.E-2,),
                _F(NUME_ORDRE=1,
                   GROUP_NO='A',
                   RESULTAT=RESU,
                   NOM_CHAM='SIGM_NOEU',
                   NOM_CMP='SIYY',
                   VALE_CALC=99.627774280,
                   VALE_REFE=100.0,
                   REFERENCE='ANALYTIQUE',
                   CRITERE='RELATIF',
                   PRECISION=1.E-2,),
                _F(NUME_ORDRE=1,
                   GROUP_NO='A',
                   RESULTAT=RESU,
                   NOM_CHAM='SIGM_NOEU',
                   NOM_CMP='SIZZ',
                   VALE_CALC=0.0,
                   VALE_REFE=0.0,
                   REFERENCE='ANALYTIQUE',
                   PRECISION=1.E-4,
                   CRITERE='ABSOLU',
                   ),
                _F(NUME_ORDRE=1,
                   GROUP_NO='A',
                   RESULTAT=RESU,
                   NOM_CHAM='SIGM_NOEU',
                   NOM_CMP='SIXY',
                   VALE_CALC= 2.66836553E-12,
                   VALE_REFE=0.0,
                   REFERENCE='ANALYTIQUE',
                   CRITERE='ABSOLU',
                   PRECISION=0.29999999999999999,),
                ),
          )

TEST_RESU(RESU=(_F(NUME_ORDRE=1,
                   GROUP_NO='B',
                   RESULTAT=RESU,
                   NOM_CHAM='SIGM_NOEU',
                   NOM_CMP='SIXX',
                   VALE_CALC=0.031459281,
                   VALE_REFE=0.0,
                   REFERENCE='ANALYTIQUE',
                   CRITERE='ABSOLU',
                   PRECISION=0.10000000000000001,),
                _F(NUME_ORDRE=1,
                   GROUP_NO='B',
                   RESULTAT=RESU,
                   NOM_CHAM='SIGM_NOEU',
                   NOM_CMP='SIYY',
                   VALE_CALC=39.975920573,
                   VALE_REFE=40.0,
                   REFERENCE='ANALYTIQUE',
                   CRITERE='RELATIF',
                   PRECISION=5.0000000000000001E-3,),
                _F(NUME_ORDRE=1,
                   GROUP_NO='B',
                   RESULTAT=RESU,
                   NOM_CHAM='SIGM_NOEU',
                   NOM_CMP='SIZZ',
                   VALE_CALC= 0.00000000E+00,
                   VALE_REFE=0.0,
                   REFERENCE='ANALYTIQUE',
                   CRITERE='ABSOLU',
                   PRECISION=0.014999999999999999,),
                _F(NUME_ORDRE=1,
                   GROUP_NO='B',
                   RESULTAT=RESU,
                   NOM_CHAM='SIGM_NOEU',
                   NOM_CMP='SIXY',
                   VALE_CALC= 3.40415196E-12,
                   VALE_REFE=0.0,
                   REFERENCE='ANALYTIQUE',
                   CRITERE='ABSOLU',
                   PRECISION=0.10000000000000001,),
                ),
          )

TEST_RESU(RESU=(_F(NUME_ORDRE=1,
                   GROUP_NO='E',
                   RESULTAT=RESU,
                   NOM_CHAM='SIGM_NOEU',
                   NOM_CMP='SIXX',
                   VALE_CALC=20.287475988,
                   VALE_REFE=20.0,
                   REFERENCE='ANALYTIQUE',
                   CRITERE='RELATIF',
                   PRECISION=0.050000000000000003,),
                _F(NUME_ORDRE=1,
                   GROUP_NO='E',
                   RESULTAT=RESU,
                   NOM_CHAM='SIGM_NOEU',
                   NOM_CMP='SIYY',
                   VALE_CALC=20.287475988,
                   VALE_REFE=20.0,
                   REFERENCE='ANALYTIQUE',
                   CRITERE='RELATIF',
                   PRECISION=0.050000000000000003,),
                _F(NUME_ORDRE=1,
                   GROUP_NO='E',
                   RESULTAT=RESU,
                   NOM_CHAM='SIGM_NOEU',
                   NOM_CMP='SIZZ',
                   VALE_CALC=0.0,
                   VALE_REFE=0.0,
                   REFERENCE='ANALYTIQUE',
                   PRECISION=1.E-4,
                   CRITERE='ABSOLU',
                   ),
                _F(NUME_ORDRE=1,
                   GROUP_NO='E',
                   RESULTAT=RESU,
                   NOM_CHAM='SIGM_NOEU',
                   NOM_CMP='SIXY',
                   VALE_CALC=-79.919611059,
                   VALE_REFE=-80.0,
                   REFERENCE='ANALYTIQUE',
                   CRITERE='RELATIF',
                   PRECISION=1.E-2,),
                ),
          )

TEST_RESU(RESU=(_F(NUME_ORDRE=1,
                   GROUP_NO='F',
                   RESULTAT=RESU,
                   NOM_CHAM='SIGM_NOEU',
                   NOM_CMP='SIXX',
                   VALE_CALC=20.016676395,
                   VALE_REFE=20.0,
                   REFERENCE='ANALYTIQUE',
                   CRITERE='RELATIF',
                   PRECISION=1.E-2,),
                _F(NUME_ORDRE=1,
                   GROUP_NO='F',
                   RESULTAT=RESU,
                   NOM_CHAM='SIGM_NOEU',
                   NOM_CMP='SIYY',
                   VALE_CALC=20.016676395,
                   VALE_REFE=20.0,
                   REFERENCE='ANALYTIQUE',
                   CRITERE='RELATIF',
                   PRECISION=1.E-2,),
                _F(NUME_ORDRE=1,
                   GROUP_NO='F',
                   RESULTAT=RESU,
                   NOM_CHAM='SIGM_NOEU',
                   NOM_CMP='SIZZ',
                   VALE_CALC=0.0,
                   VALE_REFE=0.0,
                   REFERENCE='ANALYTIQUE',
                   PRECISION=1.E-4,
                   CRITERE='ABSOLU',
                   ),
                _F(NUME_ORDRE=1,
                   GROUP_NO='F',
                   RESULTAT=RESU,
                   NOM_CHAM='SIGM_NOEU',
                   NOM_CMP='SIXY',
                   VALE_CALC=-19.99927652775,
                   VALE_REFE=-20,
                   REFERENCE='ANALYTIQUE',
                   PRECISION=1.E-2,
                   CRITERE='RELATIF',
                   ),
                ),
          )

FIN()
#
