# MODIF  DATE 30/07/2012   AUTEUR LEFEBVRE J-P.LEFEBVRE 
# TITRE CALCUL 3D DE G FISSURE CIRCULAIRE EN MILIEU INFINI
# sslv134c.para = tps_job 60 mem_job 512Mo ncpus 1 liste_test S
#            CONFIGURATION MANAGEMENT OF EDF VERSION
# ======================================================================
# COPYRIGHT (C) 1991 - 2012  EDF R&D                  WWW.CODE-ASTER.ORG
# THIS PROGRAM IS FREE SOFTWARE; YOU CAN REDISTRIBUTE IT AND/OR MODIFY
# IT UNDER THE TERMS OF THE GNU GENERAL PUBLIC LICENSE AS PUBLISHED BY
# THE FREE SOFTWARE FOUNDATION; EITHER VERSION 2 OF THE LICENSE, OR
# (AT YOUR OPTION) ANY LATER VERSION.
#
# THIS PROGRAM IS DISTRIBUTED IN THE HOPE THAT IT WILL BE USEFUL, BUT
# WITHOUT ANY WARRANTY; WITHOUT EVEN THE IMPLIED WARRANTY OF
# MERCHANTABILITY OR FITNESS FOR A PARTICULAR PURPOSE. SEE THE GNU
# GENERAL PUBLIC LICENSE FOR MORE DETAILS.
#
# YOU SHOULD HAVE RECEIVED A COPY OF THE GNU GENERAL PUBLIC LICENSE
# ALONG WITH THIS PROGRAM; IF NOT, WRITE TO EDF R&D CODE_ASTER,
#    1 AVENUE DU GENERAL DE GAULLE, 92141 CLAMART CEDEX, FRANCE.
# ======================================================================
# QUART DE FISSURE. TEST DE POST_K1_K2_K3. MAILLAGE BARSOUM

DEBUT(CODE=_F(NOM='SSLV134C', NIV_PUB_WEB='INTERNET'), DEBUG=_F(SDVERI='OUI'))

MA=LIRE_MAILLAGE(VERI_MAIL=_F(VERIF='OUI'),FORMAT='MED',)

MA=DEFI_GROUP( reuse=MA,   MAILLAGE=MA,
                     CREA_GROUP_NO=_F(
                      GROUP_MA = ('LP8P9', 'LP8P9S', 'LP0P11', 'LP0P8', 'LP0P8S',))
                 )

MO=AFFE_MODELE(  MAILLAGE=MA,
                      AFFE=_F(  TOUT = 'OUI',
                             PHENOMENE = 'MECANIQUE',
                             MODELISATION = 'AXIS') )

MAT=DEFI_MATERIAU(ELAS=_F(  E = 2.E11,
                             NU = 0.3,
                             ALPHA = 0.,
                             RHO = 7850,
                     ) )

CHMAT=AFFE_MATERIAU(  MAILLAGE=MA,
                       AFFE=_F(  TOUT = 'OUI',
                              MATER = MAT) )

SYMETRIE=AFFE_CHAR_MECA(  MODELE=MO,DDL_IMPO=(
                _F(  GROUP_NO = ('LP8P9', 'LP8P9S',), DX = 0.),
                         _F(  GROUP_NO = 'LP0P11',  DY = 0.))
                         )

PRESSION=AFFE_CHAR_MECA(    MODELE=MO,FORCE_CONTOUR=(
                  _F(  GROUP_MA = 'LP9P10',  FY = 1.E6),
                  _F(  GROUP_MA = 'LP9P10S', FY = -1.E6))
                          )

CHAMDEPL=MECA_STATIQUE(        MODELE=MO,
                              CHAM_MATER=CHMAT,EXCIT=(
                              _F( CHARGE = PRESSION),
                              _F( CHARGE = SYMETRIE))
                           )

CHAMDEPL=CALC_CHAMP(reuse=CHAMDEPL,CONTRAINTE=('SIGM_ELNO'),RESULTAT=CHAMDEPL)


FISS=DEFI_FOND_FISS(MAILLAGE=MA,
                    FOND_FISS=_F( GROUP_NO = ('P0',)),
                   )

FISS2=DEFI_FOND_FISS(MAILLAGE=MA,
                    FOND_FISS=_F( GROUP_NO = ('P0',)),
                    LEVRE_SUP=_F(  GROUP_MA = 'LP0P8'),
                    LEVRE_INF=_F(  GROUP_MA = 'LP0P8S'),
                   )

RSUP=0.25
RINF=0.05

THETA01=CALC_THETA(    MODELE=MO,
                         THETA_2D=_F(  GROUP_NO = ('P0',),
                                    MODULE = 1.,
                                    R_INF = RINF,
                                    R_SUP = RSUP),
                         DIRECTION=(1., 0., 0.,)
                     )

G0=CALC_G        (       RESULTAT=CHAMDEPL,
                         INFO=2,
                         THETA=_F(THETA=THETA01),
                     )


GK0=CALC_G(THETA=_F(FOND_FISS=FISS,THETA=THETA01,),
          RESULTAT=CHAMDEPL,
          INFO=2,
          OPTION='CALC_K_G',);

IMPR_TABLE(TABLE=GK0,),

# POST_K1_K2_K3

TABL_K1=POST_K1_K2_K3(  MODELISATION='AXIS',
                        RESULTAT=CHAMDEPL,
                        FOND_FISS=FISS2,
                        INFO=2,
                        MATER=MAT,
                     )

IMPR_TABLE( TABLE=TABL_K1 )


# ---------------
# VALEUR DE REFERENCE MILIEU INFINI : G=145.6
GLOC=11.58648
K1=1.595769E6

# POUR UN RADIAN
GREF=23.17296


TEST_TABLE(       TABLE=G0,
                  NOM_PARA='G',
                   REFERENCE='ANALYTIQUE',
                   VALE=GREF,
                 PRECISION=0.018        )

TEST_TABLE(       TABLE=GK0,
                  NOM_PARA='G',
                   REFERENCE='ANALYTIQUE',
                   VALE=GLOC,
                 PRECISION=0.018        )

TEST_TABLE(       TABLE=GK0,
                  NOM_PARA='K1',
                   REFERENCE='ANALYTIQUE',
                   VALE=K1,
                 PRECISION=0.03        )

TEST_TABLE(       TABLE=GK0,
                  NOM_PARA='K1',
                   REFERENCE='NON_REGRESSION',
                   VALE=1.64307E+06,
                 PRECISION=0.0001        )

TEST_TABLE(       TABLE=TABL_K1,
                      REFERENCE='ANALYTIQUE',
                       NOM_PARA='K1',
                           VALE=K1,
                      PRECISION=0.015           )

TEST_TABLE(       TABLE=TABL_K1,
                      REFERENCE='ANALYTIQUE',
                       NOM_PARA='G',
                           VALE=GLOC,
                      PRECISION=0.03           )


# -------------------------------------------------------------
#           ON AJOUTE LA ROTATION POUR CALCULER K
#                    SOUS LA FORCE CONTRIGUGE
# -------------------------------------------------------------
# LA VITESSE DE TOTATIO EST 150 TRS/MINUTE
VAL_ROT = 15.708

CHAR_ROT=AFFE_CHAR_MECA(  MODELE=MO,
                        DDL_IMPO=(
                          _F(  GROUP_NO = ('LP8P9', 'LP8P9S',), DX = 0.),
                          _F(  GROUP_NO = 'LP0P11',  DY = 0.)  ),

                        FORCE_CONTOUR=(
                          _F(  GROUP_MA = 'LP9P10',  FY = 1.E6),
                          _F(  GROUP_MA = 'LP9P10S', FY = -1.E6)),

                        ROTATION=_F(VITESSE = VAL_ROT,
                                AXE = (0.,1.,0.,),
                                CENTRE =(0.,0.,0.,),
                                  ),

                                 );

DEPL_ROT=MECA_STATIQUE(MODELE=MO,
                       CHAM_MATER=CHMAT,
                       EXCIT=_F(CHARGE=CHAR_ROT,),
                       INST=1.,
                       INFO=1,);

IMPR_RESU(FORMAT='MED',UNITE=80,RESU=_F(RESULTAT=DEPL_ROT));

G1=CALC_G        (       OPTION='CALC_G',
                         RESULTAT=DEPL_ROT,
                         INFO=2,
                         THETA=_F(THETA=THETA01,SYME='OUI'),
                     )


GK1=CALC_G(THETA=_F(FOND_FISS=FISS,THETA=THETA01,),
          RESULTAT=DEPL_ROT,
          INFO=2,
          OPTION='CALC_K_G',);

IMPR_TABLE(TABLE=GK1,),

# POST_K1_K2_K3

TABL_K2=POST_K1_K2_K3(  MODELISATION='AXIS',
                        RESULTAT=DEPL_ROT,
                        FOND_FISS=FISS2,
                        INFO=2,
                        MATER=MAT,
                     )

IMPR_TABLE( TABLE=TABL_K2, ),


FIN()
#
