# MODIF  DATE 04/04/2006   AUTEUR CIBHHLV L.VIVAN 
# TITRE CYLINDRE EN INCOMPRESSIBLE (TRIA6 QUAD8) PLAN
#            CONFIGURATION MANAGEMENT OF EDF VERSION
# ======================================================================
# COPYRIGHT (C) 1991 - 2001  EDF R&D                  WWW.CODE-ASTER.ORG
# THIS PROGRAM IS FREE SOFTWARE; YOU CAN REDISTRIBUTE IT AND/OR MODIFY
# IT UNDER THE TERMS OF THE GNU GENERAL PUBLIC LICENSE AS PUBLISHED BY
# THE FREE SOFTWARE FOUNDATION; EITHER VERSION 2 OF THE LICENSE, OR   
# (AT YOUR OPTION) ANY LATER VERSION.                                 
#
# THIS PROGRAM IS DISTRIBUTED IN THE HOPE THAT IT WILL BE USEFUL, BUT 
# WITHOUT ANY WARRANTY; WITHOUT EVEN THE IMPLIED WARRANTY OF          
# MERCHANTABILITY OR FITNESS FOR A PARTICULAR PURPOSE. SEE THE GNU    
# GENERAL PUBLIC LICENSE FOR MORE DETAILS.                            
#
# YOU SHOULD HAVE RECEIVED A COPY OF THE GNU GENERAL PUBLIC LICENSE   
# ALONG WITH THIS PROGRAM; IF NOT, WRITE TO EDF R&D CODE_ASTER,       
#    1 AVENUE DU GENERAL DE GAULLE, 92141 CLAMART CEDEX, FRANCE.      
# ======================================================================
# CAS_TEST__: SSLV130C
#
# ----------------------------------------------------------------------
#
# CYLINDRE CREUX EN INCOMPRESSIBLE (NU=0.4999)
# SOUS PRESSION INTERNE (60 MPA)
#
# MODELISATION : ELEMENTS MECANIQUE PLAN_INCO (TRIA6 QUAD8)
# MAILLAGE     : ALIBABA > ASTER
# ----------------------------------------------------------------------
# GROUPES DE NOEUDS ET MAILLES: A B C D E F
#              BORDAB=GRNM11    FACEEF=GRMA12     FACEAE=GRMA13
# ----------------------------------------------------------------------
#

DEBUT(CODE=_F(  NOM = 'SSLV130C',NIV_PUB_WEB='INTERNET') )

M=LIRE_MAILLAGE(   )

MO=AFFE_MODELE(  MAILLAGE=M,
                 VERIF='MAILLE',
                 AFFE=_F(  TOUT         = 'OUI',
                           PHENOMENE    = 'MECANIQUE',
                           MODELISATION = 'D_PLAN_INCO'))


# POUR TESTER LA POSSIBILITE DE FOURNIR DIRECTEMENT LE CHAMP DE MODULE D'YOUNG :
#-------------------------------------------------------------------------------
CHYOUNG=CREA_CHAMP( OPERATION='AFFE', TYPE_CHAM='NOEU_NEUT_R',
                    MAILLAGE=M,  AFFE=_F( TOUT = 'OUI', NOM_CMP = 'X1', VALE = 200000.) )
NU_F=DEFI_CONSTANTE(VALE=0.4999 )
E_F = DEFI_FONCTION(NOM_PARA='NEUT1',VALE=(-1.E-9,-1.E-9, 1.E+9,1.E+9));
MA=DEFI_MATERIAU(ELAS_FO=_F(E=E_F, NU=NU_F,),);

CM=AFFE_MATERIAU( MAILLAGE=M,
                  AFFE=_F(TOUT= 'OUI', MATER= MA),
                  AFFE_VARC=_F(NOM_VARC='NEUT1', CHAMP_GD=CHYOUNG),
                  )

CLIM=AFFE_CHAR_MECA( MODELE=MO,
                   DDL_IMPO =_F(  GROUP_NO = 'GRNM11',  DX = 0.),
                   FACE_IMPO=_F(  GROUP_MA = 'GRMA12',  DNOR = 0.),)
                   
CH=AFFE_CHAR_MECA(  MODELE=MO,
                    PRES_REP=_F(  GROUP_MA = 'GRMA13',  PRES = 60.) )

L_INST1 = DEFI_LIST_REEL (
             DEBUT= 0.,
             INTERVALLE= _F(JUSQU_A= 1.,
                            NOMBRE=1),
             ) ;


RAMPE    = DEFI_FONCTION (
             NOM_PARA= 'INST',
             PROL_DROITE='CONSTANT',
             VALE    = (
               0., 0.,
               1., 1. ), ) ;
EVOL   = STAT_NON_LINE (
             MODELE= MO,
             CHAM_MATER= CM,
             EXCIT= (_F(CHARGE= CLIM),
                     _F(CHARGE= CH,
                        FONC_MULT= RAMPE),),
             INCREMENT= _F(LIST_INST= L_INST1),
             COMP_INCR= _F(RELATION= 'ELAS'),
             SOLVEUR=_F(RENUM='MD'),
             NEWTON= _F(
             REAC_ITER= 1 ), ) ;
             
EVOL = CALC_ELEM (reuse=EVOL,
              RESULTAT= EVOL,
              
              OPTION= (
               'EPSI_ELNO_DEPL',
               'SIEF_ELNO_ELGA',
               'EQUI_ELNO_SIGM',
               'EQUI_ELNO_EPSI'
           ),   ) ;

EVOL = CALC_NO (reuse=EVOL,
                RESULTAT= EVOL,
                OPTION  = (
               'EPSI_NOEU_DEPL',
               'SIEF_NOEU_ELGA',
               'EQUI_NOEU_EPSI',
               'EQUI_NOEU_SIGM',
                ), ) ;

#---------------------------------------------------------------

#       TEST DE SOLIDE INCOMPRESSIBLE NU = 0.5

#---------------------------------------------------------------
TEST_RESU(RESU=(
#     DEPLACEMENTS        
         _F(  RESULTAT = EVOL, INST = 1., NOM_CHAM = 'DEPL',  CRITERE = 'ABSOLU',   PRECISION = 1.E-5,
         GROUP_NO = 'A',     NOM_CMP = 'DX',            VALE = 0., REFERENCE='ANALYTIQUE'),
         _F(  RESULTAT = EVOL, INST = 1., NOM_CHAM = 'DEPL',  CRITERE = 'RELATIF',  PRECISION = 5.E-3,
         GROUP_NO = 'A',     NOM_CMP = 'DY',            VALE = 6.E-5, REFERENCE='ANALYTIQUE'),

        _F(  RESULTAT = EVOL, INST = 1., NOM_CHAM = 'DEPL',  CRITERE = 'RELATIF',   PRECISION = 5.E-3,
         GROUP_NO = 'F',     NOM_CMP = 'DX',            VALE = -2.1213203E-5, REFERENCE='ANALYTIQUE'),
        _F(  RESULTAT = EVOL, INST = 1., NOM_CHAM = 'DEPL',  CRITERE = 'RELATIF',   PRECISION = 5.E-3,
         GROUP_NO = 'F',     NOM_CMP = 'DY',            VALE =  2.1213203E-5, REFERENCE='ANALYTIQUE'),
),)
TEST_RESU(RESU=(
    # DEFORMATIONS             
           _F( RESULTAT = EVOL, INST = 1., NOM_CHAM = 'EPSI_NOEU_DEPL',   CRITERE = 'RELATIF',    PRECISION = 5.E-3,
 GROUP_NO = 'A',    MAILLE = 'M1',      NOM_CMP = 'EPXX',      VALE = 6.0E-4, REFERENCE='ANALYTIQUE'),
           _F( RESULTAT = EVOL, INST = 1., NOM_CHAM = 'EPSI_NOEU_DEPL',   CRITERE = 'RELATIF',    PRECISION = 5.E-3,
 GROUP_NO = 'A',    MAILLE = 'M1',      NOM_CMP = 'EPYY',      VALE = -6.0E-4, REFERENCE='ANALYTIQUE'),
           _F(  RESULTAT = EVOL, INST = 1., NOM_CHAM = 'EPSI_NOEU_DEPL',  CRITERE = 'ABSOLU',     PRECISION = 1.E-5,
 GROUP_NO = 'A',    MAILLE = 'M1',      NOM_CMP = 'EPXY',      VALE = 0., REFERENCE='ANALYTIQUE'),

           _F( RESULTAT = EVOL, INST = 1., NOM_CHAM = 'EPSI_NOEU_DEPL',   CRITERE = 'ABSOLU',    PRECISION = 1.E-5,
 GROUP_NO = 'F',    MAILLE = 'M223',    NOM_CMP = 'EPXX',      VALE = 0., REFERENCE='ANALYTIQUE'),
           _F( RESULTAT = EVOL, INST = 1., NOM_CHAM = 'EPSI_NOEU_DEPL',   CRITERE = 'ABSOLU',    PRECISION = 1.E-5,
 GROUP_NO = 'F',    MAILLE = 'M223',    NOM_CMP = 'EPYY',      VALE = 0., REFERENCE='ANALYTIQUE'),
           _F( RESULTAT = EVOL, INST = 1., NOM_CHAM = 'EPSI_NOEU_DEPL',   CRITERE = 'RELATIF',    PRECISION = 5.E-3,
 GROUP_NO = 'F',    MAILLE = 'M223',    NOM_CMP = 'EPXY',      VALE = 1.5E-4, REFERENCE='ANALYTIQUE'))

           )
TEST_RESU(RESU=(
    # CONTRAINTES             
           _F( RESULTAT = EVOL, INST = 1., NOM_CHAM = 'SIEF_NOEU_ELGA',   CRITERE = 'RELATIF',    PRECISION = 5.E-3,
               GROUP_NO = 'A',    MAILLE = 'M1',      NOM_CMP = 'SIXX',      VALE = 100., REFERENCE='ANALYTIQUE'),
           _F( RESULTAT = EVOL, INST = 1., NOM_CHAM = 'SIEF_NOEU_ELGA',   CRITERE = 'RELATIF',    PRECISION = 5.E-3,
 GROUP_NO = 'A',    MAILLE = 'M1',      NOM_CMP = 'SIYY',      VALE = -60., REFERENCE='ANALYTIQUE'),
           _F( RESULTAT = EVOL, INST = 1., NOM_CHAM = 'SIEF_NOEU_ELGA',   CRITERE = 'RELATIF',    PRECISION = 5.E-3,
 GROUP_NO = 'A',    MAILLE = 'M1',      NOM_CMP = 'SIZZ',      VALE = 20., REFERENCE='ANALYTIQUE'),
           _F(  RESULTAT = EVOL, INST = 1., NOM_CHAM = 'SIEF_NOEU_ELGA',  CRITERE = 'ABSOLU',     PRECISION = 3.E-1,
 GROUP_NO = 'A',    MAILLE = 'M1',      NOM_CMP = 'SIXY',      VALE = 0., REFERENCE='ANALYTIQUE'),

           _F( RESULTAT = EVOL, INST = 1., NOM_CHAM = 'SIEF_NOEU_ELGA',   CRITERE = 'RELATIF',    PRECISION = 5.E-3,
 GROUP_NO = 'F',    MAILLE = 'M223',    NOM_CMP = 'SIXX',      VALE = 20., REFERENCE='ANALYTIQUE'),
           _F( RESULTAT = EVOL, INST = 1., NOM_CHAM = 'SIEF_NOEU_ELGA',   CRITERE = 'RELATIF',    PRECISION = 5.E-3,
 GROUP_NO = 'F',    MAILLE = 'M223',    NOM_CMP = 'SIYY',      VALE = 20., REFERENCE='ANALYTIQUE'),
           _F(  RESULTAT = EVOL, INST = 1., NOM_CHAM = 'SIEF_NOEU_ELGA',  CRITERE = 'RELATIF',    PRECISION = 5.E-3,
 GROUP_NO = 'F',    MAILLE = 'M223',    NOM_CMP = 'SIZZ',      VALE = 20., REFERENCE='ANALYTIQUE'),
           _F( RESULTAT = EVOL, INST = 1., NOM_CHAM = 'SIEF_NOEU_ELGA',   CRITERE = 'RELATIF',    PRECISION = 5.E-3,
 GROUP_NO = 'F',    MAILLE = 'M223',    NOM_CMP = 'SIXY',      VALE = 20., REFERENCE='ANALYTIQUE'))

           )
TEST_RESU(RESU=(
    # DEFORMATIONS EQUIVALENTES
           _F( RESULTAT = EVOL, INST = 1., NOM_CHAM = 'EQUI_NOEU_EPSI',   CRITERE = 'RELATIF',    PRECISION = 5.E-3,
 GROUP_NO = 'A',    MAILLE = 'M1',      NOM_CMP = 'INVA_2',      VALE = 6.9282E-4, REFERENCE='ANALYTIQUE'),
           _F( RESULTAT = EVOL, INST = 1., NOM_CHAM = 'EQUI_NOEU_EPSI',   CRITERE = 'RELATIF',    PRECISION = 5.E-3,
 GROUP_NO = 'A',    MAILLE = 'M1',      NOM_CMP = 'PRIN_1',      VALE = -6.E-4, REFERENCE='ANALYTIQUE'),
            _F( RESULTAT = EVOL, INST = 1., NOM_CHAM = 'EQUI_NOEU_EPSI',   CRITERE = 'ABSOLU',    PRECISION = 1.E-5,
 GROUP_NO = 'A',    MAILLE = 'M1',      NOM_CMP = 'PRIN_2',      VALE = 0., REFERENCE='ANALYTIQUE'),
           _F( RESULTAT = EVOL, INST = 1., NOM_CHAM = 'EQUI_NOEU_EPSI',   CRITERE = 'RELATIF',    PRECISION = 5.E-3,
 GROUP_NO = 'A',    MAILLE = 'M1',      NOM_CMP = 'PRIN_3',      VALE = 6.E-4, REFERENCE='ANALYTIQUE'),
),)

TEST_RESU(RESU=(
    # CONTRAINTES EQUIVALENTES
           _F( RESULTAT = EVOL, INST = 1., NOM_CHAM = 'EQUI_NOEU_SIGM',   CRITERE = 'RELATIF',    PRECISION = 1.E-2,
 GROUP_NO = 'A',    MAILLE = 'M1',      NOM_CMP = 'VMIS',      VALE = 138.5641, REFERENCE='ANALYTIQUE'),
           _F( RESULTAT = EVOL, INST = 1., NOM_CHAM = 'EQUI_NOEU_SIGM',   CRITERE = 'RELATIF',    PRECISION = 1.E-2,
 GROUP_NO = 'A',    MAILLE = 'M1',      NOM_CMP = 'TRESCA',      VALE = 160., REFERENCE='ANALYTIQUE'),
           _F( RESULTAT = EVOL, INST = 1., NOM_CHAM = 'EQUI_NOEU_SIGM',   CRITERE = 'RELATIF',    PRECISION = 1.E-2,
 GROUP_NO = 'A',    MAILLE = 'M1',      NOM_CMP = 'PRIN_1',      VALE = -60., REFERENCE='ANALYTIQUE'),
            _F( RESULTAT = EVOL, INST = 1., NOM_CHAM = 'EQUI_NOEU_SIGM',   CRITERE = 'RELATIF',    PRECISION = 1.E-2,
 GROUP_NO = 'A',    MAILLE = 'M1',      NOM_CMP = 'PRIN_2',      VALE = 20., REFERENCE='ANALYTIQUE'),
           _F( RESULTAT = EVOL, INST = 1., NOM_CHAM = 'EQUI_NOEU_SIGM',   CRITERE = 'RELATIF',    PRECISION = 1.E-2,
 GROUP_NO = 'A',    MAILLE = 'M1',      NOM_CMP = 'PRIN_3',      VALE = 100., REFERENCE='ANALYTIQUE'),
           _F( RESULTAT = EVOL, INST = 1., NOM_CHAM = 'EQUI_NOEU_SIGM',   CRITERE = 'RELATIF',    PRECISION = 1.E-2,
 GROUP_NO = 'A',    MAILLE = 'M1',      NOM_CMP = 'VMIS_SG',      VALE = 138.5641, REFERENCE='ANALYTIQUE'),
),)

#-----------------------------------------------------------------
#  TEST IDENTIQUE EN IMPOSANT LA CONDITION TR(EPS)=0
#------------------------------------------------------------------
M = DEFI_GROUP(reuse = M,
               MAILLAGE=M,
               CREA_GROUP_NO =_F(NOM = 'MSOMMET',
                                 CRIT_NOEUD='SOMMET',
                                 GROUP_MA = 'VOLUME'))
CLIM2=AFFE_CHAR_MECA( MODELE=MO,
                   DDL_IMPO =(_F(  GROUP_NO = 'GRNM11',  DX = 0.),
                              _F(  GROUP_NO = 'MSOMMET', GONF=0.),),
                   FACE_IMPO= _F(  GROUP_MA = 'GRMA12',  DNOR = 0.),
                   )

EVOL2   = STAT_NON_LINE (
             MODELE= MO,
             CHAM_MATER= CM,
             EXCIT= (_F(CHARGE= CLIM2),
                     _F(CHARGE= CH,
                        FONC_MULT= RAMPE),),
             INCREMENT= _F(LIST_INST= L_INST1),
             COMP_INCR= _F(RELATION= 'ELAS' ),
             SOLVEUR=_F(RENUM='MD'),
             NEWTON= _F(
               REAC_ITER= 1 ),) ;

EVOL2 = CALC_ELEM (reuse=EVOL2,
              RESULTAT= EVOL2,
              OPTION= (
               'EPSI_ELNO_DEPL',
               'SIEF_ELNO_ELGA',
               'EQUI_ELNO_SIGM',
               'EQUI_ELNO_EPSI',
               'ERRE_ELEM_SIGM',
               'ERRE_ELNO_ELEM',
           ),   ) ;

EVOL2 = CALC_NO (reuse=EVOL2,
                RESULTAT= EVOL2,
                 OPTION  = (
               'EPSI_NOEU_DEPL',
               'SIEF_NOEU_ELGA',
               'EQUI_NOEU_EPSI',
               'EQUI_NOEU_SIGM',
                ),) ;
TEST_RESU(RESU=(
#     DEPLACEMENTS        
         _F(  RESULTAT = EVOL2, INST = 1., NOM_CHAM = 'DEPL',  CRITERE = 'ABSOLU',   PRECISION = 1.E-5,
         GROUP_NO = 'A',     NOM_CMP = 'DX',            VALE = 0., REFERENCE='ANALYTIQUE'),
         _F(  RESULTAT = EVOL2, INST = 1., NOM_CHAM = 'DEPL',  CRITERE = 'RELATIF',  PRECISION = 5.E-3,
         GROUP_NO = 'A',     NOM_CMP = 'DY',            VALE = 6.E-5, REFERENCE='ANALYTIQUE'),

        _F(  RESULTAT = EVOL2, INST = 1., NOM_CHAM = 'DEPL',  CRITERE = 'RELATIF',   PRECISION = 5.E-3,
         GROUP_NO = 'F',     NOM_CMP = 'DX',            VALE = -2.1213203E-5, REFERENCE='ANALYTIQUE'),
        _F(  RESULTAT = EVOL2, INST = 1., NOM_CHAM = 'DEPL',  CRITERE = 'RELATIF',   PRECISION = 5.E-3,
         GROUP_NO = 'F',     NOM_CMP = 'DY',            VALE =  2.1213203E-5, REFERENCE='ANALYTIQUE'),
),)
TEST_RESU(RESU=(
    # DEFORMATIONS             
           _F( RESULTAT = EVOL2, INST = 1., NOM_CHAM = 'EPSI_NOEU_DEPL',   CRITERE = 'RELATIF',    PRECISION = 5.E-3,
 GROUP_NO = 'A',    MAILLE = 'M1',      NOM_CMP = 'EPXX',      VALE = 6.0E-4, REFERENCE='ANALYTIQUE'),
           _F( RESULTAT = EVOL2, INST = 1., NOM_CHAM = 'EPSI_NOEU_DEPL',   CRITERE = 'RELATIF',    PRECISION = 5.E-3,
 GROUP_NO = 'A',    MAILLE = 'M1',      NOM_CMP = 'EPYY',      VALE = -6.0E-4, REFERENCE='ANALYTIQUE'),
           _F(  RESULTAT = EVOL2, INST = 1., NOM_CHAM = 'EPSI_NOEU_DEPL',  CRITERE = 'ABSOLU',     PRECISION = 1.E-5,
 GROUP_NO = 'A',    MAILLE = 'M1',      NOM_CMP = 'EPXY',      VALE = 0., REFERENCE='ANALYTIQUE'),


           _F( RESULTAT = EVOL2, INST = 1., NOM_CHAM = 'EPSI_NOEU_DEPL',   CRITERE = 'ABSOLU',    PRECISION = 1.E-5,
 GROUP_NO = 'F',    MAILLE = 'M223',    NOM_CMP = 'EPXX',      VALE = 0., REFERENCE='ANALYTIQUE'),
           _F( RESULTAT = EVOL2, INST = 1., NOM_CHAM = 'EPSI_NOEU_DEPL',   CRITERE = 'ABSOLU',    PRECISION = 1.E-5,
 GROUP_NO = 'F',    MAILLE = 'M223',    NOM_CMP = 'EPYY',      VALE = 0., REFERENCE='ANALYTIQUE'),
           _F( RESULTAT = EVOL2, INST = 1., NOM_CHAM = 'EPSI_NOEU_DEPL',   CRITERE = 'RELATIF',    PRECISION = 5.E-3,
 GROUP_NO = 'F',    MAILLE = 'M223',    NOM_CMP = 'EPXY',      VALE = 1.5E-4, REFERENCE='ANALYTIQUE'))

           )
TEST_RESU(RESU=(
    # CONTRAINTES             
           _F( RESULTAT = EVOL2, INST = 1., NOM_CHAM = 'SIEF_NOEU_ELGA',   CRITERE = 'RELATIF',    PRECISION = 5.E-3,
               GROUP_NO = 'A',    MAILLE = 'M1',      NOM_CMP = 'SIXX',      VALE = 100., REFERENCE='ANALYTIQUE'),
           _F( RESULTAT = EVOL2, INST = 1., NOM_CHAM = 'SIEF_NOEU_ELGA',   CRITERE = 'RELATIF',    PRECISION = 5.E-3,
 GROUP_NO = 'A',    MAILLE = 'M1',      NOM_CMP = 'SIYY',      VALE = -60., REFERENCE='ANALYTIQUE'),
           _F( RESULTAT = EVOL2, INST = 1., NOM_CHAM = 'SIEF_NOEU_ELGA',   CRITERE = 'RELATIF',    PRECISION = 5.E-3,
 GROUP_NO = 'A',    MAILLE = 'M1',      NOM_CMP = 'SIZZ',      VALE = 20., REFERENCE='ANALYTIQUE'),
           _F(  RESULTAT = EVOL2, INST = 1., NOM_CHAM = 'SIEF_NOEU_ELGA',  CRITERE = 'ABSOLU',     PRECISION = 3.E-1,
 GROUP_NO = 'A',    MAILLE = 'M1',      NOM_CMP = 'SIXY',      VALE = 0., REFERENCE='ANALYTIQUE'),

           _F( RESULTAT = EVOL2, INST = 1., NOM_CHAM = 'SIEF_NOEU_ELGA',   CRITERE = 'RELATIF',    PRECISION = 5.E-3,
 GROUP_NO = 'F',    MAILLE = 'M223',    NOM_CMP = 'SIXX',      VALE = 20., REFERENCE='ANALYTIQUE'),
           _F( RESULTAT = EVOL2, INST = 1., NOM_CHAM = 'SIEF_NOEU_ELGA',   CRITERE = 'RELATIF',    PRECISION = 5.E-3,
 GROUP_NO = 'F',    MAILLE = 'M223',    NOM_CMP = 'SIYY',      VALE = 20., REFERENCE='ANALYTIQUE'),
           _F(  RESULTAT = EVOL2, INST = 1., NOM_CHAM = 'SIEF_NOEU_ELGA',  CRITERE = 'RELATIF',    PRECISION = 5.E-3,
 GROUP_NO = 'F',    MAILLE = 'M223',    NOM_CMP = 'SIZZ',      VALE = 20., REFERENCE='ANALYTIQUE'),
           _F( RESULTAT = EVOL2, INST = 1., NOM_CHAM = 'SIEF_NOEU_ELGA',   CRITERE = 'RELATIF',    PRECISION = 5.E-3,
 GROUP_NO = 'F',    MAILLE = 'M223',    NOM_CMP = 'SIXY',      VALE = 20., REFERENCE='ANALYTIQUE'))

           )
TEST_RESU(RESU=(
    # DEFORMATIONS EQUIVALENTES
           _F( RESULTAT = EVOL2, INST = 1., NOM_CHAM = 'EQUI_NOEU_EPSI',   CRITERE = 'RELATIF',    PRECISION = 5.E-3,
 GROUP_NO = 'A',    MAILLE = 'M1',      NOM_CMP = 'INVA_2',      VALE = 6.9282E-4, REFERENCE='ANALYTIQUE'),
           _F( RESULTAT = EVOL2, INST = 1., NOM_CHAM = 'EQUI_NOEU_EPSI',   CRITERE = 'RELATIF',    PRECISION = 5.E-3,
 GROUP_NO = 'A',    MAILLE = 'M1',      NOM_CMP = 'PRIN_1',      VALE = -6.E-4, REFERENCE='ANALYTIQUE'),
            _F( RESULTAT = EVOL2, INST = 1., NOM_CHAM = 'EQUI_NOEU_EPSI',   CRITERE = 'ABSOLU',    PRECISION = 1.E-5,
 GROUP_NO = 'A',    MAILLE = 'M1',      NOM_CMP = 'PRIN_2',      VALE = 0., REFERENCE='ANALYTIQUE'),
           _F( RESULTAT = EVOL2, INST = 1., NOM_CHAM = 'EQUI_NOEU_EPSI',   CRITERE = 'RELATIF',    PRECISION = 5.E-3,
 GROUP_NO = 'A',    MAILLE = 'M1',      NOM_CMP = 'PRIN_3',      VALE = 6.E-4, REFERENCE='ANALYTIQUE'),
),)
TEST_RESU(RESU=(
    # CONTRAINTES EQUIVALENTES
           _F( RESULTAT = EVOL2, INST = 1., NOM_CHAM = 'EQUI_NOEU_SIGM',   CRITERE = 'RELATIF',    PRECISION = 1.E-2,
 GROUP_NO = 'A',    MAILLE = 'M1',      NOM_CMP = 'VMIS',      VALE = 138.5641, REFERENCE='ANALYTIQUE'),
           _F( RESULTAT = EVOL2, INST = 1., NOM_CHAM = 'EQUI_NOEU_SIGM',   CRITERE = 'RELATIF',    PRECISION = 1.E-2,
 GROUP_NO = 'A',    MAILLE = 'M1',      NOM_CMP = 'TRESCA',      VALE = 160., REFERENCE='ANALYTIQUE'),
           _F( RESULTAT = EVOL2, INST = 1., NOM_CHAM = 'EQUI_NOEU_SIGM',   CRITERE = 'RELATIF',    PRECISION = 1.E-2,
 GROUP_NO = 'A',    MAILLE = 'M1',      NOM_CMP = 'PRIN_1',      VALE = -60., REFERENCE='ANALYTIQUE'),
            _F( RESULTAT = EVOL2, INST = 1., NOM_CHAM = 'EQUI_NOEU_SIGM',   CRITERE = 'RELATIF',    PRECISION = 1.E-2,
 GROUP_NO = 'A',    MAILLE = 'M1',      NOM_CMP = 'PRIN_2',      VALE = 20., REFERENCE='ANALYTIQUE'),
           _F( RESULTAT = EVOL2, INST = 1., NOM_CHAM = 'EQUI_NOEU_SIGM',   CRITERE = 'RELATIF',    PRECISION = 1.E-2,
 GROUP_NO = 'A',    MAILLE = 'M1',      NOM_CMP = 'PRIN_3',      VALE = 100., REFERENCE='ANALYTIQUE'),
           _F( RESULTAT = EVOL2, INST = 1., NOM_CHAM = 'EQUI_NOEU_SIGM',   CRITERE = 'RELATIF',    PRECISION = 1.E-2,
 GROUP_NO = 'A',    MAILLE = 'M1',      NOM_CMP = 'VMIS_SG',      VALE = 138.5641, REFERENCE='ANALYTIQUE'),
),)

#
#  TEST SUR L'ESTIMATEUR D'ERREUR EN RESIDU

TEST_RESU(RESU=(             
           _F( RESULTAT = EVOL2,
               INST = 1.,  
               NOM_CHAM = 'ERRE_ELEM_SIGM',   
               CRITERE = 'RELATIF',    
               PRECISION = 0.0001,
               POINT = 1,
               MAILLE='M1',    
               NOM_CMP = 'NUEST',      
               VALE = 1.6503017831402E-01, 
               REFERENCE = 'NON_REGRESSION',VERSION = '8.2.15'),
             ),
            );

TEST_RESU(RESU=(             
           _F( RESULTAT = EVOL2,
               INST = 1.,  
               NOM_CHAM = 'ERRE_ELNO_ELEM',   
               CRITERE = 'RELATIF',    
               PRECISION = 0.0001,
               GROUP_NO= 'A',
               MAILLE='M1',    
               NOM_CMP = 'ERREST',      
               VALE = 8.1160305543209E-04, 
               REFERENCE = 'NON_REGRESSION',VERSION = '8.2.15'),
             ),
            );
                
FIN()
 
