# ======================================================================
# COPYRIGHT (C) 1991 - 2016  EDF R&D                  WWW.CODE-ASTER.ORG
# THIS PROGRAM IS FREE SOFTWARE; YOU CAN REDISTRIBUTE IT AND/OR MODIFY
# IT UNDER THE TERMS OF THE GNU GENERAL PUBLIC LICENSE AS PUBLISHED BY
# THE FREE SOFTWARE FOUNDATION; EITHER VERSION 2 OF THE LICENSE, OR
# (AT YOUR OPTION) ANY LATER VERSION.
#
# THIS PROGRAM IS DISTRIBUTED IN THE HOPE THAT IT WILL BE USEFUL, BUT
# WITHOUT ANY WARRANTY; WITHOUT EVEN THE IMPLIED WARRANTY OF
# MERCHANTABILITY OR FITNESS FOR A PARTICULAR PURPOSE. SEE THE GNU
# GENERAL PUBLIC LICENSE FOR MORE DETAILS.
#
# YOU SHOULD HAVE RECEIVED A COPY OF THE GNU GENERAL PUBLIC LICENSE
# ALONG WITH THIS PROGRAM; IF NOT, WRITE TO EDF R&D CODE_ASTER,
#    1 AVENUE DU GENERAL DE GAULLE, 92141 CLAMART CEDEX, FRANCE.
# ======================================================================
#CAS_TEST__: SSLV04C
#
# ----------------------------------------------------------------------
# SSLV04 C                  COMMANDES
# CYLINDRE CREUX EN CONTRAINTES PLANES
#
# MODELISATION : ELEMENTS MECANIQUE 3D
# MAILLAGE     : GIBI > ASTER
# ----------------------------------------------------------------------
# GROUPES DE NOEUDS ET MAILLES: A B C D E F
#             BORDAB=AB     FACEEF=FE     FACEAE=AE
# ----------------------------------------------------------------------
#

DEBUT(CODE=_F(NIV_PUB_WEB='INTERNET'),DEBUG=_F(SDVERI='OUI'))

M=LIRE_MAILLAGE(FORMAT='MED',)

DEFI_GROUP(reuse=M,       MAILLAGE=M,
                  CREA_GROUP_NO=_F( NOM = 'DIRI', GROUP_MA = 'DIRI'))

MO=AFFE_MODELE(            MAILLAGE=M,
                                   
                                  AFFE=_F(  TOUT = 'OUI',
                                         PHENOMENE = 'MECANIQUE',
                                         MODELISATION = '3D'))

MA=DEFI_MATERIAU(            ELAS=_F(  E = 200000.,
                                         NU = 0.3,
                                         ALPHA = 0.) )

CM=AFFE_MATERIAU(        MAILLAGE=M,
                                  AFFE=_F(  TOUT = 'OUI',
                                         MATER = MA))

CH=AFFE_CHAR_MECA(         MODELE=MO,DDL_IMPO=(
                              _F(  GROUP_NO = 'DIRI',  DY = 0.),
                              _F(  GROUP_NO = 'F',     DZ = 0.)),
                             FACE_IMPO=_F(  GROUP_MA = 'DNOR',  DNOR = 0.),
                              PRES_REP=_F(  GROUP_MA = 'PRES',  PRES = 60.))


nor_DNOR = CREA_CHAMP( TYPE_CHAM = 'NOEU_GEOM_R',
                      OPERATION = 'NORMALE',
                      MODELE    = MO,
                      GROUP_MA  = 'DNOR'  );


TEST_RESU(CHAM_NO=(_F(REFERENCE='ANALYTIQUE',
                      NOM_CMP='X',
                      GROUP_NO='E',
                      CHAM_GD=nor_DNOR,
                      VALE_CALC=-0.707106781,
                      VALE_REFE=-0.70699999999999996,),
                   _F(REFERENCE='ANALYTIQUE',
                      NOM_CMP='Y',
                      GROUP_NO='E',
                      CHAM_GD=nor_DNOR,
                      VALE_CALC=0.707106781,
                      VALE_REFE=0.70699999999999996,),
                   _F(REFERENCE='ANALYTIQUE',
                      NOM_CMP='X',
                      GROUP_NO='F',
                      CHAM_GD=nor_DNOR,
                      VALE_CALC=-0.707106781,
                      VALE_REFE=-0.70699999999999996,),
                   _F(REFERENCE='ANALYTIQUE',
                      NOM_CMP='Y',
                      GROUP_NO='F',
                      CHAM_GD=nor_DNOR,
                      VALE_CALC=0.707106781,
                      VALE_REFE=0.70699999999999996,),
                   ),
          )

nor_PRES = CREA_CHAMP( TYPE_CHAM = 'NOEU_GEOM_R',
                      OPERATION = 'NORMALE',
                      MODELE    = MO,
                      GROUP_MA  = 'PRES'  );


TEST_RESU(CHAM_NO=(_F(REFERENCE='ANALYTIQUE',
                      NOM_CMP='X',
                      GROUP_NO='A',
                      CHAM_GD=nor_PRES,
                      VALE_CALC=-0.999807242,
                      VALE_REFE=-1.0,),
                   _F(CRITERE='ABSOLU',
                      NOM_CMP='Y',
                      GROUP_NO='A',
                      PRECISION=0.029999999999999999,
                      CHAM_GD=nor_PRES,
                      VALE_CALC=-0.019633613,
                      VALE_REFE=0.0,
                      REFERENCE='NON_DEFINI',),
                   _F(REFERENCE='ANALYTIQUE',
                      NOM_CMP='X',
                      GROUP_NO='E',
                      PRECISION=0.021999999999999999,
                      CHAM_GD=nor_PRES,
                      VALE_CALC=-0.720853108,
                      VALE_REFE=-0.70699999999999996,),
                   _F(REFERENCE='ANALYTIQUE',
                      NOM_CMP='Y',
                      GROUP_NO='E',
                      PRECISION=0.021999999999999999,
                      CHAM_GD=nor_PRES,
                      VALE_CALC=-0.693087871,
                      VALE_REFE=-0.70699999999999996,),
                   ),
          )

RESU=MECA_STATIQUE(         MODELE=MO,    CHAM_MATER=CM,
                          EXCIT=_F(  CHARGE = CH),
                      )

CALC_CHAMP(reuse=RESU,RESULTAT=RESU,CONTRAINTE=('SIGM_ELNO'),DEFORMATION=('EPSI_ELNO'))


CALC_CHAMP( reuse=RESU,                      RESULTAT=RESU,
                     DEFORMATION='EPSI_NOEU',CONTRAINTE='SIGM_NOEU')

TEST_RESU(RESU=(_F(NUME_ORDRE=1,
                   GROUP_NO='A',
                   REFERENCE='ANALYTIQUE',
                   RESULTAT=RESU,
                   NOM_CHAM='DEPL',
                   NOM_CMP='DX',
                   VALE_CALC= 5.89013255E-05,
                   VALE_REFE=5.8999999999999998E-05,
                   CRITERE='RELATIF',
                   PRECISION=1.E-2,),
                _F(NUME_ORDRE=1,
                   GROUP_NO='A',
                   REFERENCE='ANALYTIQUE',
                   RESULTAT=RESU,
                   NOM_CHAM='DEPL',
                   NOM_CMP='DY',
                   VALE_CALC=-5.9557004104E-23,
                   VALE_REFE=0.0,
                   CRITERE='ABSOLU',
                   PRECISION=1.E-10,),
                _F(NUME_ORDRE=1,
                   GROUP_NO='B',
                   REFERENCE='ANALYTIQUE',
                   RESULTAT=RESU,
                   NOM_CHAM='DEPL',
                   NOM_CMP='DX',
                   VALE_CALC= 3.98783131E-05,
                   VALE_REFE=4.0000000000000003E-05,
                   CRITERE='RELATIF',
                   PRECISION=1.E-2,),
                _F(NUME_ORDRE=1,
                   GROUP_NO='B',
                   REFERENCE='ANALYTIQUE',
                   RESULTAT=RESU,
                   NOM_CHAM='DEPL',
                   NOM_CMP='DY',
                   VALE_CALC= 7.1137532680E-22,
                   VALE_REFE=0.0,
                   CRITERE='ABSOLU',
                   PRECISION=1.E-10,),
                _F(NUME_ORDRE=1,
                   GROUP_NO='D',
                   REFERENCE='ANALYTIQUE',
                   RESULTAT=RESU,
                   NOM_CHAM='DEPL',
                   NOM_CMP='DX',
                   VALE_CALC= 3.69319003E-05,
                   VALE_REFE=3.6955200000000002E-05,
                   CRITERE='RELATIF',
                   PRECISION=1.E-2,),
                _F(NUME_ORDRE=1,
                   GROUP_NO='D',
                   REFERENCE='ANALYTIQUE',
                   RESULTAT=RESU,
                   NOM_CHAM='DEPL',
                   NOM_CMP='DY',
                   VALE_CALC= 1.52901717E-05,
                   VALE_REFE=1.5307300000000002E-05,
                   CRITERE='RELATIF',
                   PRECISION=1.E-2,),
                _F(NUME_ORDRE=1,
                   GROUP_NO='E',
                   REFERENCE='ANALYTIQUE',
                   RESULTAT=RESU,
                   NOM_CHAM='DEPL',
                   NOM_CMP='DX',
                   VALE_CALC= 4.16546014E-05,
                   VALE_REFE=4.1719299999999999E-05,
                   CRITERE='RELATIF',
                   PRECISION=1.E-2,),
                _F(NUME_ORDRE=1,
                   GROUP_NO='E',
                   REFERENCE='ANALYTIQUE',
                   RESULTAT=RESU,
                   NOM_CHAM='DEPL',
                   NOM_CMP='DY',
                   VALE_CALC= 4.16546014E-05,
                   VALE_REFE=4.1719299999999999E-05,
                   CRITERE='RELATIF',
                   PRECISION=1.E-2,),
                _F(NUME_ORDRE=1,
                   GROUP_NO='F',
                   REFERENCE='ANALYTIQUE',
                   RESULTAT=RESU,
                   NOM_CHAM='DEPL',
                   NOM_CMP='DX',
                   VALE_CALC= 2.82513599E-05,
                   VALE_REFE=2.82843E-05,
                   CRITERE='RELATIF',
                   PRECISION=1.E-2,),
                _F(NUME_ORDRE=1,
                   GROUP_NO='F',
                   REFERENCE='ANALYTIQUE',
                   RESULTAT=RESU,
                   NOM_CHAM='DEPL',
                   NOM_CMP='DY',
                   VALE_CALC= 2.82513599E-05,
                   VALE_REFE=2.82843E-05,
                   CRITERE='RELATIF',
                   PRECISION=1.E-2,),
                ),
          )

#-----------------------------------------------------------------

TEST_RESU(RESU=(_F(NUME_ORDRE=1,
                   GROUP_NO='A',
                   REFERENCE='ANALYTIQUE',
                   RESULTAT=RESU,
                   NOM_CHAM='EPSI_NOEU',
                   NOM_CMP='EPXX',
                   VALE_CALC=-4.33036589E-04,
                   VALE_REFE=-4.4999999999999999E-4,
                   CRITERE='RELATIF',
                   PRECISION=0.050000000000000003,),
                _F(NUME_ORDRE=1,
                   GROUP_NO='A',
                   REFERENCE='ANALYTIQUE',
                   RESULTAT=RESU,
                   NOM_CHAM='EPSI_NOEU',
                   NOM_CMP='EPYY',
                   VALE_CALC= 5.75113710E-04,
                   VALE_REFE=5.9000000000000003E-4,
                   CRITERE='RELATIF',
                   PRECISION=0.050000000000000003,),
                _F(NUME_ORDRE=1,
                   GROUP_NO='A',
                   REFERENCE='ANALYTIQUE',
                   RESULTAT=RESU,
                   NOM_CHAM='EPSI_NOEU',
                   NOM_CMP='EPZZ',
                   VALE_CALC=-6.06792779E-05,
                   VALE_REFE=0.0,
                   CRITERE='ABSOLU',
                   PRECISION=1.E-4,),
                _F(NUME_ORDRE=1,
                   GROUP_NO='A',
                   REFERENCE='ANALYTIQUE',
                   RESULTAT=RESU,
                   NOM_CHAM='EPSI_NOEU',
                   NOM_CMP='EPXY',
                   VALE_CALC=-1.72825746E-05,
                   VALE_REFE=0.0,
                   CRITERE='ABSOLU',
                   PRECISION=1.E-4,),
                ),
          )

#-----------------------------------------------------------------

TEST_RESU(RESU=(_F(NUME_ORDRE=1,
                   GROUP_NO='B',
                   REFERENCE='ANALYTIQUE',
                   RESULTAT=RESU,
                   NOM_CHAM='EPSI_NOEU',
                   NOM_CMP='EPXX',
                   VALE_CALC=-6.89730903E-05,
                   VALE_REFE=-6.0000000000000002E-05,
                   CRITERE='RELATIF',
                   PRECISION=0.14999999999999999,),
                _F(NUME_ORDRE=1,
                   GROUP_NO='B',
                   REFERENCE='ANALYTIQUE',
                   RESULTAT=RESU,
                   NOM_CHAM='EPSI_NOEU',
                   NOM_CMP='EPYY',
                   VALE_CALC= 2.07364622E-04,
                   VALE_REFE=2.0000000000000001E-4,
                   CRITERE='RELATIF',
                   PRECISION=0.050000000000000003,),
                _F(NUME_ORDRE=1,
                   GROUP_NO='B',
                   REFERENCE='ANALYTIQUE',
                   RESULTAT=RESU,
                   NOM_CHAM='EPSI_NOEU',
                   NOM_CMP='EPZZ',
                   VALE_CALC=-5.96841739E-05,
                   VALE_REFE=0.0,
                   CRITERE='ABSOLU',
                   PRECISION=1.E-4,),
                _F(NUME_ORDRE=1,
                   GROUP_NO='B',
                   REFERENCE='ANALYTIQUE',
                   RESULTAT=RESU,
                   NOM_CHAM='EPSI_NOEU',
                   NOM_CMP='EPXY',
                   VALE_CALC=-5.53368519E-06,
                   VALE_REFE=0.0,
                   CRITERE='ABSOLU',
                   PRECISION=1.E-4,),
                ),
          )

#-----------------------------------------------------------------

TEST_RESU(RESU=(_F(NUME_ORDRE=1,
                   GROUP_NO='E',
                   REFERENCE='ANALYTIQUE',
                   RESULTAT=RESU,
                   NOM_CHAM='EPSI_NOEU',
                   NOM_CMP='EPXX',
                   VALE_CALC= 5.72604486E-05,
                   VALE_REFE=6.9999999999999994E-05,
                   CRITERE='RELATIF',
                   PRECISION=0.20000000000000001,),
                _F(NUME_ORDRE=1,
                   GROUP_NO='E',
                   REFERENCE='ANALYTIQUE',
                   RESULTAT=RESU,
                   NOM_CHAM='EPSI_NOEU',
                   NOM_CMP='EPYY',
                   VALE_CALC= 8.31518781E-05,
                   VALE_REFE=6.9999999999999994E-05,
                   CRITERE='RELATIF',
                   PRECISION=0.20000000000000001,),
                _F(NUME_ORDRE=1,
                   GROUP_NO='E',
                   REFERENCE='ANALYTIQUE',
                   RESULTAT=RESU,
                   NOM_CHAM='EPSI_NOEU',
                   NOM_CMP='EPZZ',
                   VALE_CALC=-6.15431081E-05,
                   VALE_REFE=0.0,
                   CRITERE='ABSOLU',
                   PRECISION=1.E-4,),
                _F(NUME_ORDRE=1,
                   GROUP_NO='E',
                   REFERENCE='ANALYTIQUE',
                   RESULTAT=RESU,
                   NOM_CHAM='EPSI_NOEU',
                   NOM_CMP='EPXY',
                   VALE_CALC=-5.04983167E-04,
                   VALE_REFE=-5.1999999999999995E-4,
                   CRITERE='RELATIF',
                   PRECISION=0.029999999999999999,),
                ),
          )

#-----------------------------------------------------------------

TEST_RESU(RESU=(_F(NUME_ORDRE=1,
                   GROUP_NO='F',
                   REFERENCE='ANALYTIQUE',
                   RESULTAT=RESU,
                   NOM_CHAM='EPSI_NOEU',
                   NOM_CMP='EPXX',
                   VALE_CALC= 6.29618551E-05,
                   VALE_REFE=6.9999999999999994E-05,
                   CRITERE='RELATIF',
                   PRECISION=0.11,),
                _F(NUME_ORDRE=1,
                   GROUP_NO='F',
                   REFERENCE='ANALYTIQUE',
                   RESULTAT=RESU,
                   NOM_CHAM='EPSI_NOEU',
                   NOM_CMP='EPYY',
                   VALE_CALC= 7.23431072E-05,
                   VALE_REFE=6.9999999999999994E-05,
                   CRITERE='RELATIF',
                   PRECISION=0.050000000000000003,),
                _F(NUME_ORDRE=1,
                   GROUP_NO='F',
                   REFERENCE='ANALYTIQUE',
                   RESULTAT=RESU,
                   NOM_CHAM='EPSI_NOEU',
                   NOM_CMP='EPZZ',
                   VALE_CALC=-5.94028353E-05,
                   VALE_REFE=0.0,
                   CRITERE='ABSOLU',
                   PRECISION=1.E-4,),
                _F(NUME_ORDRE=1,
                   GROUP_NO='F',
                   REFERENCE='ANALYTIQUE',
                   RESULTAT=RESU,
                   NOM_CHAM='EPSI_NOEU',
                   NOM_CMP='EPXY',
                   VALE_CALC=-1.31059850E-04,
                   VALE_REFE=-1.2999999999999999E-4,
                   CRITERE='RELATIF',
                   PRECISION=1.E-2,),
                ),
          )

#-----------------------------------------------------------------

TEST_RESU(RESU=(_F(NUME_ORDRE=1,
                   GROUP_NO='A',
                   REFERENCE='ANALYTIQUE',
                   RESULTAT=RESU,
                   NOM_CHAM='SIGM_NOEU',
                   NOM_CMP='SIXX',
                   VALE_CALC=-57.228954778,
                   VALE_REFE=-60.0,
                   CRITERE='RELATIF',
                   PRECISION=0.050000000000000003,),
                _F(NUME_ORDRE=1,
                   GROUP_NO='A',
                   REFERENCE='ANALYTIQUE',
                   RESULTAT=RESU,
                   NOM_CHAM='SIGM_NOEU',
                   NOM_CMP='SIYY',
                   VALE_CALC=97.871091273,
                   VALE_REFE=100.0,
                   CRITERE='RELATIF',
                   PRECISION=0.050000000000000003,),
                _F(NUME_ORDRE=1,
                   GROUP_NO='A',
                   REFERENCE='ANALYTIQUE',
                   RESULTAT=RESU,
                   NOM_CHAM='SIGM_NOEU',
                   NOM_CMP='SIZZ',
                   VALE_CALC=0.056785362,
                   VALE_REFE=0.0,
                   CRITERE='ABSOLU',
                   PRECISION=0.10000000000000001,),
                _F(NUME_ORDRE=1,
                   GROUP_NO='A',
                   REFERENCE='ANALYTIQUE',
                   RESULTAT=RESU,
                   NOM_CHAM='SIGM_NOEU',
                   NOM_CMP='SIXY',
                   VALE_CALC=-2.658857636,
                   VALE_REFE=0.0,
                   CRITERE='ABSOLU',
                   PRECISION=3.0,),
                ),
          )

#-----------------------------------------------------------------

TEST_RESU(RESU=(_F(NUME_ORDRE=1,
                   GROUP_NO='B',
                   REFERENCE='ANALYTIQUE',
                   RESULTAT=RESU,
                   NOM_CHAM='SIGM_NOEU',
                   NOM_CMP='SIXX',
                   VALE_CALC=-1.529626510,
                   VALE_REFE=0.0,
                   CRITERE='ABSOLU',
                   PRECISION=2.0,),
                _F(NUME_ORDRE=1,
                   GROUP_NO='B',
                   REFERENCE='ANALYTIQUE',
                   RESULTAT=RESU,
                   NOM_CHAM='SIGM_NOEU',
                   NOM_CMP='SIYY',
                   VALE_CALC=40.983867624,
                   VALE_REFE=40.0,
                   CRITERE='RELATIF',
                   PRECISION=0.050000000000000003,),
                _F(NUME_ORDRE=1,
                   GROUP_NO='B',
                   REFERENCE='ANALYTIQUE',
                   RESULTAT=RESU,
                   NOM_CHAM='SIGM_NOEU',
                   NOM_CMP='SIZZ',
                   VALE_CALC=-0.100562445,
                   VALE_REFE=0.0,
                   CRITERE='ABSOLU',
                   PRECISION=1.0,),
                _F(NUME_ORDRE=1,
                   GROUP_NO='B',
                   REFERENCE='ANALYTIQUE',
                   RESULTAT=RESU,
                   NOM_CHAM='SIGM_NOEU',
                   NOM_CMP='SIXY',
                   VALE_CALC=-0.851336183,
                   VALE_REFE=0.0,
                   CRITERE='ABSOLU',
                   PRECISION=1.0,),
                ),
          )

#-----------------------------------------------------------------

TEST_RESU(RESU=(_F(NUME_ORDRE=1,
                   GROUP_NO='E',
                   REFERENCE='ANALYTIQUE',
                   RESULTAT=RESU,
                   NOM_CHAM='SIGM_NOEU',
                   NOM_CMP='SIXX',
                   VALE_CALC=17.909594236,
                   VALE_REFE=20.0,
                   CRITERE='RELATIF',
                   PRECISION=0.11,),
                _F(NUME_ORDRE=1,
                   GROUP_NO='E',
                   REFERENCE='ANALYTIQUE',
                   RESULTAT=RESU,
                   NOM_CHAM='SIGM_NOEU',
                   NOM_CMP='SIYY',
                   VALE_CALC=21.892891078,
                   VALE_REFE=20.0,
                   CRITERE='RELATIF',
                   PRECISION=0.10000000000000001,),
                _F(NUME_ORDRE=1,
                   GROUP_NO='E',
                   REFERENCE='ANALYTIQUE',
                   RESULTAT=RESU,
                   NOM_CHAM='SIGM_NOEU',
                   NOM_CMP='SIZZ',
                   VALE_CALC=-0.367876021,
                   VALE_REFE=0.0,
                   CRITERE='ABSOLU',
                   PRECISION=0.5,),
                _F(NUME_ORDRE=1,
                   GROUP_NO='E',
                   REFERENCE='ANALYTIQUE',
                   RESULTAT=RESU,
                   NOM_CHAM='SIGM_NOEU',
                   NOM_CMP='SIXY',
                   VALE_CALC=-77.689717967,
                   VALE_REFE=-80.0,
                   CRITERE='RELATIF',
                   PRECISION=0.050000000000000003,),
                ),
          )

#-----------------------------------------------------------------

TEST_RESU(RESU=(_F(NUME_ORDRE=1,
                   GROUP_NO='F',
                   REFERENCE='ANALYTIQUE',
                   RESULTAT=RESU,
                   NOM_CHAM='SIGM_NOEU',
                   NOM_CMP='SIXX',
                   VALE_CALC=18.444376982,
                   VALE_REFE=20.0,
                   CRITERE='RELATIF',
                   PRECISION=0.10000000000000001,),
                _F(NUME_ORDRE=1,
                   GROUP_NO='F',
                   REFERENCE='ANALYTIQUE',
                   RESULTAT=RESU,
                   NOM_CHAM='SIGM_NOEU',
                   NOM_CMP='SIYY',
                   VALE_CALC=19.887646543,
                   VALE_REFE=20.0,
                   CRITERE='RELATIF',
                   PRECISION=1.E-2,),
                _F(NUME_ORDRE=1,
                   GROUP_NO='F',
                   REFERENCE='ANALYTIQUE',
                   RESULTAT=RESU,
                   NOM_CHAM='SIGM_NOEU',
                   NOM_CMP='SIZZ',
                   VALE_CALC=-0.380959994,
                   VALE_REFE=0.0,
                   CRITERE='ABSOLU',
                   PRECISION=0.40000000000000002,),
                _F(NUME_ORDRE=1,
                   GROUP_NO='F',
                   REFERENCE='ANALYTIQUE',
                   RESULTAT=RESU,
                   NOM_CHAM='SIGM_NOEU',
                   NOM_CMP='SIXY',
                   VALE_CALC=-20.163053917,
                   VALE_REFE=-20.0,
                   CRITERE='RELATIF',
                   PRECISION=1.E-2,),
                ),
          )

#----------------------------------------------------------------
#

CALC_CHAMP(reuse=RESU,RESULTAT=RESU,GROUP_MA='PRES',CONTRAINTE=('SIRO_ELEM'))




# TEST DU CHAMP 'SIRO_ELEM'
# MAILLE M5444 PRES DU POINT A

TEST_RESU(RESU=(_F(NUME_ORDRE=1,
                   REFERENCE='ANALYTIQUE',
                   POINT=1,
                   RESULTAT=RESU,
                   NOM_CHAM='SIRO_ELEM',
                   NOM_CMP='SIG_NX',
                   VALE_CALC=55.731273210,
                   VALE_REFE=60.0,
                   CRITERE='RELATIF',
                   PRECISION=0.10000000000000001,
                   MAILLE='M5444',),
                _F(NUME_ORDRE=1,
                   REFERENCE='ANALYTIQUE',
                   POINT=1,
                   RESULTAT=RESU,
                   NOM_CHAM='SIRO_ELEM',
                   NOM_CMP='SIG_NY',
                   VALE_CALC=1.094417205,
                   VALE_REFE=0.0,
                   CRITERE='ABSOLU',
                   PRECISION=1.5,
                   MAILLE='M5444',),
                _F(NUME_ORDRE=1,
                   REFERENCE='ANALYTIQUE',
                   POINT=1,
                   RESULTAT=RESU,
                   NOM_CHAM='SIRO_ELEM',
                   NOM_CMP='SIG_NZ',
                   VALE_CALC= 0.00000000E+00,
                   VALE_REFE=0.0,
                   CRITERE='ABSOLU',
                   PRECISION=1.E-2,
                   MAILLE='M5444',),
                ),
          )

# TEST DU CHAMP 'SIRO_ELEM'

TEST_RESU(RESU=(_F(NUME_ORDRE=1,
                   REFERENCE='ANALYTIQUE',
                   POINT=1,
                   RESULTAT=RESU,
                   NOM_CHAM='SIRO_ELEM',
                   NOM_CMP='SIG_TX',
                   VALE_CALC=0.012911073090429,
                   VALE_REFE=0.0,
                   CRITERE='ABSOLU',
                   PRECISION=1.0,
                   MAILLE='M5444',),
                _F(NUME_ORDRE=1,
                   REFERENCE='ANALYTIQUE',
                   POINT=1,
                   RESULTAT=RESU,
                   NOM_CHAM='SIRO_ELEM',
                   NOM_CMP='SIG_TY',
                   VALE_CALC=-0.65747371178721,
                   VALE_REFE=0.0,
                   CRITERE='ABSOLU',
                   PRECISION=1.0,
                   MAILLE='M5444',),
                _F(NUME_ORDRE=1,
                   REFERENCE='ANALYTIQUE',
                   POINT=1,
                   RESULTAT=RESU,
                   NOM_CHAM='SIRO_ELEM',
                   NOM_CMP='SIG_TZ',
                   VALE_CALC=0.31854179017979,
                   VALE_REFE=0.0,
                   CRITERE='ABSOLU',
                   PRECISION=1.0,
                   MAILLE='M5444',),
                ),
          )

# TEST DU CHAMP 'SIRO_ELEM'

TEST_RESU(RESU=(_F(NUME_ORDRE=1,
                   REFERENCE='ANALYTIQUE',
                   POINT=1,
                   RESULTAT=RESU,
                   NOM_CHAM='SIRO_ELEM',
                   NOM_CMP='SIG_T1X',
                   VALE_CALC=-4.97994178E-05,
                   VALE_REFE=0.0,
                   CRITERE='ABSOLU',
                   PRECISION=1.E-2,
                   MAILLE='M5444',),
                _F(NUME_ORDRE=1,
                   REFERENCE='ANALYTIQUE',
                   POINT=1,
                   RESULTAT=RESU,
                   NOM_CHAM='SIRO_ELEM',
                   NOM_CMP='SIG_T1Y',
                   VALE_CALC= 2.53594785E-03,
                   VALE_REFE=0.0,
                   CRITERE='ABSOLU',
                   PRECISION=1.E-2,
                   MAILLE='M5444',),
                _F(NUME_ORDRE=1,
                   REFERENCE='ANALYTIQUE',
                   POINT=1,
                   RESULTAT=RESU,
                   NOM_CHAM='SIRO_ELEM',
                   NOM_CMP='SIG_T1Z',
                   VALE_CALC=-1.479657727,
                   VALE_REFE=0.0,
                   CRITERE='ABSOLU',
                   PRECISION=2.0,
                   MAILLE='M5444',),
                ),
          )

# TEST DU CHAMP 'SIRO_ELEM'

TEST_RESU(RESU=(_F(NUME_ORDRE=1,
                   REFERENCE='ANALYTIQUE',
                   POINT=1,
                   RESULTAT=RESU,
                   NOM_CHAM='SIRO_ELEM',
                   NOM_CMP='SIG_T2X',
                   VALE_CALC=1.997871834,
                   VALE_REFE=0.0,
                   CRITERE='ABSOLU',
                   PRECISION=2.5,
                   MAILLE='M5444',),
                _F(NUME_ORDRE=1,
                   REFERENCE='ANALYTIQUE',
                   POINT=1,
                   RESULTAT=RESU,
                   NOM_CHAM='SIRO_ELEM',
                   NOM_CMP='SIG_T2Y',
                   VALE_CALC=-101.738112782,
                   VALE_REFE=-100.0,
                   CRITERE='RELATIF',
                   PRECISION=0.02,
                   MAILLE='M5444',),
                _F(NUME_ORDRE=1,
                   REFERENCE='ANALYTIQUE',
                   POINT=1,
                   RESULTAT=RESU,
                   NOM_CHAM='SIRO_ELEM',
                   NOM_CMP='SIG_T2Z',
                   VALE_CALC=-0.174433612,
                   VALE_REFE=0.0,
                   CRITERE='ABSOLU',
                   PRECISION=0.20000000000000001,
                   MAILLE='M5444',),
                ),
          )

# MAILLE M5405 PRES DU POINT E

TEST_RESU(RESU=(_F(NUME_ORDRE=1,
                   REFERENCE='ANALYTIQUE',
                   POINT=1,
                   RESULTAT=RESU,
                   NOM_CHAM='SIRO_ELEM',
                   NOM_CMP='SIG_NX',
                   VALE_CALC=40.324063868,
                   VALE_REFE=42.426000000000002,
                   CRITERE='RELATIF',
                   PRECISION=0.059999999999999998,
                   MAILLE='M5405',),
                _F(NUME_ORDRE=1,
                   REFERENCE='ANALYTIQUE',
                   POINT=1,
                   RESULTAT=RESU,
                   NOM_CHAM='SIRO_ELEM',
                   NOM_CMP='SIG_NY',
                   VALE_CALC=38.770894200,
                   VALE_REFE=42.426000000000002,
                   CRITERE='RELATIF',
                   PRECISION=0.089999999999999997,
                   MAILLE='M5405',),
                _F(NUME_ORDRE=1,
                   REFERENCE='ANALYTIQUE',
                   POINT=1,
                   RESULTAT=RESU,
                   NOM_CHAM='SIRO_ELEM',
                   NOM_CMP='SIG_NZ',
                   VALE_CALC= 0.00000000E+00,
                   VALE_REFE=0.0,
                   CRITERE='ABSOLU',
                   PRECISION=1.E-2,
                   MAILLE='M5405',),
                ),
          )

# TEST DU CHAMP 'SIRO_ELEM'

TEST_RESU(RESU=(_F(NUME_ORDRE=1,
                   REFERENCE='ANALYTIQUE',
                   POINT=1,
                   RESULTAT=RESU,
                   NOM_CHAM='SIRO_ELEM',
                   NOM_CMP='SIG_TX',
                   VALE_CALC=0.69012085298273,
                   VALE_REFE=0.0,
                   CRITERE='ABSOLU',
                   PRECISION=1.0,
                   MAILLE='M5405',),
                _F(NUME_ORDRE=1,
                   REFERENCE='ANALYTIQUE',
                   POINT=1,
                   RESULTAT=RESU,
                   NOM_CHAM='SIRO_ELEM',
                   NOM_CMP='SIG_TY',
                   VALE_CALC=-0.71776723046409,
                   VALE_REFE=0.0,
                   CRITERE='ABSOLU',
                   PRECISION=1.0,
                   MAILLE='M5405',),
                _F(NUME_ORDRE=1,
                   REFERENCE='ANALYTIQUE',
                   POINT=1,
                   RESULTAT=RESU,
                   NOM_CHAM='SIRO_ELEM',
                   NOM_CMP='SIG_TZ',
                   VALE_CALC=-0.24290406541356,
                   VALE_REFE=0.0,
                   CRITERE='ABSOLU',
                   PRECISION=1.0,
                   MAILLE='M5405',),
                ),
          )

# TEST DU CHAMP 'SIRO_ELEM'

TEST_RESU(RESU=(_F(NUME_ORDRE=1,
                   REFERENCE='ANALYTIQUE',
                   POINT=1,
                   RESULTAT=RESU,
                   NOM_CHAM='SIRO_ELEM',
                   NOM_CMP='SIG_T1X',
                   VALE_CALC=-3.99516575E-04,
                   VALE_REFE=0.0,
                   CRITERE='ABSOLU',
                   PRECISION=1.E-2,
                   MAILLE='M5405',),
                _F(NUME_ORDRE=1,
                   REFERENCE='ANALYTIQUE',
                   POINT=1,
                   RESULTAT=RESU,
                   NOM_CHAM='SIRO_ELEM',
                   NOM_CMP='SIG_T1Y',
                   VALE_CALC= 4.15521288E-04,
                   VALE_REFE=0.0,
                   CRITERE='ABSOLU',
                   PRECISION=1.E-2,
                   MAILLE='M5405',),
                _F(NUME_ORDRE=1,
                   REFERENCE='ANALYTIQUE',
                   POINT=1,
                   RESULTAT=RESU,
                   NOM_CHAM='SIRO_ELEM',
                   NOM_CMP='SIG_T1Z',
                   VALE_CALC=1.242798745,
                   VALE_REFE=0.0,
                   CRITERE='ABSOLU',
                   PRECISION=1.5,
                   MAILLE='M5405',),
                ),
          )

# TEST DU CHAMP 'SIRO_ELEM'

TEST_RESU(RESU=(_F(NUME_ORDRE=1,
                   REFERENCE='ANALYTIQUE',
                   POINT=1,
                   RESULTAT=RESU,
                   NOM_CHAM='SIRO_ELEM',
                   NOM_CMP='SIG_T2X',
                   VALE_CALC=-69.954796316,
                   VALE_REFE=-70.710800000000006,
                   CRITERE='RELATIF',
                   PRECISION=0.02,
                   MAILLE='M5405',),
                _F(NUME_ORDRE=1,
                   REFERENCE='ANALYTIQUE',
                   POINT=1,
                   RESULTAT=RESU,
                   NOM_CHAM='SIRO_ELEM',
                   NOM_CMP='SIG_T2Y',
                   VALE_CALC=72.757199253,
                   VALE_REFE=70.710800000000006,
                   CRITERE='RELATIF',
                   PRECISION=0.040000000000000001,
                   MAILLE='M5405',),
                _F(NUME_ORDRE=1,
                   REFERENCE='ANALYTIQUE',
                   POINT=1,
                   RESULTAT=RESU,
                   NOM_CHAM='SIRO_ELEM',
                   NOM_CMP='SIG_T2Z',
                   VALE_CALC=-0.046813908,
                   VALE_REFE=0.0,
                   CRITERE='ABSOLU',
                   PRECISION=0.050000000000000003,
                   MAILLE='M5405',),
                ),
          )



#----------------------------------------------------------------


FIN()
