# MODIF  DATE 10/10/2012   AUTEUR COURTOIS M.COURTOIS 
# TITRE CYLINDRE EN C.P. (PENTA15 HEXA20)
# sslv04b.para = tps_job 60 mem_job 256Mo ncpus 1 liste_test S
#            CONFIGURATION MANAGEMENT OF EDF VERSION
# ======================================================================
# COPYRIGHT (C) 1991 - 2012  EDF R&D                  WWW.CODE-ASTER.ORG
# THIS PROGRAM IS FREE SOFTWARE; YOU CAN REDISTRIBUTE IT AND/OR MODIFY
# IT UNDER THE TERMS OF THE GNU GENERAL PUBLIC LICENSE AS PUBLISHED BY
# THE FREE SOFTWARE FOUNDATION; EITHER VERSION 2 OF THE LICENSE, OR
# (AT YOUR OPTION) ANY LATER VERSION.
#
# THIS PROGRAM IS DISTRIBUTED IN THE HOPE THAT IT WILL BE USEFUL, BUT
# WITHOUT ANY WARRANTY; WITHOUT EVEN THE IMPLIED WARRANTY OF
# MERCHANTABILITY OR FITNESS FOR A PARTICULAR PURPOSE. SEE THE GNU
# GENERAL PUBLIC LICENSE FOR MORE DETAILS.
#
# YOU SHOULD HAVE RECEIVED A COPY OF THE GNU GENERAL PUBLIC LICENSE
# ALONG WITH THIS PROGRAM; IF NOT, WRITE TO EDF R&D CODE_ASTER,
#    1 AVENUE DU GENERAL DE GAULLE, 92141 CLAMART CEDEX, FRANCE.
# ======================================================================
# ----------------------------------------------------------------------
# SSLV04 B               COMMANDES                            20/08/91
# CYLINDRE CREUX EN CONTRAINTES PLANES
# SOUS PRESSION INTERNE (60 MPA)
#
# MODELISATION : ELEMENTS MECANIQUE 3D (PENTA15+HEXA20+QUAD8)
# MAILLAGE     : ALIBABA > ASTER > SUPERTAB
# ----------------------------------------------------------------------
# GROUPES DE NOEUDS ET MAILLES :
# GRNO: A B C D E F  A2 B2 C2 D2 E2 F2   A3 B3 C3 D3 E3 F3  BORDAB
# GRMA: FACEEF       FACEAE
# ----------------------------------------------------------------------
#

DEBUT(CODE=_F(NOM='SSLV04B',NIV_PUB_WEB='INTERNET'),DEBUG=_F(SDVERI='OUI'))

M=LIRE_MAILLAGE(FORMAT='MED',   )

M=DEFI_GROUP( reuse=M,  MAILLAGE=M,CREA_GROUP_NO=(
                   _F(  NOM = 'FACEBF',
                                   OPTION = 'ENV_CYLINDRE',
                                   POINT = ( 0.,  0.,  0.,  ),
                                   RAYON = 0.2,
                              VECT_NORMALE = ( 0.,  0.,  1.,  ),
                                 PRECISION = 1.E-06,
                                 ),
                   _F(  NOM = 'FACEAE',
                                   OPTION = 'ENV_CYLINDRE',
                                   POINT = ( 0.,  0.,  0.,  ),
                                   RAYON = 0.1,
                              VECT_NORMALE = ( 0.,  0.,  1.,  ),
                                 PRECISION = 1.E-06,
                                 ))
                  )

MO=AFFE_MODELE(            MAILLAGE=M,
                                   VERIF='MAILLE',
                                  AFFE=_F(  TOUT = 'OUI',
                                         PHENOMENE = 'MECANIQUE',
                                         MODELISATION = '3D',        )
                                       )

M=MODI_MAILLAGE( reuse=M,   MAILLAGE=M,
                        ORIE_PEAU_3D=_F(  GROUP_MA = ( 'FACEEF', 'FACEAE', ),  )
                      )

MA=DEFI_MATERIAU(            ELAS=_F(  E = 200000.,
                                         NU = 0.3,
                                         ALPHA = 0.,    ))

CM=AFFE_MATERIAU(        MAILLAGE=M,
                                  AFFE=_F(  TOUT = 'OUI',
                                         MATER = MA,            ))

CH=AFFE_CHAR_MECA(         MODELE=MO,
                             FACE_IMPO=_F(  GROUP_MA = 'FACEEF',   DNOR = 0.,   ),DDL_IMPO=(
                              _F(  GROUP_NO = 'F',        DZ = 0.,     ),
                                       _F(  GROUP_NO = 'BORDAB',   DX = 0.,     )),
                              PRES_REP=_F(  GROUP_MA = 'FACEAE',   PRES = 60., ))

RESU=MECA_STATIQUE(MODELE=MO,
                   CHAM_MATER=CM,
                   EXCIT=_F(CHARGE=CH,),
                   );


RESU=CALC_CHAMP(reuse=RESU,RESULTAT=RESU,NUME_ORDRE=1,DEFORMATION=('EPSI_ELNO'))


RESU=CALC_CHAMP(reuse=RESU,RESULTAT=RESU,NUME_ORDRE=1,CONTRAINTE=('SIGM_ELNO'))


#----------------------------------------------------------------
#

CALC_CHAMP(reuse=RESU,RESULTAT=RESU,GROUP_MA='FACEAE',CONTRAINTE=('SIRO_ELEM'))

# TEST DU CHAMP 'SIRO_ELEM'
# MAILLE MA751 PRES DU POINT A

TEST_RESU(RESU=(_F(NUME_ORDRE=1,
                   REFERENCE='ANALYTIQUE',
                   POINT=1,
                   RESULTAT=RESU,
                   NOM_CHAM='SIRO_ELEM',
                   NOM_CMP='SIG_NX',
                   VALE_CALC=-2.349114754,
                   VALE_REFE=0.0,
                   CRITERE='ABSOLU',
                   PRECISION=3.0,
                   MAILLE='MA751',),
                _F(NUME_ORDRE=1,
                   REFERENCE='ANALYTIQUE',
                   POINT=1,
                   RESULTAT=RESU,
                   NOM_CHAM='SIRO_ELEM',
                   NOM_CMP='SIG_NY',
                   VALE_CALC=59.778281253,
                   VALE_REFE=60.0,
                   CRITERE='ABSOLU',
                   PRECISION=0.5,
                   MAILLE='MA751',),
                _F(NUME_ORDRE=1,
                   REFERENCE='ANALYTIQUE',
                   POINT=1,
                   RESULTAT=RESU,
                   NOM_CHAM='SIRO_ELEM',
                   NOM_CMP='SIG_NZ',
                   VALE_CALC= 1.01876615E-16,
                   VALE_REFE=0.0,
                   CRITERE='ABSOLU',
                   PRECISION=1.E-2,
                   MAILLE='MA751',),
                ),
          )

# TEST DU CHAMP 'SIRO_ELEM

TEST_RESU(RESU=(_F(NUME_ORDRE=1,
                   REFERENCE='ANALYTIQUE',
                   POINT=1,
                   RESULTAT=RESU,
                   NOM_CHAM='SIRO_ELEM',
                   NOM_CMP='SIG_TX',
                   VALE_CALC=5.7942699623851E-04,
                   VALE_REFE=0.0,
                   CRITERE='ABSOLU',
                   TOLE_MACHINE=1.E-2,
                   PRECISION=1.0,
                   MAILLE='MA751',),
                _F(NUME_ORDRE=1,
                   REFERENCE='ANALYTIQUE',
                   POINT=1,
                   RESULTAT=RESU,
                   NOM_CHAM='SIRO_ELEM',
                   NOM_CMP='SIG_TY',
                   VALE_CALC=2.2769816682605E-05,
                   VALE_REFE=0.0,
                   CRITERE='ABSOLU',
                   TOLE_MACHINE=1.E-2,
                   PRECISION=1.0,
                   MAILLE='MA751',),
                _F(NUME_ORDRE=1,
                   REFERENCE='ANALYTIQUE',
                   POINT=1,
                   RESULTAT=RESU,
                   NOM_CHAM='SIRO_ELEM',
                   NOM_CMP='SIG_TZ',
                   VALE_CALC=2.5447273871325E-03,
                   VALE_REFE=0.0,
                   CRITERE='ABSOLU',
                   TOLE_MACHINE=1.E-2,
                   PRECISION=1.0,
                   MAILLE='MA751',),
                ),
          )

# TEST DU CHAMP 'SIRO_ELEM

TEST_RESU(RESU=(_F(NUME_ORDRE=1,
                   REFERENCE='ANALYTIQUE',
                   POINT=1,
                   RESULTAT=RESU,
                   NOM_CHAM='SIRO_ELEM',
                   NOM_CMP='SIG_T1X',
                   VALE_CALC= 1.05600470E-08,
                   VALE_REFE=0.0,
                   CRITERE='ABSOLU',
                   PRECISION=1.E-2,
                   MAILLE='MA751',),
                _F(NUME_ORDRE=1,
                   REFERENCE='ANALYTIQUE',
                   POINT=1,
                   RESULTAT=RESU,
                   NOM_CHAM='SIRO_ELEM',
                   NOM_CMP='SIG_T1Y',
                   VALE_CALC= 4.14979516E-10,
                   VALE_REFE=0.0,
                   CRITERE='ABSOLU',
                   PRECISION=1.E-2,
                   MAILLE='MA751',),
                _F(NUME_ORDRE=1,
                   REFERENCE='ANALYTIQUE',
                   POINT=1,
                   RESULTAT=RESU,
                   NOM_CHAM='SIRO_ELEM',
                   NOM_CMP='SIG_T1Z',
                   VALE_CALC=-0.012979484,
                   VALE_REFE=0.0,
                   CRITERE='ABSOLU',
                   PRECISION=0.02,
                   MAILLE='MA751',),
                ),
          )

# TEST DU CHAMP 'SIRO_ELEM

TEST_RESU(RESU=(_F(NUME_ORDRE=1,
                   REFERENCE='ANALYTIQUE',
                   POINT=1,
                   RESULTAT=RESU,
                   NOM_CHAM='SIRO_ELEM',
                   NOM_CMP='SIG_T2X',
                   VALE_CALC=99.869618499,
                   VALE_REFE=100.0,
                   CRITERE='ABSOLU',
                   PRECISION=0.20000000000000001,
                   MAILLE='MA751',),
                _F(NUME_ORDRE=1,
                   REFERENCE='ANALYTIQUE',
                   POINT=1,
                   RESULTAT=RESU,
                   NOM_CHAM='SIRO_ELEM',
                   NOM_CMP='SIG_T2Y',
                   VALE_CALC=3.924589155,
                   VALE_REFE=0.0,
                   CRITERE='ABSOLU',
                   PRECISION=5.0,
                   MAILLE='MA751',),
                _F(NUME_ORDRE=1,
                   REFERENCE='ANALYTIQUE',
                   POINT=1,
                   RESULTAT=RESU,
                   NOM_CHAM='SIRO_ELEM',
                   NOM_CMP='SIG_T2Z',
                   VALE_CALC= 8.13789283E-05,
                   VALE_REFE=0.0,
                   CRITERE='ABSOLU',
                   PRECISION=1.E-2,
                   MAILLE='MA751',),
                ),
          )

# MAILLE MA769 PRES DU POINT E

TEST_RESU(RESU=(_F(NUME_ORDRE=1,
                   REFERENCE='ANALYTIQUE',
                   POINT=1,
                   RESULTAT=RESU,
                   NOM_CHAM='SIRO_ELEM',
                   NOM_CMP='SIG_NX',
                   VALE_CALC=-40.389917758,
                   VALE_REFE=-42.426000000000002,
                   CRITERE='RELATIF',
                   PRECISION=0.059999999999999998,
                   MAILLE='MA769',),
                _F(NUME_ORDRE=1,
                   REFERENCE='ANALYTIQUE',
                   POINT=1,
                   RESULTAT=RESU,
                   NOM_CHAM='SIRO_ELEM',
                   NOM_CMP='SIG_NY',
                   VALE_CALC=43.694559655,
                   VALE_REFE=42.426000000000002,
                   CRITERE='RELATIF',
                   PRECISION=0.040000000000000001,
                   MAILLE='MA769',),
                _F(NUME_ORDRE=1,
                   REFERENCE='ANALYTIQUE',
                   POINT=1,
                   RESULTAT=RESU,
                   NOM_CHAM='SIRO_ELEM',
                   NOM_CMP='SIG_NZ',
                   VALE_CALC=-1.14652800E-15,
                   VALE_REFE=0.0,
                   CRITERE='ABSOLU',
                   PRECISION=1.E-2,
                   MAILLE='MA769',),
                ),
          )

# TEST DU CHAMP 'SIRO_ELEM

TEST_RESU(RESU=(_F(NUME_ORDRE=1,
                   REFERENCE='ANALYTIQUE',
                   POINT=1,
                   RESULTAT=RESU,
                   NOM_CHAM='SIRO_ELEM',
                   NOM_CMP='SIG_TX',
                   VALE_CALC=-1.1025568883851E-03,
                   VALE_REFE=0.0,
                   CRITERE='ABSOLU',
                   TOLE_MACHINE=1.E-2,
                   PRECISION=1.0,
                   MAILLE='MA769',),
                _F(NUME_ORDRE=1,
                   REFERENCE='ANALYTIQUE',
                   POINT=1,
                   RESULTAT=RESU,
                   NOM_CHAM='SIRO_ELEM',
                   NOM_CMP='SIG_TY',
                   VALE_CALC=-1.0191699469387E-03,
                   VALE_REFE=0.0,
                   CRITERE='ABSOLU',
                   TOLE_MACHINE=1.E-2,
                   PRECISION=1.0,
                   MAILLE='MA769',),
                _F(NUME_ORDRE=1,
                   REFERENCE='ANALYTIQUE',
                   POINT=1,
                   RESULTAT=RESU,
                   NOM_CHAM='SIRO_ELEM',
                   NOM_CMP='SIG_TZ',
                   VALE_CALC=0.026863319291226,
                   VALE_REFE=0.0,
                   CRITERE='ABSOLU',
                   TOLE_MACHINE=1.E-2,
                   PRECISION=1.0,
                   MAILLE='MA769',),
                ),
          )

# TEST DU CHAMP 'SIRO_ELEM

TEST_RESU(RESU=(_F(NUME_ORDRE=1,
                   REFERENCE='ANALYTIQUE',
                   POINT=1,
                   RESULTAT=RESU,
                   NOM_CHAM='SIRO_ELEM',
                   NOM_CMP='SIG_T1X',
                   VALE_CALC=-4.08165831E-09,
                   VALE_REFE=0.0,
                   CRITERE='ABSOLU',
                   PRECISION=1.E-2,
                   MAILLE='MA769',),
                _F(NUME_ORDRE=1,
                   REFERENCE='ANALYTIQUE',
                   POINT=1,
                   RESULTAT=RESU,
                   NOM_CHAM='SIRO_ELEM',
                   NOM_CMP='SIG_T1Y',
                   VALE_CALC=-3.77296040E-09,
                   VALE_REFE=0.0,
                   CRITERE='ABSOLU',
                   PRECISION=1.E-2,
                   MAILLE='MA769',),
                _F(NUME_ORDRE=1,
                   REFERENCE='ANALYTIQUE',
                   POINT=1,
                   RESULTAT=RESU,
                   NOM_CHAM='SIRO_ELEM',
                   NOM_CMP='SIG_T1Z',
                   VALE_CALC=-7.73592353E-03,
                   VALE_REFE=0.0,
                   CRITERE='ABSOLU',
                   PRECISION=1.E-2,
                   MAILLE='MA769',),
                ),
          )

# TEST DU CHAMP 'SIRO_ELEM

TEST_RESU(RESU=(_F(NUME_ORDRE=1,
                   REFERENCE='ANALYTIQUE',
                   POINT=1,
                   RESULTAT=RESU,
                   NOM_CHAM='SIRO_ELEM',
                   NOM_CMP='SIG_T2X',
                   VALE_CALC=73.172716498,
                   VALE_REFE=70.710800000000006,
                   CRITERE='RELATIF',
                   PRECISION=0.040000000000000001,
                   MAILLE='MA769',),
                _F(NUME_ORDRE=1,
                   REFERENCE='ANALYTIQUE',
                   POINT=1,
                   RESULTAT=RESU,
                   NOM_CHAM='SIRO_ELEM',
                   NOM_CMP='SIG_T2Y',
                   VALE_CALC=67.638626520,
                   VALE_REFE=70.710800000000006,
                   CRITERE='RELATIF',
                   PRECISION=0.050000000000000003,
                   MAILLE='MA769',),
                _F(NUME_ORDRE=1,
                   REFERENCE='ANALYTIQUE',
                   POINT=1,
                   RESULTAT=RESU,
                   NOM_CHAM='SIRO_ELEM',
                   NOM_CMP='SIG_T2Z',
                   VALE_CALC=-7.15963496E-05,
                   VALE_REFE=0.0,
                   CRITERE='ABSOLU',
                   PRECISION=1.E-2,
                   MAILLE='MA769',),
                ),
          )



#----------------------------------------------------------------
DEP_BF=POST_RELEVE_T(
              ACTION=_F(  INTITULE = 'FACEBF',
                       RESULTAT=RESU,
                       NOM_CHAM='DEPL',
                       GROUP_NO = 'FACEBF',
                       NOM_CMP = ( 'DX', 'DY', 'DZ', ),
                       REPERE = 'CYLINDRIQUE',
                       ORIGINE = ( 0.0,   0.0,   0.0, ),
                       AXE_Z = ( 0.0,   0.0,   1.0, ),
                       OPERATION = 'EXTRACTION',
                     ),
              TITRE='DEPLACEMENT SUR FACEBF'
                     )

TEST_TABLE(VALE_CALC=4.0000000000000003E-05,
           TOLE_MACHINE=1.E-3,
           NOM_PARA='DX',
           TABLE=DEP_BF,
           FILTRE=_F(NOM_PARA='NOEUD',
                     VALE_K='NO361',),
           )

TEST_TABLE(CRITERE='ABSOLU',
           VALE_CALC=0.0,
           TOLE_MACHINE=1.E-3,
           NOM_PARA='DZ',
           TABLE=DEP_BF,
           FILTRE=_F(NOM_PARA='NOEUD',
                     VALE_K='NO361',),
           )

TEST_TABLE(VALE_CALC=4.0000000000000003E-05,
           TOLE_MACHINE=1.E-3,
           NOM_PARA='DX',
           TABLE=DEP_BF,
           FILTRE=_F(NOM_PARA='NOEUD',
                     VALE_K='NO2712',),
           )

TEST_TABLE(CRITERE='ABSOLU',
           VALE_CALC=0.0,
           TOLE_MACHINE=1.E-3,
           NOM_PARA='DZ',
           TABLE=DEP_BF,
           FILTRE=_F(NOM_PARA='NOEUD',
                     VALE_K='NO2712',),
           )

# -------------------------------------------------------------
#         REPERE  GLOBAL
# -------------------------------------------------------------
SIG_RGBF=POST_RELEVE_T(
              ACTION=_F(  INTITULE = 'FACEBF',
                       RESULTAT = RESU,
                       NOM_CHAM='SIGM_ELNO',
                       GROUP_NO = 'FACEBF',
                       NOM_CMP = ('SIXX','SIYY','SIXY',),
                       REPERE = 'GLOBAL',
                       OPERATION = 'EXTRACTION',
                     ),
          TITRE='CONTRAINTES SUR FACEBF REPERE GLOBAL'
                     )

TEST_TABLE(VALE_CALC=40.0,
           TOLE_MACHINE=1.E-3,
           NOM_PARA='SIXX',
           TABLE=SIG_RGBF,
           FILTRE=_F(NOM_PARA='NOEUD',
                     VALE_K='NO361',),
           )

TEST_TABLE(CRITERE='ABSOLU',
           PRECISION=0.02,
           VALE_CALC=0.017464230,
           VALE_REFE=0.0,
           REFERENCE='NON_DEFINI',
           NOM_PARA='SIYY',
           TABLE=SIG_RGBF,
           FILTRE=_F(NOM_PARA='NOEUD',
                     VALE_K='NO361',),
           )

TEST_TABLE(CRITERE='ABSOLU',
           PRECISION=0.029999999999999999,
           VALE_CALC=-0.029610135,
           VALE_REFE=0.0,
           REFERENCE='NON_DEFINI',
           NOM_PARA='SIXY',
           TABLE=SIG_RGBF,
           FILTRE=_F(NOM_PARA='NOEUD',
                     VALE_K='NO361',),
           )

# -------------------------------------------------------------
#         REPERE  UTILISATEUR
# -------------------------------------------------------------
SIG_RUBF=POST_RELEVE_T(
              ACTION=_F(  INTITULE = 'FACEBF',
                       RESULTAT=RESU,
                       NOM_CHAM='SIGM_ELNO',
                       GROUP_NO = 'FACEBF',
                       NOM_CMP = ('SIXX','SIYY','SIXY',),
                       REPERE = 'UTILISATEUR',
                       ANGL_NAUT = ( 30.,  0.,  0.,  ),
                       OPERATION = 'EXTRACTION',
                     ),
         TITRE='CONTRAINTES REPERE UTILISATEUR 30 0 0'
                     )

TEST_TABLE(VALE_CALC=30.0,
           TOLE_MACHINE=1.E-3,
           NOM_PARA='SIXX',
           TABLE=SIG_RUBF,
           FILTRE=_F(NOM_PARA='NOEUD',
                     VALE_K='NO361',),
           )

TEST_TABLE(PRECISION=5.0000000000000001E-3,
           VALE_CALC=10.040253254,
           VALE_REFE=10.0,
           REFERENCE='NON_DEFINI',
           NOM_PARA='SIYY',
           TABLE=SIG_RUBF,
           FILTRE=_F(NOM_PARA='NOEUD',
                     VALE_K='NO361',),
           )

TEST_TABLE(VALE_CALC=-17.320499999999999,
           TOLE_MACHINE=1.E-3,
           NOM_PARA='SIXY',
           TABLE=SIG_RUBF,
           FILTRE=_F(NOM_PARA='NOEUD',
                     VALE_K='NO361',),
           )

# -------------------------------------------------------------
#         REPERE  UTILISATEUR  QUELCONQUE
# -------------------------------------------------------------
SIG_RQBF=POST_RELEVE_T(
              ACTION=_F(  INTITULE = 'FACEBF',
                       RESULTAT=RESU,
                       NOM_CHAM='SIGM_ELNO',
                       GROUP_NO = 'FACEBF',
                       NOM_CMP = ('SIXX','SIYY','SIXY',),
                       REPERE = 'UTILISATEUR',
                       ANGL_NAUT = ( 30.,  60.,  45.,  ),
                       OPERATION = 'EXTRACTION',
                     ),
         TITRE='CONTRAINTES REPERE UTILISATEUR 30 60 45'
                     )

TEST_TABLE(VALE_CALC=7.5,
           TOLE_MACHINE=1.E-3,
           NOM_PARA='SIXX',
           TABLE=SIG_RQBF,
           FILTRE=_F(NOM_PARA='NOEUD',
                     VALE_K='NO361',),
           )

TEST_TABLE(PRECISION=5.0000000000000001E-3,
           VALE_CALC=1.255499936,
           VALE_REFE=1.25,
           REFERENCE='NON_DEFINI',
           NOM_PARA='SIYY',
           TABLE=SIG_RQBF,
           FILTRE=_F(NOM_PARA='NOEUD',
                     VALE_K='NO361',),
           )

TEST_TABLE(PRECISION=3.0000000000000001E-3,
           VALE_CALC=3.053436048,
           VALE_REFE=3.0618699999999999,
           REFERENCE='NON_DEFINI',
           NOM_PARA='SIXY',
           TABLE=SIG_RQBF,
           FILTRE=_F(NOM_PARA='NOEUD',
                     VALE_K='NO361',),
           )

# -------------------------------------------------------------
#         REPERE  CYLINDRIQUE
# -------------------------------------------------------------
SIG_BF=POST_RELEVE_T(
              ACTION=_F(  INTITULE = 'FACEBF',
                       RESULTAT=RESU,
                       NOM_CHAM='SIGM_ELNO',
                       GROUP_NO = 'FACEBF',
                       NOM_CMP = ('SIXX','SIZZ','SIXZ',),
                       REPERE = 'CYLINDRIQUE',
                       ORIGINE = ( 0.0,   0.0,   0.0, ),
                       AXE_Z = ( 0.0,   0.0,   1.0, ),
                       OPERATION = 'EXTRACTION',
                     ),
          TITRE='CONTRAINTES SUR FACEBF REPERE CYLINDRIQUE'
                     )

TEST_TABLE(CRITERE='ABSOLU',
           PRECISION=1.E-2,
           VALE_CALC= 3.03745357E-03,
           VALE_REFE=0.0,
           REFERENCE='NON_DEFINI',
           NOM_PARA='SIXX',
           TABLE=SIG_BF,
           FILTRE=_F(NOM_PARA='NOEUD',
                     VALE_K='NO503',),
           )

TEST_TABLE(VALE_CALC=40.0,
           TOLE_MACHINE=1.E-3,
           NOM_PARA='SIZZ',
           TABLE=SIG_BF,
           FILTRE=_F(NOM_PARA='NOEUD',
                     VALE_K='NO503',),
           )

TEST_TABLE(CRITERE='ABSOLU',
           PRECISION=1.E-2,
           VALE_CALC= 5.66542602E-03,
           VALE_REFE=0.0,
           REFERENCE='NON_DEFINI',
           NOM_PARA='SIXZ',
           TABLE=SIG_BF,
           FILTRE=_F(NOM_PARA='NOEUD',
                     VALE_K='NO503',),
           )

TEST_TABLE(CRITERE='ABSOLU',
           PRECISION=0.02,
           VALE_CALC=-2.60507246E-03,
           VALE_REFE=0.0,
           REFERENCE='NON_DEFINI',
           NOM_PARA='SIXX',
           TABLE=SIG_BF,
           FILTRE=_F(NOM_PARA='NOEUD',
                     VALE_K='NO2712',),
           )

TEST_TABLE(VALE_CALC=40.0,
           TOLE_MACHINE=1.E-3,
           NOM_PARA='SIZZ',
           TABLE=SIG_BF,
           FILTRE=_F(NOM_PARA='NOEUD',
                     VALE_K='NO2712',),
           )

TEST_TABLE(CRITERE='ABSOLU',
           VALE_CALC=0.0,
           TOLE_MACHINE=1.E-3,
           NOM_PARA='SIXZ',
           TABLE=SIG_BF,
           FILTRE=_F(NOM_PARA='NOEUD',
                     VALE_K='NO2712',),
           )

# -------------------------------------------------------------
# -------------------------------------------------------------
# -------------------------------------------------------------
DEP_AE=POST_RELEVE_T(
              ACTION=_F(  INTITULE = 'FACEAE',
                       RESULTAT=RESU,
                       NOM_CHAM='DEPL',
                       GROUP_NO = 'FACEAE',
                       NOM_CMP = ( 'DX',  'DZ', ),
                       REPERE = 'CYLINDRIQUE',
                       ORIGINE = ( 0.0,   0.0,   0.0, ),
                       AXE_Z = ( 0.0,   0.0,   1.0, ),
                       OPERATION = 'EXTRACTION',
                     ),
              TITRE='DEPLACEMENT SUR FACEAE'
                     )

TEST_TABLE(VALE_CALC=5.8999999999999998E-05,
           TOLE_MACHINE=1.E-3,
           NOM_PARA='DX',
           TABLE=DEP_AE,
           FILTRE=_F(NOM_PARA='NOEUD',
                     VALE_K='NO2',),
           )

TEST_TABLE(CRITERE='ABSOLU',
           VALE_CALC=0.0,
           TOLE_MACHINE=1.E-3,
           NOM_PARA='DZ',
           TABLE=DEP_AE,
           FILTRE=_F(NOM_PARA='NOEUD',
                     VALE_K='NO2',),
           )

TEST_TABLE(VALE_CALC=5.8999999999999998E-05,
           TOLE_MACHINE=1.E-3,
           NOM_PARA='DX',
           TABLE=DEP_AE,
           FILTRE=_F(NOM_PARA='NOEUD',
                     VALE_K='NO1072',),
           )

TEST_TABLE(CRITERE='ABSOLU',
           VALE_CALC=0.0,
           TOLE_MACHINE=1.E-3,
           NOM_PARA='DZ',
           TABLE=DEP_AE,
           FILTRE=_F(NOM_PARA='NOEUD',
                     VALE_K='NO1072',),
           )

SIG_AE=POST_RELEVE_T(
              ACTION=_F(  INTITULE = 'FACEAE',
                       RESULTAT=RESU,
                       NOM_CHAM='SIGM_ELNO',
                       GROUP_NO = 'FACEAE',
                       NOM_CMP = ('SIXX','SIZZ','SIXZ',),
                       REPERE = 'CYLINDRIQUE',
                       ORIGINE = ( 0.0,   0.0,   0.0, ),
                       AXE_Z = ( 0.0,   0.0,   1.0, ),
                       OPERATION = 'EXTRACTION',
                     ),
              TITRE='CONTRAINTES SUR FACEAE'
                     )

TEST_TABLE(PRECISION=5.4999999999999997E-3,
           VALE_CALC=-59.688070481,
           VALE_REFE=-60.0,
           REFERENCE='NON_DEFINI',
           NOM_PARA='SIXX',
           TABLE=SIG_AE,
           FILTRE=_F(NOM_PARA='NOEUD',
                     VALE_K='NO155',),
           )

TEST_TABLE(PRECISION=2.E-3,
           VALE_CALC=99.910506431,
           VALE_REFE=100.0,
           REFERENCE='NON_DEFINI',
           NOM_PARA='SIZZ',
           TABLE=SIG_AE,
           FILTRE=_F(NOM_PARA='NOEUD',
                     VALE_K='NO155',),
           )

TEST_TABLE(CRITERE='ABSOLU',
           PRECISION=0.02,
           VALE_CALC=0.011328673,
           VALE_REFE=0.0,
           REFERENCE='NON_DEFINI',
           NOM_PARA='SIXZ',
           TABLE=SIG_AE,
           FILTRE=_F(NOM_PARA='NOEUD',
                     VALE_K='NO155',),
           )

TEST_TABLE(PRECISION=4.0000000000000001E-3,
           VALE_CALC=-59.772602885,
           VALE_REFE=-60.0,
           REFERENCE='NON_DEFINI',
           NOM_PARA='SIXX',
           TABLE=SIG_AE,
           FILTRE=_F(NOM_PARA='NOEUD',
                     VALE_K='NO1072',),
           )

TEST_TABLE(PRECISION=2.E-3,
           VALE_CALC=99.908699882,
           VALE_REFE=100.0,
           REFERENCE='NON_DEFINI',
           NOM_PARA='SIZZ',
           TABLE=SIG_AE,
           FILTRE=_F(NOM_PARA='NOEUD',
                     VALE_K='NO1072',),
           )

TEST_TABLE(CRITERE='ABSOLU',
           PRECISION=0.20000000000000001,
           VALE_CALC=0.115066385,
           VALE_REFE=0.0,
           REFERENCE='NON_DEFINI',
           NOM_PARA='SIXZ',
           TABLE=SIG_AE,
           FILTRE=_F(NOM_PARA='NOEUD',
                     VALE_K='NO1072',),
           )

TEST_RESU(RESU=(_F(NUME_ORDRE=1,
                   GROUP_NO='A',
                   RESULTAT=RESU,
                   NOM_CHAM='DEPL',
                   NOM_CMP='DY',
                   VALE_CALC= 5.89441623E-05,
                   VALE_REFE=5.8999999999999998E-05,
                   REFERENCE='NON_DEFINI',
                   CRITERE='RELATIF',
                   PRECISION=1.E-2,),
                _F(NUME_ORDRE=1,
                   GROUP_NO='A',
                   RESULTAT=RESU,
                   NOM_CHAM='DEPL',
                   NOM_CMP='DX',
                   VALE_CALC=0.0,
                   CRITERE='ABSOLU',
                   ),
                _F(NUME_ORDRE=1,
                   GROUP_NO='B',
                   RESULTAT=RESU,
                   NOM_CHAM='DEPL',
                   NOM_CMP='DY',
                   VALE_CALC= 3.99736948E-05,
                   VALE_REFE=4.0000000000000003E-05,
                   REFERENCE='NON_DEFINI',
                   CRITERE='RELATIF',
                   PRECISION=1.E-2,),
                _F(NUME_ORDRE=1,
                   GROUP_NO='B',
                   RESULTAT=RESU,
                   NOM_CHAM='DEPL',
                   NOM_CMP='DX',
                   VALE_CALC=0.0,
                   CRITERE='ABSOLU',
                   ),
                _F(NUME_ORDRE=1,
                   GROUP_NO='E',
                   RESULTAT=RESU,
                   NOM_CHAM='DEPL',
                   NOM_CMP='DY',
                   VALE_CALC= 4.16804291E-05,
                   VALE_REFE=4.1719299999999999E-05,
                   REFERENCE='NON_DEFINI',
                   CRITERE='RELATIF',
                   PRECISION=1.E-2,),
                _F(NUME_ORDRE=1,
                   GROUP_NO='E',
                   RESULTAT=RESU,
                   NOM_CHAM='DEPL',
                   NOM_CMP='DX',
                   VALE_CALC=-4.16804291E-05,
                   VALE_REFE=-4.1719299999999999E-05,
                   REFERENCE='NON_DEFINI',
                   CRITERE='RELATIF',
                   PRECISION=1.E-2,),
                _F(NUME_ORDRE=1,
                   GROUP_NO='F',
                   RESULTAT=RESU,
                   NOM_CHAM='DEPL',
                   NOM_CMP='DY',
                   VALE_CALC= 2.82656021E-05,
                   VALE_REFE=2.82843E-05,
                   REFERENCE='NON_DEFINI',
                   CRITERE='RELATIF',
                   PRECISION=1.E-2,),
                _F(NUME_ORDRE=1,
                   GROUP_NO='F',
                   RESULTAT=RESU,
                   NOM_CHAM='DEPL',
                   NOM_CMP='DX',
                   VALE_CALC=-2.82656021E-05,
                   VALE_REFE=-2.82843E-05,
                   REFERENCE='NON_DEFINI',
                   CRITERE='RELATIF',
                   PRECISION=1.E-2,),
                _F(NUME_ORDRE=1,
                   GROUP_NO='A',
                   RESULTAT=RESU,
                   NOM_CHAM='EPSI_ELNO',
                   NOM_CMP='EPXX',
                   VALE_CALC= 5.87169623E-04,
                   VALE_REFE=5.9000000000000003E-4,
                   REFERENCE='NON_DEFINI',
                   CRITERE='RELATIF',
                   PRECISION=1.E-2,
                   MAILLE='MA251',),
                _F(NUME_ORDRE=1,
                   GROUP_NO='A',
                   RESULTAT=RESU,
                   NOM_CHAM='EPSI_ELNO',
                   NOM_CMP='EPYY',
                   VALE_CALC=-4.46674425E-04,
                   VALE_REFE=-4.4999999999999999E-4,
                   REFERENCE='NON_DEFINI',
                   CRITERE='RELATIF',
                   PRECISION=1.E-2,
                   MAILLE='MA251',),
                _F(NUME_ORDRE=1,
                   GROUP_NO='A',
                   RESULTAT=RESU,
                   NOM_CHAM='EPSI_ELNO',
                   NOM_CMP='EPZZ',
                   VALE_CALC=-6.01395262E-05,
                   VALE_REFE=0.0,
                   REFERENCE='NON_DEFINI',
                   CRITERE='ABSOLU',
                   PRECISION=1.E-2,
                   MAILLE='MA251',),
                _F(NUME_ORDRE=1,
                   GROUP_NO='A',
                   RESULTAT=RESU,
                   NOM_CHAM='EPSI_ELNO',
                   NOM_CMP='EPXY',
                   VALE_CALC= 1.61258724E-06,
                   VALE_REFE=0.0,
                   REFERENCE='NON_DEFINI',
                   CRITERE='ABSOLU',
                   PRECISION=1.E-2,
                   MAILLE='MA251',),
                _F(NUME_ORDRE=1,
                   GROUP_NO='B',
                   RESULTAT=RESU,
                   NOM_CHAM='EPSI_ELNO',
                   NOM_CMP='EPXX',
                   VALE_CALC= 1.99729515E-04,
                   VALE_REFE=2.0000000000000001E-4,
                   REFERENCE='NON_DEFINI',
                   CRITERE='RELATIF',
                   PRECISION=1.E-2,
                   MAILLE='MA551',),
                _F(NUME_ORDRE=1,
                   GROUP_NO='B',
                   RESULTAT=RESU,
                   NOM_CHAM='EPSI_ELNO',
                   NOM_CMP='EPYY',
                   VALE_CALC=-5.95749729E-05,
                   VALE_REFE=-6.0000000000000002E-05,
                   REFERENCE='NON_DEFINI',
                   CRITERE='ABSOLU',
                   PRECISION=1.E-2,
                   MAILLE='MA551',),
                _F(NUME_ORDRE=1,
                   GROUP_NO='B',
                   RESULTAT=RESU,
                   NOM_CHAM='EPSI_ELNO',
                   NOM_CMP='EPZZ',
                   VALE_CALC=-6.00446922E-05,
                   VALE_REFE=0.0,
                   REFERENCE='NON_DEFINI',
                   CRITERE='ABSOLU',
                   PRECISION=1.E-2,
                   MAILLE='MA551',),
                _F(NUME_ORDRE=1,
                   GROUP_NO='B',
                   RESULTAT=RESU,
                   NOM_CHAM='EPSI_ELNO',
                   NOM_CMP='EPXY',
                   VALE_CALC=-1.18248288E-07,
                   VALE_REFE=0.0,
                   REFERENCE='NON_DEFINI',
                   CRITERE='ABSOLU',
                   PRECISION=1.E-2,
                   MAILLE='MA551',),
                _F(NUME_ORDRE=1,
                   GROUP_NO='E',
                   RESULTAT=RESU,
                   NOM_CHAM='EPSI_ELNO',
                   NOM_CMP='EPXX',
                   VALE_CALC= 7.04406418E-05,
                   VALE_REFE=6.9999999999999994E-05,
                   REFERENCE='NON_DEFINI',
                   CRITERE='RELATIF',
                   PRECISION=1.E-2,
                   MAILLE='MA399',),
                _F(NUME_ORDRE=1,
                   GROUP_NO='E',
                   RESULTAT=RESU,
                   NOM_CHAM='EPSI_ELNO',
                   NOM_CMP='EPYY',
                   VALE_CALC= 7.02933691E-05,
                   VALE_REFE=6.9999999999999994E-05,
                   REFERENCE='NON_DEFINI',
                   CRITERE='RELATIF',
                   PRECISION=1.E-2,
                   MAILLE='MA399',),
                _F(NUME_ORDRE=1,
                   GROUP_NO='E',
                   RESULTAT=RESU,
                   NOM_CHAM='EPSI_ELNO',
                   NOM_CMP='EPZZ',
                   VALE_CALC=-6.02594624E-05,
                   VALE_REFE=0.0,
                   REFERENCE='NON_DEFINI',
                   CRITERE='ABSOLU',
                   PRECISION=1.E-2,
                   MAILLE='MA399',),
                _F(NUME_ORDRE=1,
                   GROUP_NO='E',
                   RESULTAT=RESU,
                   NOM_CHAM='EPSI_ELNO',
                   NOM_CMP='EPXY',
                   VALE_CALC= 5.18695375E-04,
                   VALE_REFE=5.1999999999999995E-4,
                   REFERENCE='NON_DEFINI',
                   CRITERE='RELATIF',
                   PRECISION=1.E-2,
                   MAILLE='MA399',),
                _F(NUME_ORDRE=1,
                   GROUP_NO='F',
                   RESULTAT=RESU,
                   NOM_CHAM='EPSI_ELNO',
                   NOM_CMP='EPXX',
                   VALE_CALC= 7.00801138E-05,
                   VALE_REFE=6.9999999999999994E-05,
                   REFERENCE='NON_DEFINI',
                   CRITERE='RELATIF',
                   PRECISION=1.E-2,
                   MAILLE='MA695',),
                _F(NUME_ORDRE=1,
                   GROUP_NO='F',
                   RESULTAT=RESU,
                   NOM_CHAM='EPSI_ELNO',
                   NOM_CMP='EPYY',
                   VALE_CALC= 7.00064633E-05,
                   VALE_REFE=6.9999999999999994E-05,
                   REFERENCE='NON_DEFINI',
                   CRITERE='RELATIF',
                   PRECISION=1.E-2,
                   MAILLE='MA695',),
                _F(NUME_ORDRE=1,
                   GROUP_NO='F',
                   RESULTAT=RESU,
                   NOM_CHAM='EPSI_ELNO',
                   NOM_CMP='EPZZ',
                   VALE_CALC=-6.00291737E-05,
                   VALE_REFE=0.0,
                   REFERENCE='NON_DEFINI',
                   CRITERE='ABSOLU',
                   PRECISION=1.E-2,
                   MAILLE='MA695',),
                _F(NUME_ORDRE=1,
                   GROUP_NO='F',
                   RESULTAT=RESU,
                   NOM_CHAM='EPSI_ELNO',
                   NOM_CMP='EPXY',
                   VALE_CALC= 1.30066598E-04,
                   VALE_REFE=1.2999999999999999E-4,
                   REFERENCE='NON_DEFINI',
                   CRITERE='RELATIF',
                   PRECISION=1.E-2,
                   MAILLE='MA695',),
                ),
          )

#-----------------------------------------------------------------

TEST_RESU(RESU=(_F(NUME_ORDRE=1,
                   GROUP_NO='A',
                   RESULTAT=RESU,
                   NOM_CHAM='SIGM_ELNO',
                   NOM_CMP='SIXX',
                   VALE_CALC=99.605596497,
                   VALE_REFE=100.0,
                   REFERENCE='NON_DEFINI',
                   CRITERE='RELATIF',
                   PRECISION=1.E-2,
                   MAILLE='MA251',),
                _F(NUME_ORDRE=1,
                   GROUP_NO='A',
                   RESULTAT=RESU,
                   NOM_CHAM='SIGM_ELNO',
                   NOM_CMP='SIYY',
                   VALE_CALC=-59.447334064,
                   VALE_REFE=-60.0,
                   REFERENCE='NON_DEFINI',
                   CRITERE='RELATIF',
                   PRECISION=1.E-2,
                   MAILLE='MA251',),
                _F(NUME_ORDRE=1,
                   GROUP_NO='A',
                   RESULTAT=RESU,
                   NOM_CHAM='SIGM_ELNO',
                   NOM_CMP='SIZZ',
                   VALE_CALC=0.019573487,
                   VALE_REFE=0.0,
                   REFERENCE='NON_DEFINI',
                   CRITERE='ABSOLU',
                   PRECISION=0.02,
                   MAILLE='MA251',),
                _F(NUME_ORDRE=1,
                   GROUP_NO='A',
                   RESULTAT=RESU,
                   NOM_CHAM='SIGM_ELNO',
                   NOM_CMP='SIXY',
                   VALE_CALC=0.248090345,
                   VALE_REFE=0.0,
                   REFERENCE='NON_DEFINI',
                   CRITERE='ABSOLU',
                   PRECISION=0.5,
                   MAILLE='MA251',),
                ),
          )

#-----------------------------------------------------------------

TEST_RESU(RESU=(_F(NUME_ORDRE=1,
                   GROUP_NO='B',
                   RESULTAT=RESU,
                   NOM_CHAM='SIGM_ELNO',
                   NOM_CMP='SIXX',
                   VALE_CALC=40.0,
                   TOLE_MACHINE=1.E-3,
                   CRITERE='RELATIF',
                   MAILLE='MA551',),
                _F(NUME_ORDRE=1,
                   GROUP_NO='B',
                   RESULTAT=RESU,
                   NOM_CHAM='SIGM_ELNO',
                   NOM_CMP='SIYY',
                   VALE_CALC=0.078063711,
                   VALE_REFE=0.0,
                   REFERENCE='NON_DEFINI',
                   CRITERE='ABSOLU',
                   PRECISION=0.10000000000000001,
                   MAILLE='MA551',),
                _F(NUME_ORDRE=1,
                   GROUP_NO='B',
                   RESULTAT=RESU,
                   NOM_CHAM='SIGM_ELNO',
                   NOM_CMP='SIZZ',
                   VALE_CALC= 5.79920531E-03,
                   VALE_REFE=0.0,
                   REFERENCE='NON_DEFINI',
                   CRITERE='ABSOLU',
                   PRECISION=0.014999999999999999,
                   MAILLE='MA551',),
                _F(NUME_ORDRE=1,
                   GROUP_NO='B',
                   RESULTAT=RESU,
                   NOM_CHAM='SIGM_ELNO',
                   NOM_CMP='SIXY',
                   VALE_CALC=-0.018192044,
                   VALE_REFE=0.0,
                   REFERENCE='NON_DEFINI',
                   CRITERE='ABSOLU',
                   PRECISION=0.14999999999999999,
                   MAILLE='MA551',),
                ),
          )

#-----------------------------------------------------------------

TEST_RESU(RESU=(_F(NUME_ORDRE=1,
                   GROUP_NO='E',
                   RESULTAT=RESU,
                   NOM_CHAM='SIGM_ELNO',
                   NOM_CMP='SIXX',
                   VALE_CALC=20.122546648,
                   VALE_REFE=20.0,
                   REFERENCE='NON_DEFINI',
                   CRITERE='RELATIF',
                   PRECISION=0.10000000000000001,
                   MAILLE='MA399',),
                _F(NUME_ORDRE=1,
                   GROUP_NO='E',
                   RESULTAT=RESU,
                   NOM_CHAM='SIGM_ELNO',
                   NOM_CMP='SIYY',
                   VALE_CALC=20.099889301,
                   VALE_REFE=20.0,
                   REFERENCE='NON_DEFINI',
                   CRITERE='RELATIF',
                   PRECISION=0.10000000000000001,
                   MAILLE='MA399',),
                _F(NUME_ORDRE=1,
                   GROUP_NO='E',
                   RESULTAT=RESU,
                   NOM_CHAM='SIGM_ELNO',
                   NOM_CMP='SIZZ',
                   VALE_CALC=0.014838314,
                   VALE_REFE=0.0,
                   REFERENCE='NON_DEFINI',
                   CRITERE='ABSOLU',
                   PRECISION=0.5,
                   MAILLE='MA399',),
                _F(NUME_ORDRE=1,
                   GROUP_NO='E',
                   RESULTAT=RESU,
                   NOM_CHAM='SIGM_ELNO',
                   NOM_CMP='SIXY',
                   VALE_CALC=79.799288456,
                   VALE_REFE=80.0,
                   REFERENCE='NON_DEFINI',
                   CRITERE='RELATIF',
                   PRECISION=1.E-2,
                   MAILLE='MA399',),
                ),
          )

#-----------------------------------------------------------------

TEST_RESU(RESU=(_F(NUME_ORDRE=1,
                   GROUP_NO='F',
                   RESULTAT=RESU,
                   NOM_CHAM='SIGM_ELNO',
                   NOM_CMP='SIXX',
                   VALE_CALC=20.018948665,
                   VALE_REFE=20.0,
                   REFERENCE='NON_DEFINI',
                   CRITERE='RELATIF',
                   PRECISION=1.E-2,
                   MAILLE='MA695',),
                _F(NUME_ORDRE=1,
                   GROUP_NO='F',
                   RESULTAT=RESU,
                   NOM_CHAM='SIGM_ELNO',
                   NOM_CMP='SIYY',
                   VALE_CALC=20.007617813,
                   VALE_REFE=20.0,
                   REFERENCE='NON_DEFINI',
                   CRITERE='RELATIF',
                   PRECISION=1.E-2,
                   MAILLE='MA695',),
                _F(NUME_ORDRE=1,
                   GROUP_NO='F',
                   RESULTAT=RESU,
                   NOM_CHAM='SIGM_ELNO',
                   NOM_CMP='SIZZ',
                   VALE_CALC= 2.13521176E-03,
                   VALE_REFE=0.0,
                   REFERENCE='NON_DEFINI',
                   CRITERE='ABSOLU',
                   PRECISION=0.050000000000000003,
                   MAILLE='MA695',),
                _F(NUME_ORDRE=1,
                   GROUP_NO='F',
                   RESULTAT=RESU,
                   NOM_CHAM='SIGM_ELNO',
                   NOM_CMP='SIXY',
                   VALE_CALC=20.0,
                   TOLE_MACHINE=1.E-3,
                   CRITERE='RELATIF',
                   MAILLE='MA695',),
                ),
          )

FIN( )
