# MODIF  DATE 12/05/2009   AUTEUR PELLET J.PELLET 
# TITRE POUTRE EN ROTATION
# sslv104b.para = tps_job 60 mem_job 128Mo ncpus 1 liste_test S
#            CONFIGURATION MANAGEMENT OF EDF VERSION
# ======================================================================
# COPYRIGHT (C) 1991 - 2001  EDF R&D                  WWW.CODE-ASTER.ORG
# THIS PROGRAM IS FREE SOFTWARE; YOU CAN REDISTRIBUTE IT AND/OR MODIFY
# IT UNDER THE TERMS OF THE GNU GENERAL PUBLIC LICENSE AS PUBLISHED BY
# THE FREE SOFTWARE FOUNDATION; EITHER VERSION 2 OF THE LICENSE, OR
# (AT YOUR OPTION) ANY LATER VERSION.
#
# THIS PROGRAM IS DISTRIBUTED IN THE HOPE THAT IT WILL BE USEFUL, BUT
# WITHOUT ANY WARRANTY; WITHOUT EVEN THE IMPLIED WARRANTY OF
# MERCHANTABILITY OR FITNESS FOR A PARTICULAR PURPOSE. SEE THE GNU
# GENERAL PUBLIC LICENSE FOR MORE DETAILS.
#
# YOU SHOULD HAVE RECEIVED A COPY OF THE GNU GENERAL PUBLIC LICENSE
# ALONG WITH THIS PROGRAM; IF NOT, WRITE TO EDF R&D CODE_ASTER,
#    1 AVENUE DU GENERAL DE GAULLE, 92141 CLAMART CEDEX, FRANCE.
# ======================================================================

DEBUT(CODE=_F(NOM='SSLV104B', NIV_PUB_WEB='INTERNET'), DEBUG=_F(SDVERI='OUI'))

#   FICHIER DE COMMANDE ASTER
# MODELISATION MEC3QU9H:  37 NOEUDS --   8 MAILLES QUAD9
#

MAILET=LIRE_MAILLAGE( )

MAILET=DEFI_GROUP( reuse=MAILET,   MAILLAGE=MAILET,
  CREA_GROUP_MA=_F(  NOM = 'TOUT', TOUT = 'OUI'))

#
#

MODELE=AFFE_MODELE(   MAILLAGE=MAILET,
                         AFFE=_F( TOUT = 'OUI', PHENOMENE = 'MECANIQUE',
                        MODELISATION = 'COQUE_3D'))

#
#
MATER=DEFI_MATERIAU(  ELAS=_F( E = 2.00E11,   NU = 0.0,  RHO = 7800.0))

#
#
CHAMPMAT=AFFE_MATERIAU(  MAILLAGE=MAILET,
                      AFFE=_F( TOUT = 'OUI',MATER = MATER))

#                    AFFE: (TOUT:'OUI',MATER: MATER,TEMP_REF: 0.));
#
#
CHARGE=AFFE_CHAR_MECA(  MODELE=MODELE,
              DDL_IMPO=_F( GROUP_NO = 'ABC',      DX = 0.,  DY = 0.,  DZ = 0.,
                                          DRX = 0., DRY = 0., DRZ = 0.),
                         ROTATION=(3000.,1.,0.,-1.,)           )

#
#
CARAC__1=AFFE_CARA_ELEM(   MODELE=MODELE,
                               COQUE=_F(
       GROUP_MA = 'TOUT',
  EPAIS = 0.020,
                                  A_CIS = 0.83333333333333) )

#
RIGIELEM=CALC_MATR_ELEM(  MODELE=MODELE,      CHARGE=CHARGE,
                         CHAM_MATER=CHAMPMAT,
                         CARA_ELEM=CARAC__1,
                         OPTION='RIGI_MECA')

#
INELEM=CALC_VECT_ELEM(  OPTION='CHAR_MECA',
                         CHAM_MATER=CHAMPMAT,
                         CARA_ELEM=CARAC__1,
                         CHARGE=CHARGE)

#
#
NUMEROTA=NUME_DDL(   MATR_RIGI=RIGIELEM)

#
#
ELAS=ASSE_MATRICE(  MATR_ELEM=RIGIELEM,  NUME_DDL=NUMEROTA)

#
#
INERTIE=ASSE_VECTEUR( VECT_ELEM=INELEM,
                           NUME_DDL=NUMEROTA)

#
#
ELAS=FACTORISER( reuse=ELAS,  MATR_ASSE=ELAS )

#
#
DEPL=RESOUDRE(   MATR=ELAS,
                  CHAM_NO=INERTIE)

#

TEST_RESU(CHAM_NO=(
 _F( CHAM_GD = DEPL,GROUP_NO = 'D',   PRECISION = 1.E-3,NOM_CMP = 'DX',VALE = 0.00844),
 _F( CHAM_GD = DEPL,GROUP_NO = 'D',   PRECISION = 1.E-3,NOM_CMP = 'DY',VALE = 0.00844),
 _F( CHAM_GD = DEPL,GROUP_NO = 'D',   PRECISION = 1.E-3,NOM_CMP = 'DZ',VALE = 0.00844))
                         )

#
FIN()
#
