# TITRE CYLINDRE EN INCOMPRESSIBLE (PENTA15 HEXA20)
# ======================================================================
# COPYRIGHT (C) 1991 - 2013  EDF R&D                  WWW.CODE-ASTER.ORG
# THIS PROGRAM IS FREE SOFTWARE; YOU CAN REDISTRIBUTE IT AND/OR MODIFY
# IT UNDER THE TERMS OF THE GNU GENERAL PUBLIC LICENSE AS PUBLISHED BY
# THE FREE SOFTWARE FOUNDATION; EITHER VERSION 2 OF THE LICENSE, OR
# (AT YOUR OPTION) ANY LATER VERSION.
#
# THIS PROGRAM IS DISTRIBUTED IN THE HOPE THAT IT WILL BE USEFUL, BUT
# WITHOUT ANY WARRANTY; WITHOUT EVEN THE IMPLIED WARRANTY OF
# MERCHANTABILITY OR FITNESS FOR A PARTICULAR PURPOSE. SEE THE GNU
# GENERAL PUBLIC LICENSE FOR MORE DETAILS.
#
# YOU SHOULD HAVE RECEIVED A COPY OF THE GNU GENERAL PUBLIC LICENSE
# ALONG WITH THIS PROGRAM; IF NOT, WRITE TO EDF R&D CODE_ASTER,
#    1 AVENUE DU GENERAL DE GAULLE, 92141 CLAMART CEDEX, FRANCE.
# ======================================================================
# CAS_TEST__: SSLV130A
#
# ----------------------------------------------------------------------
#
# CYLINDRE CREUX EN INCOMPRESSIBLE (NU=0.4999)
# SOUS PRESSION INTERNE (60 MPA)
#
# MODELISATION : ELEMENTS MECANIQUE 3D INCOMP.(HEXA20+QUAD8)
# MAILLAGE     : GIBI
# ----------------------------------------------------------------------
# GROUPES DE NOEUDS ET MAILLES :
# GRNO: A B C D E F  NOEUMI
# GRMA: FACEEF     FACEAE   FACEAB   FACESUP   FACEINF VOLUME
# ----------------------------------------------------------------------

DEBUT(CODE=_F(
              NIV_PUB_WEB='INTERNET',),
      DEBUG=_F(SDVERI='OUI',),);

M=LIRE_MAILLAGE(FORMAT='MED',
                VERI_MAIL=_F(VERIF='OUI',),);

MO=AFFE_MODELE(MAILLAGE=M,
               
               AFFE=_F(GROUP_MA=('VOLUME','FACEEF','FACEAE','FACEAB','FACSUP','FACINF',),
                       PHENOMENE='MECANIQUE',
                       MODELISATION='3D_INCO_UPG',),);

M=MODI_MAILLAGE(reuse =M,
                MAILLAGE=M,
                ORIE_PEAU_3D=_F(GROUP_MA=('FACEEF','FACEAE',),),);

MA=DEFI_MATERIAU(ELAS=_F(E=200000.,
                         NU=0.4999,
                         ALPHA=0.,),);

CM=AFFE_MATERIAU(MAILLAGE=M,
                 AFFE=_F(TOUT='OUI',
                         MATER=MA,),);

CH=AFFE_CHAR_MECA(MODELE=MO,
                  DDL_IMPO=(_F(GROUP_MA='FACEAB',
                               DX=0.,),
                            _F(GROUP_MA='FACSUP',
                               DZ=0.,),
                            _F(GROUP_MA='FACINF',
                               DZ=0.,),),
                  FACE_IMPO=_F(GROUP_MA='FACEEF',
                               DNOR=0.,),
                  PRES_REP=_F(GROUP_MA='FACEAE',
                              PRES=60.,),);

INSTANTS=DEFI_LIST_REEL(DEBUT=0.,
                        INTERVALLE=_F(JUSQU_A=1.,
                                      NOMBRE=1,),);

RAMPE=DEFI_FONCTION(NOM_PARA='INST',VALE=(0.,0.,
                          1.,1.,
                          ),);

EVOL=STAT_NON_LINE(MODELE=MO,
                   CHAM_MATER=CM,
                   EXCIT=_F(CHARGE=CH,
                            FONC_MULT=RAMPE,),
                   COMPORTEMENT=_F(RELATION='ELAS',),
                   INCREMENT=_F(LIST_INST=INSTANTS,),
                   NEWTON=_F(REAC_ITER=1,),
                   SOLVEUR=_F(RENUM='MD',),);

EVOL=CALC_CHAMP(reuse=EVOL,RESULTAT=EVOL,CRITERES=('SIEQ_ELNO','EPEQ_ELNO'),DEFORMATION=('EPSI_ELNO'),CONTRAINTE=('SIGM_ELNO'))


EVOL=CALC_CHAMP(reuse =EVOL,
             RESULTAT=EVOL,
             DEFORMATION='EPSI_NOEU',CONTRAINTE='SIGM_NOEU',CRITERES=('EPEQ_NOEU','SIEQ_NOEU'));

#--------------------------------------------------------------
#       COMPARAISON DES RESULTATS A LA SOLUTION ANALYTIQUE
#        POUR UN  SOLIDE INCOMPRESSIBLE NU = 0.5 3D_INCO_UPG
#---------------------------------------------------------------

TEST_RESU(RESU=(_F(GROUP_NO='A',
                   INST=1.0,
                   REFERENCE='ANALYTIQUE',
                   RESULTAT=EVOL,
                   NOM_CHAM='DEPL',
                   NOM_CMP='DX',
                   VALE_CALC=-6.25348543E-22,
                   VALE_REFE=0.0,
                   CRITERE='ABSOLU',
                   PRECISION=1.0000000000000001E-05,),
                _F(GROUP_NO='A',
                   INST=1.0,
                   REFERENCE='ANALYTIQUE',
                   RESULTAT=EVOL,
                   NOM_CHAM='DEPL',
                   NOM_CMP='DY',
                   VALE_CALC= 5.99974804E-05,
                   VALE_REFE=6.0000000000000002E-05,
                   CRITERE='RELATIF',
                   PRECISION=1.E-3,),
                _F(GROUP_NO='F',
                   INST=1.0,
                   REFERENCE='ANALYTIQUE',
                   RESULTAT=EVOL,
                   NOM_CHAM='DEPL',
                   NOM_CMP='DX',
                   VALE_CALC=-2.12165334E-05,
                   VALE_REFE=-2.1213203E-05,
                   CRITERE='RELATIF',
                   PRECISION=1.E-3,),
                _F(GROUP_NO='F',
                   INST=1.0,
                   REFERENCE='ANALYTIQUE',
                   RESULTAT=EVOL,
                   NOM_CHAM='DEPL',
                   NOM_CMP='DY',
                   VALE_CALC= 2.12165334E-05,
                   VALE_REFE=2.1213203E-05,
                   CRITERE='RELATIF',
                   PRECISION=1.E-3,),
                ),
          )

TEST_RESU(RESU=(_F(GROUP_NO='A',
                   INST=1.0,
                   REFERENCE='ANALYTIQUE',
                   RESULTAT=EVOL,
                   NOM_CHAM='EPSI_NOEU',
                   NOM_CMP='EPXX',
                   VALE_CALC= 5.99416646E-04,
                   VALE_REFE=5.9999999999999995E-4,
                   CRITERE='RELATIF',
                   PRECISION=5.0000000000000001E-3,),
                _F(GROUP_NO='A',
                   INST=1.0,
                   REFERENCE='ANALYTIQUE',
                   RESULTAT=EVOL,
                   NOM_CHAM='EPSI_NOEU',
                   NOM_CMP='EPYY',
                   VALE_CALC=-5.99358521E-04,
                   VALE_REFE=-5.9999999999999995E-4,
                   CRITERE='RELATIF',
                   PRECISION=5.0000000000000001E-3,),
                _F(GROUP_NO='A',
                   INST=1.0,
                   REFERENCE='ANALYTIQUE',
                   RESULTAT=EVOL,
                   NOM_CHAM='EPSI_NOEU',
                   NOM_CMP='EPZZ',
                   VALE_CALC=-9.56302678E-16,
                   VALE_REFE=0.0,
                   CRITERE='ABSOLU',
                   PRECISION=1.0000000000000001E-05,),
                _F(GROUP_NO='A',
                   INST=1.0,
                   REFERENCE='ANALYTIQUE',
                   RESULTAT=EVOL,
                   NOM_CHAM='EPSI_NOEU',
                   NOM_CMP='EPXY',
                   VALE_CALC=-3.49180879E-07,
                   VALE_REFE=0.0,
                   CRITERE='ABSOLU',
                   PRECISION=1.0000000000000001E-05,),
                _F(GROUP_NO='F',
                   INST=1.0,
                   REFERENCE='ANALYTIQUE',
                   RESULTAT=EVOL,
                   NOM_CHAM='EPSI_NOEU',
                   NOM_CMP='EPXX',
                   VALE_CALC= 2.13023695E-07,
                   VALE_REFE=0.0,
                   CRITERE='ABSOLU',
                   PRECISION=1.0000000000000001E-05,),
                _F(GROUP_NO='F',
                   INST=1.0,
                   REFERENCE='ANALYTIQUE',
                   RESULTAT=EVOL,
                   NOM_CHAM='EPSI_NOEU',
                   NOM_CMP='EPYY',
                   VALE_CALC=-1.52481193E-07,
                   VALE_REFE=0.0,
                   CRITERE='ABSOLU',
                   PRECISION=1.0000000000000001E-05,),
                _F(GROUP_NO='F',
                   INST=1.0,
                   REFERENCE='ANALYTIQUE',
                   RESULTAT=EVOL,
                   NOM_CHAM='EPSI_NOEU',
                   NOM_CMP='EPXY',
                   VALE_CALC= 1.50146448E-04,
                   VALE_REFE=1.4999999999999999E-4,
                   CRITERE='RELATIF',
                   PRECISION=5.0000000000000001E-3,),
                ),
          )

TEST_RESU(RESU=(_F(GROUP_NO='A',
                   INST=1.0,
                   REFERENCE='ANALYTIQUE',
                   RESULTAT=EVOL,
                   NOM_CHAM='SIGM_NOEU',
                   NOM_CMP='SIXX',
                   VALE_CALC=99.923684533,
                   VALE_REFE=100.0,
                   CRITERE='RELATIF',
                   PRECISION=5.0000000000000001E-3,),
                _F(GROUP_NO='A',
                   INST=1.0,
                   REFERENCE='ANALYTIQUE',
                   RESULTAT=EVOL,
                   NOM_CHAM='SIGM_NOEU',
                   NOM_CMP='SIYY',
                   VALE_CALC=-59.923660917,
                   VALE_REFE=-60.0,
                   CRITERE='RELATIF',
                   PRECISION=5.0000000000000001E-3,),
                _F(GROUP_NO='A',
                   INST=1.0,
                   REFERENCE='ANALYTIQUE',
                   RESULTAT=EVOL,
                   NOM_CHAM='SIGM_NOEU',
                   NOM_CMP='SIZZ',
                   VALE_CALC=19.996136554,
                   VALE_REFE=20.0,
                   CRITERE='RELATIF',
                   PRECISION=5.0000000000000001E-3,),
                _F(GROUP_NO='A',
                   INST=1.0,
                   REFERENCE='ANALYTIQUE',
                   RESULTAT=EVOL,
                   NOM_CHAM='SIGM_NOEU',
                   NOM_CMP='SIXY',
                   VALE_CALC=-0.046560555,
                   VALE_REFE=0.0,
                   CRITERE='ABSOLU',
                   PRECISION=0.050000000000000003,),
                _F(GROUP_NO='F',
                   INST=1.0,
                   REFERENCE='ANALYTIQUE',
                   RESULTAT=EVOL,
                   NOM_CHAM='SIGM_NOEU',
                   NOM_CMP='SIXX',
                   VALE_CALC=20.024353788,
                   VALE_REFE=20.0,
                   CRITERE='RELATIF',
                   PRECISION=5.0000000000000001E-3,),
                _F(GROUP_NO='F',
                   INST=1.0,
                   REFERENCE='ANALYTIQUE',
                   RESULTAT=EVOL,
                   NOM_CHAM='SIGM_NOEU',
                   NOM_CMP='SIYY',
                   VALE_CALC=19.975616554,
                   VALE_REFE=20.0,
                   CRITERE='RELATIF',
                   PRECISION=5.0000000000000001E-3,),
                _F(GROUP_NO='F',
                   INST=1.0,
                   REFERENCE='ANALYTIQUE',
                   RESULTAT=EVOL,
                   NOM_CHAM='SIGM_NOEU',
                   NOM_CMP='SIZZ',
                   VALE_CALC=19.995948735,
                   VALE_REFE=20.0,
                   CRITERE='RELATIF',
                   PRECISION=5.0000000000000001E-3,),
                _F(GROUP_NO='F',
                   INST=1.0,
                   REFERENCE='ANALYTIQUE',
                   RESULTAT=EVOL,
                   NOM_CHAM='SIGM_NOEU',
                   NOM_CMP='SIXY',
                   VALE_CALC=20.020861080,
                   VALE_REFE=20.0,
                   CRITERE='RELATIF',
                   PRECISION=5.0000000000000001E-3,),
                ),
          )

TEST_RESU(RESU=(_F(GROUP_NO='A',
                   INST=1.0,
                   REFERENCE='ANALYTIQUE',
                   RESULTAT=EVOL,
                   NOM_CHAM='EPEQ_NOEU',
                   NOM_CMP='INVA_2',
                   VALE_CALC= 6.92113283E-04,
                   VALE_REFE=6.9282000000000002E-4,
                   CRITERE='RELATIF',
                   PRECISION=5.0000000000000001E-3,
                   MAILLE='M1',),
                _F(GROUP_NO='A',
                   INST=1.0,
                   REFERENCE='ANALYTIQUE',
                   RESULTAT=EVOL,
                   NOM_CHAM='EPEQ_NOEU',
                   NOM_CMP='PRIN_1',
                   VALE_CALC=-5.99358623E-04,
                   VALE_REFE=-5.9999999999999995E-4,
                   CRITERE='RELATIF',
                   PRECISION=5.0000000000000001E-3,
                   MAILLE='M1',),
                _F(GROUP_NO='A',
                   INST=1.0,
                   REFERENCE='ANALYTIQUE',
                   RESULTAT=EVOL,
                   NOM_CHAM='EPEQ_NOEU',
                   NOM_CMP='PRIN_2',
                   VALE_CALC=-9.56302678E-16,
                   VALE_REFE=0.0,
                   CRITERE='ABSOLU',
                   PRECISION=1.0000000000000001E-05,
                   MAILLE='M1',),
                _F(GROUP_NO='A',
                   INST=1.0,
                   REFERENCE='ANALYTIQUE',
                   RESULTAT=EVOL,
                   NOM_CHAM='EPEQ_NOEU',
                   NOM_CMP='PRIN_3',
                   VALE_CALC= 5.99416748E-04,
                   VALE_REFE=5.9999999999999995E-4,
                   CRITERE='RELATIF',
                   PRECISION=5.0000000000000001E-3,
                   MAILLE='M1',),
                ),
          )

TEST_RESU(RESU=(_F(GROUP_NO='A',
                   INST=1.0,
                   REFERENCE='ANALYTIQUE',
                   RESULTAT=EVOL,
                   NOM_CHAM='SIEQ_NOEU',
                   NOM_CMP='VMIS',
                   VALE_CALC=138.431885431,
                   VALE_REFE=138.5641,
                   CRITERE='RELATIF',
                   PRECISION=5.0000000000000001E-3,
                   MAILLE='M1',),
                _F(GROUP_NO='A',
                   INST=1.0,
                   REFERENCE='ANALYTIQUE',
                   RESULTAT=EVOL,
                   NOM_CHAM='SIEQ_NOEU',
                   NOM_CMP='TRESCA',
                   VALE_CALC=159.847372574,
                   VALE_REFE=160.0,
                   CRITERE='RELATIF',
                   PRECISION=5.0000000000000001E-3,
                   MAILLE='M1',),
                _F(GROUP_NO='A',
                   INST=1.0,
                   REFERENCE='ANALYTIQUE',
                   RESULTAT=EVOL,
                   NOM_CHAM='SIEQ_NOEU',
                   NOM_CMP='PRIN_1',
                   VALE_CALC=-59.923674479,
                   VALE_REFE=-60.0,
                   CRITERE='RELATIF',
                   PRECISION=5.0000000000000001E-3,
                   MAILLE='M1',),
                _F(GROUP_NO='A',
                   INST=1.0,
                   REFERENCE='ANALYTIQUE',
                   RESULTAT=EVOL,
                   NOM_CHAM='SIEQ_NOEU',
                   NOM_CMP='PRIN_2',
                   VALE_CALC=19.996136554,
                   VALE_REFE=20.0,
                   CRITERE='RELATIF',
                   PRECISION=5.0000000000000001E-3,
                   MAILLE='M1',),
                _F(GROUP_NO='A',
                   INST=1.0,
                   REFERENCE='ANALYTIQUE',
                   RESULTAT=EVOL,
                   NOM_CHAM='SIEQ_NOEU',
                   NOM_CMP='PRIN_3',
                   VALE_CALC=99.923698095,
                   VALE_REFE=100.0,
                   CRITERE='RELATIF',
                   PRECISION=5.0000000000000001E-3,
                   MAILLE='M1',),
                _F(GROUP_NO='A',
                   INST=1.0,
                   REFERENCE='ANALYTIQUE',
                   RESULTAT=EVOL,
                   NOM_CHAM='SIEQ_NOEU',
                   NOM_CMP='VMIS_SG',
                   VALE_CALC=138.431885431,
                   VALE_REFE=138.5641,
                   CRITERE='RELATIF',
                   PRECISION=5.0000000000000001E-3,
                   MAILLE='M1',),
                ),
          )

#-----------------------------------------------------------------
#  TEST IDENTIQUE EN IMPOSANT LA CONDITION TR(EPS)=0
#------------------------------------------------------------------

M=DEFI_GROUP(reuse =M,
             MAILLAGE=M,
             CREA_GROUP_NO=_F(GROUP_MA='VOLUME',
                              NOM='MSOMMET',
                              CRIT_NOEUD='SOMMET',),);

CH_AC1=AFFE_CHAR_CINE(MODELE=MO,
                      MECA_IMPO=(_F(GROUP_MA='FACEAB',
                                    DX=0.,),
                                 _F(GROUP_MA='FACSUP',
                                    DZ=0.,),
                                 _F(GROUP_MA='FACINF',
                                    DZ=0.,),),
                      INFO=2,);

CH_AC2=AFFE_CHAR_CINE(MODELE=MO,
                      MECA_IMPO=_F(GROUP_NO='MSOMMET',
                                   GONF=0.,),
                      INFO=2,);

CH2=AFFE_CHAR_MECA(MODELE=MO,
                   FACE_IMPO=_F(GROUP_MA='FACEEF',
                                DNOR=0.,),
                   PRES_REP=_F(GROUP_MA='FACEAE',
                               PRES=60.,),);

EVOL2=STAT_NON_LINE(MODELE=MO,
                    CHAM_MATER=CM,
                    EXCIT=(_F(CHARGE=CH_AC1,),
                           _F(CHARGE=CH_AC2,),
                           _F(CHARGE=CH2,
                              FONC_MULT=RAMPE,),),
                    COMPORTEMENT=_F(RELATION='ELAS',),
                    INCREMENT=_F(LIST_INST=INSTANTS,),
                    NEWTON=_F(REAC_ITER=1,),
                    SOLVEUR=_F(RENUM='MD',),);

IMPR_RESU(RESU=_F(RESULTAT=EVOL2,
                  NOM_CHAM='DEPL',
                  INST=1.0,),);

EVOL2=CALC_CHAMP(reuse=EVOL2,RESULTAT=EVOL2,CRITERES=('SIEQ_ELNO','EPEQ_ELNO'),DEFORMATION=('EPSI_ELNO'),CONTRAINTE=('SIGM_ELNO'))


EVOL2=CALC_CHAMP(reuse =EVOL2,
              RESULTAT=EVOL2,
              DEFORMATION='EPSI_NOEU',CONTRAINTE='SIGM_NOEU',CRITERES=('EPEQ_NOEU','SIEQ_NOEU'));

TEST_RESU(RESU=(_F(GROUP_NO='A',
                   INST=1.0,
                   REFERENCE='ANALYTIQUE',
                   RESULTAT=EVOL2,
                   NOM_CHAM='DEPL',
                   NOM_CMP='DX',
                   VALE_CALC= 0.00000000E+00,
                   VALE_REFE=0.0,
                   CRITERE='ABSOLU',
                   PRECISION=1.0000000000000001E-05,),
                _F(GROUP_NO='A',
                   INST=1.0,
                   REFERENCE='ANALYTIQUE',
                   RESULTAT=EVOL2,
                   NOM_CHAM='DEPL',
                   NOM_CMP='DY',
                   VALE_CALC= 5.99944806E-05,
                   VALE_REFE=6.0000000000000002E-05,
                   CRITERE='RELATIF',
                   PRECISION=1.E-3,),
                _F(GROUP_NO='F',
                   INST=1.0,
                   REFERENCE='ANALYTIQUE',
                   RESULTAT=EVOL2,
                   NOM_CHAM='DEPL',
                   NOM_CMP='DX',
                   VALE_CALC=-2.12122910E-05,
                   VALE_REFE=-2.1213203E-05,
                   CRITERE='RELATIF',
                   PRECISION=1.E-3,),
                _F(GROUP_NO='F',
                   INST=1.0,
                   REFERENCE='ANALYTIQUE',
                   RESULTAT=EVOL2,
                   NOM_CHAM='DEPL',
                   NOM_CMP='DY',
                   VALE_CALC= 2.12122910E-05,
                   VALE_REFE=2.1213203E-05,
                   CRITERE='RELATIF',
                   PRECISION=1.E-3,),
                ),
          )

TEST_RESU(RESU=(_F(GROUP_NO='A',
                   INST=1.0,
                   REFERENCE='ANALYTIQUE',
                   RESULTAT=EVOL2,
                   NOM_CHAM='EPSI_NOEU',
                   NOM_CMP='EPXX',
                   VALE_CALC= 5.99386648E-04,
                   VALE_REFE=5.9999999999999995E-4,
                   CRITERE='RELATIF',
                   PRECISION=5.0000000000000001E-3,),
                _F(GROUP_NO='A',
                   INST=1.0,
                   REFERENCE='ANALYTIQUE',
                   RESULTAT=EVOL2,
                   NOM_CHAM='EPSI_NOEU',
                   NOM_CMP='EPYY',
                   VALE_CALC=-5.99388519E-04,
                   VALE_REFE=-5.9999999999999995E-4,
                   CRITERE='RELATIF',
                   PRECISION=5.0000000000000001E-3,),
                _F(GROUP_NO='A',
                   INST=1.0,
                   REFERENCE='ANALYTIQUE',
                   RESULTAT=EVOL2,
                   NOM_CHAM='EPSI_NOEU',
                   NOM_CMP='EPZZ',
                   VALE_CALC=-9.43690154E-16,
                   VALE_REFE=0.0,
                   CRITERE='ABSOLU',
                   PRECISION=1.0000000000000001E-05,),
                _F(GROUP_NO='A',
                   INST=1.0,
                   REFERENCE='ANALYTIQUE',
                   RESULTAT=EVOL2,
                   NOM_CHAM='EPSI_NOEU',
                   NOM_CMP='EPXY',
                   VALE_CALC=-3.49180879E-07,
                   VALE_REFE=0.0,
                   CRITERE='ABSOLU',
                   PRECISION=1.0000000000000001E-05,),
                _F(GROUP_NO='F',
                   INST=1.0,
                   REFERENCE='ANALYTIQUE',
                   RESULTAT=EVOL2,
                   NOM_CHAM='EPSI_NOEU',
                   NOM_CMP='EPXX',
                   VALE_CALC= 1.83025735E-07,
                   VALE_REFE=0.0,
                   CRITERE='ABSOLU',
                   PRECISION=1.0000000000000001E-05,),
                _F(GROUP_NO='F',
                   INST=1.0,
                   REFERENCE='ANALYTIQUE',
                   RESULTAT=EVOL2,
                   NOM_CHAM='EPSI_NOEU',
                   NOM_CMP='EPYY',
                   VALE_CALC=-1.82479153E-07,
                   VALE_REFE=0.0,
                   CRITERE='ABSOLU',
                   PRECISION=1.0000000000000001E-05,),
                _F(GROUP_NO='F',
                   INST=1.0,
                   REFERENCE='ANALYTIQUE',
                   RESULTAT=EVOL2,
                   NOM_CHAM='EPSI_NOEU',
                   NOM_CMP='EPXY',
                   VALE_CALC= 1.50146448E-04,
                   VALE_REFE=1.4999999999999999E-4,
                   CRITERE='RELATIF',
                   PRECISION=5.0000000000000001E-3,),
                ),
          )

TEST_RESU(RESU=(_F(GROUP_NO='A',
                   INST=1.0,
                   REFERENCE='ANALYTIQUE',
                   RESULTAT=EVOL2,
                   NOM_CHAM='SIGM_NOEU',
                   NOM_CMP='SIXX',
                   VALE_CALC=99.923684554,
                   VALE_REFE=100.0,
                   CRITERE='RELATIF',
                   PRECISION=5.0000000000000001E-3,),
                _F(GROUP_NO='A',
                   INST=1.0,
                   REFERENCE='ANALYTIQUE',
                   RESULTAT=EVOL2,
                   NOM_CHAM='SIGM_NOEU',
                   NOM_CMP='SIYY',
                   VALE_CALC=-59.923660916,
                   VALE_REFE=-60.0,
                   CRITERE='RELATIF',
                   PRECISION=5.0000000000000001E-3,),
                _F(GROUP_NO='A',
                   INST=1.0,
                   REFERENCE='ANALYTIQUE',
                   RESULTAT=EVOL2,
                   NOM_CHAM='SIGM_NOEU',
                   NOM_CMP='SIZZ',
                   VALE_CALC=20.000136575,
                   VALE_REFE=20.0,
                   CRITERE='RELATIF',
                   PRECISION=5.0000000000000001E-3,),
                _F(GROUP_NO='A',
                   INST=1.0,
                   REFERENCE='ANALYTIQUE',
                   RESULTAT=EVOL2,
                   NOM_CHAM='SIGM_NOEU',
                   NOM_CMP='SIXY',
                   VALE_CALC=-0.046560555,
                   VALE_REFE=0.0,
                   CRITERE='ABSOLU',
                   PRECISION=0.050000000000000003,),
                _F(GROUP_NO='F',
                   INST=1.0,
                   REFERENCE='ANALYTIQUE',
                   RESULTAT=EVOL2,
                   NOM_CHAM='SIGM_NOEU',
                   NOM_CMP='SIXX',
                   VALE_CALC=20.024353783,
                   VALE_REFE=20.0,
                   CRITERE='RELATIF',
                   PRECISION=5.0000000000000001E-3,),
                _F(GROUP_NO='F',
                   INST=1.0,
                   REFERENCE='ANALYTIQUE',
                   RESULTAT=EVOL2,
                   NOM_CHAM='SIGM_NOEU',
                   NOM_CMP='SIYY',
                   VALE_CALC=19.975616549,
                   VALE_REFE=20.0,
                   CRITERE='RELATIF',
                   PRECISION=5.0000000000000001E-3,),
                _F(GROUP_NO='F',
                   INST=1.0,
                   REFERENCE='ANALYTIQUE',
                   RESULTAT=EVOL2,
                   NOM_CHAM='SIGM_NOEU',
                   NOM_CMP='SIZZ',
                   VALE_CALC=19.999948724,
                   VALE_REFE=20.0,
                   CRITERE='RELATIF',
                   PRECISION=5.0000000000000001E-3,),
                _F(GROUP_NO='F',
                   INST=1.0,
                   REFERENCE='ANALYTIQUE',
                   RESULTAT=EVOL2,
                   NOM_CHAM='SIGM_NOEU',
                   NOM_CMP='SIXY',
                   VALE_CALC=20.020861074,
                   VALE_REFE=20.0,
                   CRITERE='RELATIF',
                   PRECISION=5.0000000000000001E-3,),
                ),
          )

TEST_RESU(RESU=(_F(GROUP_NO='A',
                   INST=1.0,
                   REFERENCE='ANALYTIQUE',
                   RESULTAT=EVOL2,
                   NOM_CHAM='EPEQ_NOEU',
                   NOM_CMP='INVA_2',
                   VALE_CALC= 6.92113283E-04,
                   VALE_REFE=6.9282000000000002E-4,
                   CRITERE='RELATIF',
                   PRECISION=5.0000000000000001E-3,
                   MAILLE='M1',),
                _F(GROUP_NO='A',
                   INST=1.0,
                   REFERENCE='ANALYTIQUE',
                   RESULTAT=EVOL2,
                   NOM_CHAM='EPEQ_NOEU',
                   NOM_CMP='PRIN_1',
                   VALE_CALC=-5.99388621E-04,
                   VALE_REFE=-5.9999999999999995E-4,
                   CRITERE='RELATIF',
                   PRECISION=5.0000000000000001E-3,
                   MAILLE='M1',),
                _F(GROUP_NO='A',
                   INST=1.0,
                   REFERENCE='ANALYTIQUE',
                   RESULTAT=EVOL2,
                   NOM_CHAM='EPEQ_NOEU',
                   NOM_CMP='PRIN_2',
                   VALE_CALC=-9.43690154E-16,
                   VALE_REFE=0.0,
                   CRITERE='ABSOLU',
                   PRECISION=1.0000000000000001E-05,
                   MAILLE='M1',),
                _F(GROUP_NO='A',
                   INST=1.0,
                   REFERENCE='ANALYTIQUE',
                   RESULTAT=EVOL2,
                   NOM_CHAM='EPEQ_NOEU',
                   NOM_CMP='PRIN_3',
                   VALE_CALC= 5.99386750E-04,
                   VALE_REFE=5.9999999999999995E-4,
                   CRITERE='RELATIF',
                   PRECISION=5.0000000000000001E-3,
                   MAILLE='M1',),
                ),
          )

TEST_RESU(RESU=(_F(GROUP_NO='A',
                   INST=1.0,
                   REFERENCE='ANALYTIQUE',
                   RESULTAT=EVOL2,
                   NOM_CHAM='SIEQ_NOEU',
                   NOM_CMP='VMIS',
                   VALE_CALC=138.431885395,
                   VALE_REFE=138.5641,
                   CRITERE='RELATIF',
                   PRECISION=5.0000000000000001E-3,
                   MAILLE='M1',),
                _F(GROUP_NO='A',
                   INST=1.0,
                   REFERENCE='ANALYTIQUE',
                   RESULTAT=EVOL2,
                   NOM_CHAM='SIEQ_NOEU',
                   NOM_CMP='TRESCA',
                   VALE_CALC=159.847372595,
                   VALE_REFE=160.0,
                   CRITERE='RELATIF',
                   PRECISION=5.0000000000000001E-3,
                   MAILLE='M1',),
                _F(GROUP_NO='A',
                   INST=1.0,
                   REFERENCE='ANALYTIQUE',
                   RESULTAT=EVOL2,
                   NOM_CHAM='SIEQ_NOEU',
                   NOM_CMP='PRIN_1',
                   VALE_CALC=-59.923674479,
                   VALE_REFE=-60.0,
                   CRITERE='RELATIF',
                   PRECISION=5.0000000000000001E-3,
                   MAILLE='M1',),
                _F(GROUP_NO='A',
                   INST=1.0,
                   REFERENCE='ANALYTIQUE',
                   RESULTAT=EVOL2,
                   NOM_CHAM='SIEQ_NOEU',
                   NOM_CMP='PRIN_2',
                   VALE_CALC=20.000136575,
                   VALE_REFE=20.0,
                   CRITERE='RELATIF',
                   PRECISION=5.0000000000000001E-3,
                   MAILLE='M1',),
                _F(GROUP_NO='A',
                   INST=1.0,
                   REFERENCE='ANALYTIQUE',
                   RESULTAT=EVOL2,
                   NOM_CHAM='SIEQ_NOEU',
                   NOM_CMP='PRIN_3',
                   VALE_CALC=99.923698116,
                   VALE_REFE=100.0,
                   CRITERE='RELATIF',
                   PRECISION=5.0000000000000001E-3,
                   MAILLE='M1',),
                _F(GROUP_NO='A',
                   INST=1.0,
                   REFERENCE='ANALYTIQUE',
                   RESULTAT=EVOL2,
                   NOM_CHAM='SIEQ_NOEU',
                   NOM_CMP='VMIS_SG',
                   VALE_CALC=138.431885395,
                   VALE_REFE=138.5641,
                   CRITERE='RELATIF',
                   PRECISION=5.0000000000000001E-3,
                   MAILLE='M1',),
                ),
          )

#--------------------------------------------------------------------------------
#  TEST SUR UN NOEUD SITUE EN MILIEU DE MAILLE POUR TESTER LE PASSAGE AUX NOEUDS MILIEUX
#  NOEUMI = A + (0 0 1/2 pas )

TEST_RESU(RESU=(_F(GROUP_NO='NOEUMI',
                   INST=1.0,
                   REFERENCE='ANALYTIQUE',
                   RESULTAT=EVOL,
                   NOM_CHAM='EPSI_NOEU',
                   NOM_CMP='EPXX',
                   VALE_CALC= 5.99416646E-04,
                   VALE_REFE=5.9999999999999995E-4,
                   CRITERE='RELATIF',
                   PRECISION=5.0000000000000001E-3,),
                _F(GROUP_NO='NOEUMI',
                   INST=1.0,
                   REFERENCE='ANALYTIQUE',
                   RESULTAT=EVOL,
                   NOM_CHAM='EPSI_NOEU',
                   NOM_CMP='EPYY',
                   VALE_CALC=-5.99358521E-04,
                   VALE_REFE=-5.9999999999999995E-4,
                   CRITERE='RELATIF',
                   PRECISION=5.0000000000000001E-3,),
                _F(GROUP_NO='NOEUMI',
                   INST=1.0,
                   REFERENCE='ANALYTIQUE',
                   RESULTAT=EVOL,
                   NOM_CHAM='SIGM_NOEU',
                   NOM_CMP='SIXX',
                   VALE_CALC=99.923684533,
                   VALE_REFE=100.0,
                   CRITERE='RELATIF',
                   PRECISION=5.0000000000000001E-3,),
                _F(GROUP_NO='NOEUMI',
                   INST=1.0,
                   REFERENCE='ANALYTIQUE',
                   RESULTAT=EVOL,
                   NOM_CHAM='SIGM_NOEU',
                   NOM_CMP='SIYY',
                   VALE_CALC=-59.923660916,
                   VALE_REFE=-60.0,
                   CRITERE='RELATIF',
                   PRECISION=5.0000000000000001E-3,),
                _F(GROUP_NO='NOEUMI',
                   INST=1.0,
                   REFERENCE='ANALYTIQUE',
                   RESULTAT=EVOL,
                   NOM_CHAM='SIGM_NOEU',
                   NOM_CMP='SIZZ',
                   VALE_CALC=19.996136554,
                   VALE_REFE=20.0,
                   CRITERE='RELATIF',
                   PRECISION=5.0000000000000001E-3,),
                ),
          )

#--------------------------------------------------------------------------------

MOUP=AFFE_MODELE(MAILLAGE=M,
               
               AFFE=_F(GROUP_MA=('VOLUME','FACEEF','FACEAE','FACEAB','FACSUP','FACINF',),
                       PHENOMENE='MECANIQUE',
                       MODELISATION='3D_INCO_UP',),);

CHUP=AFFE_CHAR_MECA(MODELE=MOUP,
                  DDL_IMPO=(_F(GROUP_MA='FACEAB',
                               DX=0.,),
                            _F(GROUP_MA='FACSUP',
                               DZ=0.,),
                            _F(GROUP_MA='FACINF',
                               DZ=0.,),),
                  FACE_IMPO=_F(GROUP_MA='FACEEF',
                               DNOR=0.,),
                  PRES_REP=_F(GROUP_MA='FACEAE',
                              PRES=60.,),);

EVOLUP=STAT_NON_LINE(MODELE=MOUP,
                   CHAM_MATER=CM,
                   EXCIT=_F(CHARGE=CHUP,
                            FONC_MULT=RAMPE,),
                   COMPORTEMENT=_F(RELATION='ELAS',),
                   INCREMENT=_F(LIST_INST=INSTANTS,),
                   NEWTON=_F(REAC_ITER=1,),
                   SOLVEUR=_F(RENUM='MD',),);

EVOLUP=CALC_CHAMP(reuse=EVOLUP,RESULTAT=EVOLUP,CRITERES=('SIEQ_ELNO','EPEQ_ELNO'),DEFORMATION=('EPSI_ELNO'),CONTRAINTE=('SIGM_ELNO'))


EVOLUP=CALC_CHAMP(reuse =EVOLUP,
             RESULTAT=EVOLUP,
             DEFORMATION='EPSI_NOEU',CONTRAINTE='SIGM_NOEU',CRITERES=('EPEQ_NOEU','SIEQ_NOEU'));

#--------------------------------------------------------------
#       COMPARAISON DES RESULTATS A LA SOLUTION ANALYTIQUE
#       POUR UN  SOLIDE INCOMPRESSIBLE NU = 0.5
#       3D_INCO_UP ET HEXA20
#---------------------------------------------------------------

TEST_RESU(RESU=(_F(GROUP_NO='A',
                   INST=1.0,
                   REFERENCE='ANALYTIQUE',
                   RESULTAT=EVOLUP,
                   NOM_CHAM='DEPL',
                   NOM_CMP='DX',
                   VALE_CALC= 3.54033302E-22,
                   VALE_REFE=0.0,
                   CRITERE='ABSOLU',
                   PRECISION=1.0000000000000001E-05,),
                _F(GROUP_NO='A',
                   INST=1.0,
                   REFERENCE='ANALYTIQUE',
                   RESULTAT=EVOLUP,
                   NOM_CHAM='DEPL',
                   NOM_CMP='DY',
                   VALE_CALC= 5.99974804E-05,
                   VALE_REFE=6.0000000000000002E-05,
                   CRITERE='RELATIF',
                   PRECISION=1.E-3,),
                _F(GROUP_NO='F',
                   INST=1.0,
                   REFERENCE='ANALYTIQUE',
                   RESULTAT=EVOLUP,
                   NOM_CHAM='DEPL',
                   NOM_CMP='DX',
                   VALE_CALC=-2.12165334E-05,
                   VALE_REFE=-2.1213203E-05,
                   CRITERE='RELATIF',
                   PRECISION=1.E-3,),
                _F(GROUP_NO='F',
                   INST=1.0,
                   REFERENCE='ANALYTIQUE',
                   RESULTAT=EVOLUP,
                   NOM_CHAM='DEPL',
                   NOM_CMP='DY',
                   VALE_CALC= 2.12165334E-05,
                   VALE_REFE=2.1213203E-05,
                   CRITERE='RELATIF',
                   PRECISION=1.E-3,),
                ),
          )

TEST_RESU(RESU=(_F(GROUP_NO='A',
                   INST=1.0,
                   REFERENCE='ANALYTIQUE',
                   RESULTAT=EVOLUP,
                   NOM_CHAM='EPSI_NOEU',
                   NOM_CMP='EPXX',
                   VALE_CALC= 5.99416646E-04,
                   VALE_REFE=5.9999999999999995E-4,
                   CRITERE='RELATIF',
                   PRECISION=5.0000000000000001E-3,),
                _F(GROUP_NO='A',
                   INST=1.0,
                   REFERENCE='ANALYTIQUE',
                   RESULTAT=EVOLUP,
                   NOM_CHAM='EPSI_NOEU',
                   NOM_CMP='EPYY',
                   VALE_CALC=-5.99358521E-04,
                   VALE_REFE=-5.9999999999999995E-4,
                   CRITERE='RELATIF',
                   PRECISION=5.0000000000000001E-3,),
                _F(GROUP_NO='A',
                   INST=1.0,
                   REFERENCE='ANALYTIQUE',
                   RESULTAT=EVOLUP,
                   NOM_CHAM='EPSI_NOEU',
                   NOM_CMP='EPZZ',
                   VALE_CALC=-9.62579248E-16,
                   VALE_REFE=0.0,
                   CRITERE='ABSOLU',
                   PRECISION=1.0000000000000001E-05,),
                _F(GROUP_NO='A',
                   INST=1.0,
                   REFERENCE='ANALYTIQUE',
                   RESULTAT=EVOLUP,
                   NOM_CHAM='EPSI_NOEU',
                   NOM_CMP='EPXY',
                   VALE_CALC=-3.49180879E-07,
                   VALE_REFE=0.0,
                   CRITERE='ABSOLU',
                   PRECISION=1.0000000000000001E-05,),
                _F(GROUP_NO='F',
                   INST=1.0,
                   REFERENCE='ANALYTIQUE',
                   RESULTAT=EVOLUP,
                   NOM_CHAM='EPSI_NOEU',
                   NOM_CMP='EPXX',
                   VALE_CALC= 2.13023695E-07,
                   VALE_REFE=0.0,
                   CRITERE='ABSOLU',
                   PRECISION=1.0000000000000001E-05,),
                _F(GROUP_NO='F',
                   INST=1.0,
                   REFERENCE='ANALYTIQUE',
                   RESULTAT=EVOLUP,
                   NOM_CHAM='EPSI_NOEU',
                   NOM_CMP='EPYY',
                   VALE_CALC=-1.52481193E-07,
                   VALE_REFE=0.0,
                   CRITERE='ABSOLU',
                   PRECISION=1.0000000000000001E-05,),
                _F(GROUP_NO='F',
                   INST=1.0,
                   REFERENCE='ANALYTIQUE',
                   RESULTAT=EVOLUP,
                   NOM_CHAM='EPSI_NOEU',
                   NOM_CMP='EPXY',
                   VALE_CALC= 1.50146448E-04,
                   VALE_REFE=1.4999999999999999E-4,
                   CRITERE='RELATIF',
                   PRECISION=5.0000000000000001E-3,),
                ),
          )

TEST_RESU(RESU=(_F(GROUP_NO='A',
                   INST=1.0,
                   REFERENCE='ANALYTIQUE',
                   RESULTAT=EVOLUP,
                   NOM_CHAM='SIGM_NOEU',
                   NOM_CMP='SIXX',
                   VALE_CALC=99.923684533,
                   VALE_REFE=100.0,
                   CRITERE='RELATIF',
                   PRECISION=5.0000000000000001E-3,),
                _F(GROUP_NO='A',
                   INST=1.0,
                   REFERENCE='ANALYTIQUE',
                   RESULTAT=EVOLUP,
                   NOM_CHAM='SIGM_NOEU',
                   NOM_CMP='SIYY',
                   VALE_CALC=-59.923660917,
                   VALE_REFE=-60.0,
                   CRITERE='RELATIF',
                   PRECISION=5.0000000000000001E-3,),
                _F(GROUP_NO='A',
                   INST=1.0,
                   REFERENCE='ANALYTIQUE',
                   RESULTAT=EVOLUP,
                   NOM_CHAM='SIGM_NOEU',
                   NOM_CMP='SIZZ',
                   VALE_CALC=19.996136554,
                   VALE_REFE=20.0,
                   CRITERE='RELATIF',
                   PRECISION=5.0000000000000001E-3,),
                _F(GROUP_NO='A',
                   INST=1.0,
                   REFERENCE='ANALYTIQUE',
                   RESULTAT=EVOLUP,
                   NOM_CHAM='SIGM_NOEU',
                   NOM_CMP='SIXY',
                   VALE_CALC=-0.046560555,
                   VALE_REFE=0.0,
                   CRITERE='ABSOLU',
                   PRECISION=0.050000000000000003,),
                _F(GROUP_NO='F',
                   INST=1.0,
                   REFERENCE='ANALYTIQUE',
                   RESULTAT=EVOLUP,
                   NOM_CHAM='SIGM_NOEU',
                   NOM_CMP='SIXX',
                   VALE_CALC=20.024353788,
                   VALE_REFE=20.0,
                   CRITERE='RELATIF',
                   PRECISION=5.0000000000000001E-3,),
                _F(GROUP_NO='F',
                   INST=1.0,
                   REFERENCE='ANALYTIQUE',
                   RESULTAT=EVOLUP,
                   NOM_CHAM='SIGM_NOEU',
                   NOM_CMP='SIYY',
                   VALE_CALC=19.975616554,
                   VALE_REFE=20.0,
                   CRITERE='RELATIF',
                   PRECISION=5.0000000000000001E-3,),
                _F(GROUP_NO='F',
                   INST=1.0,
                   REFERENCE='ANALYTIQUE',
                   RESULTAT=EVOLUP,
                   NOM_CHAM='SIGM_NOEU',
                   NOM_CMP='SIZZ',
                   VALE_CALC=19.995948735,
                   VALE_REFE=20.0,
                   CRITERE='RELATIF',
                   PRECISION=5.0000000000000001E-3,),
                _F(GROUP_NO='F',
                   INST=1.0,
                   REFERENCE='ANALYTIQUE',
                   RESULTAT=EVOLUP,
                   NOM_CHAM='SIGM_NOEU',
                   NOM_CMP='SIXY',
                   VALE_CALC=20.020861080,
                   VALE_REFE=20.0,
                   CRITERE='RELATIF',
                   PRECISION=5.0000000000000001E-3,),
                ),
          )

TEST_RESU(RESU=(_F(GROUP_NO='A',
                   INST=1.0,
                   REFERENCE='ANALYTIQUE',
                   RESULTAT=EVOLUP,
                   NOM_CHAM='EPEQ_NOEU',
                   NOM_CMP='INVA_2',
                   VALE_CALC= 6.92113283E-04,
                   VALE_REFE=6.9282000000000002E-4,
                   CRITERE='RELATIF',
                   PRECISION=5.0000000000000001E-3,
                   MAILLE='M1',),
                _F(GROUP_NO='A',
                   INST=1.0,
                   REFERENCE='ANALYTIQUE',
                   RESULTAT=EVOLUP,
                   NOM_CHAM='EPEQ_NOEU',
                   NOM_CMP='PRIN_1',
                   VALE_CALC=-5.99358623E-04,
                   VALE_REFE=-5.9999999999999995E-4,
                   CRITERE='RELATIF',
                   PRECISION=5.0000000000000001E-3,
                   MAILLE='M1',),
                _F(GROUP_NO='A',
                   INST=1.0,
                   REFERENCE='ANALYTIQUE',
                   RESULTAT=EVOLUP,
                   NOM_CHAM='EPEQ_NOEU',
                   NOM_CMP='PRIN_2',
                   VALE_CALC=-9.62579248E-16,
                   VALE_REFE=0.0,
                   CRITERE='ABSOLU',
                   PRECISION=1.0000000000000001E-05,
                   MAILLE='M1',),
                _F(GROUP_NO='A',
                   INST=1.0,
                   REFERENCE='ANALYTIQUE',
                   RESULTAT=EVOLUP,
                   NOM_CHAM='EPEQ_NOEU',
                   NOM_CMP='PRIN_3',
                   VALE_CALC= 5.99416748E-04,
                   VALE_REFE=5.9999999999999995E-4,
                   CRITERE='RELATIF',
                   PRECISION=5.0000000000000001E-3,
                   MAILLE='M1',),
                ),
          )

TEST_RESU(RESU=(_F(GROUP_NO='A',
                   INST=1.0,
                   REFERENCE='ANALYTIQUE',
                   RESULTAT=EVOLUP,
                   NOM_CHAM='SIEQ_NOEU',
                   NOM_CMP='VMIS',
                   VALE_CALC=138.431885431,
                   VALE_REFE=138.5641,
                   CRITERE='RELATIF',
                   PRECISION=5.0000000000000001E-3,
                   MAILLE='M1',),
                _F(GROUP_NO='A',
                   INST=1.0,
                   REFERENCE='ANALYTIQUE',
                   RESULTAT=EVOLUP,
                   NOM_CHAM='SIEQ_NOEU',
                   NOM_CMP='TRESCA',
                   VALE_CALC=159.847372574,
                   VALE_REFE=160.0,
                   CRITERE='RELATIF',
                   PRECISION=5.0000000000000001E-3,
                   MAILLE='M1',),
                _F(GROUP_NO='A',
                   INST=1.0,
                   REFERENCE='ANALYTIQUE',
                   RESULTAT=EVOLUP,
                   NOM_CHAM='SIEQ_NOEU',
                   NOM_CMP='PRIN_1',
                   VALE_CALC=-59.923674479,
                   VALE_REFE=-60.0,
                   CRITERE='RELATIF',
                   PRECISION=5.0000000000000001E-3,
                   MAILLE='M1',),
                _F(GROUP_NO='A',
                   INST=1.0,
                   REFERENCE='ANALYTIQUE',
                   RESULTAT=EVOLUP,
                   NOM_CHAM='SIEQ_NOEU',
                   NOM_CMP='PRIN_2',
                   VALE_CALC=19.996136554,
                   VALE_REFE=20.0,
                   CRITERE='RELATIF',
                   PRECISION=5.0000000000000001E-3,
                   MAILLE='M1',),
                _F(GROUP_NO='A',
                   INST=1.0,
                   REFERENCE='ANALYTIQUE',
                   RESULTAT=EVOLUP,
                   NOM_CHAM='SIEQ_NOEU',
                   NOM_CMP='PRIN_3',
                   VALE_CALC=99.923698095,
                   VALE_REFE=100.0,
                   CRITERE='RELATIF',
                   PRECISION=5.0000000000000001E-3,
                   MAILLE='M1',),
                _F(GROUP_NO='A',
                   INST=1.0,
                   REFERENCE='ANALYTIQUE',
                   RESULTAT=EVOLUP,
                   NOM_CHAM='SIEQ_NOEU',
                   NOM_CMP='VMIS_SG',
                   VALE_CALC=138.431885431,
                   VALE_REFE=138.5641,
                   CRITERE='RELATIF',
                   PRECISION=5.0000000000000001E-3,
                   MAILLE='M1',),
                ),
          )

#--------------------------------------------------------------------------------

M0=CREA_MAILLAGE(MAILLAGE=M,
                 QUAD_LINE=_F(TOUT='OUI',),);

MOOS=AFFE_MODELE(MAILLAGE=M0,
                 
                 AFFE=_F(GROUP_MA=('VOLUME','FACEEF','FACEAE','FACEAB','FACSUP','FACINF',),
                         PHENOMENE='MECANIQUE',
                         MODELISATION='3D_INCO_UPO',),);

CHOS=AFFE_CHAR_MECA(MODELE=MOOS,
                    DDL_IMPO=(_F(GROUP_MA='FACEAB',
                                  DX=0.,),
                              _F(GROUP_MA='FACSUP',
                                  DZ=0.,),
                              _F(GROUP_MA='FACINF',
                                  DZ=0.,),),
                    FACE_IMPO=_F(GROUP_MA='FACEEF',
                                  DNOR=0.,),
                    PRES_REP=_F(GROUP_MA='FACEAE',
                                PRES=60.,),);

CM0=AFFE_MATERIAU(MAILLAGE=M0,
                  AFFE=_F(TOUT='OUI',
                          MATER=MA,),);

EVOLOS=STAT_NON_LINE(MODELE=MOOS,
                     CHAM_MATER=CM0,
                     EXCIT=_F(CHARGE=CHOS,
                              FONC_MULT=RAMPE,),
                     COMPORTEMENT=_F(RELATION='ELAS',),
                     INCREMENT=_F(LIST_INST=INSTANTS,),
                     NEWTON=_F(REAC_ITER=1,),
                     CONVERGENCE=_F(RESI_REFE_RELA=1.E-4,
                                    SIGM_REFE=60.,
                                    EPSI_REFE=1.E-4,
                                    PI_REFE=1.E-4,),
                     SOLVEUR=_F(RENUM='MD',),);

EVOLOS=CALC_CHAMP(reuse=EVOLOS,RESULTAT=EVOLOS,CRITERES=('SIEQ_ELNO','EPEQ_ELNO'),DEFORMATION=('EPSI_ELNO'),CONTRAINTE=('SIGM_ELNO'))


EVOLOS=CALC_CHAMP(reuse =EVOLOS,
               RESULTAT=EVOLOS,
               DEFORMATION='EPSI_NOEU',CONTRAINTE='SIGM_NOEU',CRITERES=('EPEQ_NOEU','SIEQ_NOEU'));

#--------------------------------------------------------------
#       COMPARAISON DES RESULTATS A LA SOLUTION ANALYTIQUE
#       POUR UN  SOLIDE INCOMPRESSIBLE NU = 0.5
#       3D_INCO_UPO ET HEXA20
#---------------------------------------------------------------

TEST_RESU(RESU=(_F(GROUP_NO='A',
                   INST=1.0,
                   REFERENCE='ANALYTIQUE',
                   RESULTAT=EVOLOS,
                   NOM_CHAM='DEPL',
                   NOM_CMP='DX',
                   VALE_CALC=-4.66529865E-22,
                   VALE_REFE=0.0,
                   CRITERE='ABSOLU',
                   PRECISION=1.0000000000000001E-05,),
                _F(GROUP_NO='A',
                   INST=1.0,
                   REFERENCE='ANALYTIQUE',
                   RESULTAT=EVOLOS,
                   NOM_CHAM='DEPL',
                   NOM_CMP='DY',
                   VALE_CALC= 5.99421244E-05,
                   VALE_REFE=6.0000000000000002E-05,
                   CRITERE='RELATIF',
                   PRECISION=1.5E-3,),
                _F(GROUP_NO='F',
                   INST=1.0,
                   REFERENCE='ANALYTIQUE',
                   RESULTAT=EVOLOS,
                   NOM_CHAM='DEPL',
                   NOM_CMP='DX',
                   VALE_CALC=-2.11941837E-05,
                   VALE_REFE=-2.1213203E-05,
                   CRITERE='RELATIF',
                   PRECISION=1.E-3,),
                _F(GROUP_NO='F',
                   INST=1.0,
                   REFERENCE='ANALYTIQUE',
                   RESULTAT=EVOLOS,
                   NOM_CHAM='DEPL',
                   NOM_CMP='DY',
                   VALE_CALC= 2.11941837E-05,
                   VALE_REFE=2.1213203E-05,
                   CRITERE='RELATIF',
                   PRECISION=1.E-3,),
                ),
          )

TEST_RESU(RESU=(_F(GROUP_NO='A',
                   INST=1.0,
                   REFERENCE='ANALYTIQUE',
                   RESULTAT=EVOLOS,
                   NOM_CHAM='EPSI_NOEU',
                   NOM_CMP='EPXX',
                   VALE_CALC= 5.97814820E-04,
                   VALE_REFE=5.9999999999999995E-4,
                   CRITERE='RELATIF',
                   PRECISION=5.0000000000000001E-3,),
                _F(GROUP_NO='A',
                   INST=1.0,
                   REFERENCE='ANALYTIQUE',
                   RESULTAT=EVOLOS,
                   NOM_CHAM='EPSI_NOEU',
                   NOM_CMP='EPYY',
                   VALE_CALC=-5.58977401E-04,
                   VALE_REFE=-5.9999999999999995E-4,
                   CRITERE='RELATIF',
                   PRECISION=0.070000000000000007,),
                _F(GROUP_NO='A',
                   INST=1.0,
                   REFERENCE='ANALYTIQUE',
                   RESULTAT=EVOLOS,
                   NOM_CHAM='EPSI_NOEU',
                   NOM_CMP='EPZZ',
                   VALE_CALC=-6.42042868E-16,
                   VALE_REFE=0.0,
                   CRITERE='ABSOLU',
                   PRECISION=1.0000000000000001E-05,),
                _F(GROUP_NO='A',
                   INST=1.0,
                   REFERENCE='ANALYTIQUE',
                   RESULTAT=EVOLOS,
                   NOM_CHAM='EPSI_NOEU',
                   NOM_CMP='EPXY',
                   VALE_CALC= 2.28685710E-05,
                   VALE_REFE=0.0,
                   CRITERE='ABSOLU',
                   PRECISION=3.0000000000000001E-05,),
                _F(GROUP_NO='F',
                   INST=1.0,
                   REFERENCE='ANALYTIQUE',
                   RESULTAT=EVOLOS,
                   NOM_CHAM='EPSI_NOEU',
                   NOM_CMP='EPXX',
                   VALE_CALC= 3.14419329E-06,
                   VALE_REFE=0.0,
                   CRITERE='ABSOLU',
                   PRECISION=1.0000000000000001E-05,),
                _F(GROUP_NO='F',
                   INST=1.0,
                   REFERENCE='ANALYTIQUE',
                   RESULTAT=EVOLOS,
                   NOM_CHAM='EPSI_NOEU',
                   NOM_CMP='EPYY',
                   VALE_CALC=-8.80627336E-06,
                   VALE_REFE=0.0,
                   CRITERE='ABSOLU',
                   PRECISION=1.0000000000000001E-05,),
                _F(GROUP_NO='F',
                   INST=1.0,
                   REFERENCE='ANALYTIQUE',
                   RESULTAT=EVOLOS,
                   NOM_CHAM='EPSI_NOEU',
                   NOM_CMP='EPXY',
                   VALE_CALC= 1.52573485E-04,
                   VALE_REFE=1.4999999999999999E-4,
                   CRITERE='RELATIF',
                   PRECISION=0.02,),
                ),
          )

TEST_RESU(RESU=(_F(GROUP_NO='A',
                   INST=1.0,
                   REFERENCE='ANALYTIQUE',
                   RESULTAT=EVOLOS,
                   NOM_CHAM='SIGM_NOEU',
                   NOM_CMP='SIXX',
                   VALE_CALC=98.773784400,
                   VALE_REFE=100.0,
                   CRITERE='RELATIF',
                   PRECISION=0.014999999999999999,),
                _F(GROUP_NO='A',
                   INST=1.0,
                   REFERENCE='ANALYTIQUE',
                   RESULTAT=EVOLOS,
                   NOM_CHAM='SIGM_NOEU',
                   NOM_CMP='SIYY',
                   VALE_CALC=-55.475461669,
                   VALE_REFE=-60.0,
                   CRITERE='RELATIF',
                   PRECISION=0.089999999999999997,),
                _F(GROUP_NO='A',
                   INST=1.0,
                   REFERENCE='ANALYTIQUE',
                   RESULTAT=EVOLOS,
                   NOM_CHAM='SIGM_NOEU',
                   NOM_CMP='SIZZ',
                   VALE_CALC=19.059827517,
                   VALE_REFE=20.0,
                   CRITERE='RELATIF',
                   PRECISION=0.050000000000000003,),
                _F(NUME_ORDRE=1,
                   GROUP_NO='A',
                   REFERENCE='ANALYTIQUE',
                   RESULTAT=EVOLOS,
                   NOM_CHAM='SIGM_NOEU',
                   NOM_CMP='SIXY',
                   VALE_CALC=3.049346088,
                   VALE_REFE=0.0,
                   CRITERE='ABSOLU',
                   PRECISION=5.0,),
                _F(GROUP_NO='F',
                   INST=1.0,
                   REFERENCE='ANALYTIQUE',
                   RESULTAT=EVOLOS,
                   NOM_CHAM='SIGM_NOEU',
                   NOM_CMP='SIXX',
                   VALE_CALC=20.559088930,
                   VALE_REFE=20.0,
                   CRITERE='RELATIF',
                   PRECISION=0.029999999999999999,),
                _F(GROUP_NO='F',
                   INST=1.0,
                   REFERENCE='ANALYTIQUE',
                   RESULTAT=EVOLOS,
                   NOM_CHAM='SIGM_NOEU',
                   NOM_CMP='SIYY',
                   VALE_CALC=18.965587144,
                   VALE_REFE=20.0,
                   CRITERE='RELATIF',
                   PRECISION=0.059999999999999998,),
                _F(GROUP_NO='F',
                   INST=1.0,
                   REFERENCE='ANALYTIQUE',
                   RESULTAT=EVOLOS,
                   NOM_CHAM='SIGM_NOEU',
                   NOM_CMP='SIZZ',
                   VALE_CALC=20.139835208,
                   VALE_REFE=20.0,
                   CRITERE='RELATIF',
                   PRECISION=1.E-2,),
                _F(GROUP_NO='F',
                   INST=1.0,
                   REFERENCE='ANALYTIQUE',
                   RESULTAT=EVOLOS,
                   NOM_CHAM='SIGM_NOEU',
                   NOM_CMP='SIXY',
                   VALE_CALC=20.344487676,
                   VALE_REFE=20.0,
                   CRITERE='RELATIF',
                   PRECISION=0.02,),
                ),
          )

TEST_RESU(RESU=(_F(GROUP_NO='A',
                   INST=1.0,
                   REFERENCE='ANALYTIQUE',
                   RESULTAT=EVOLOS,
                   NOM_CHAM='EPEQ_NOEU',
                   NOM_CMP='INVA_2',
                   VALE_CALC= 6.68521481E-04,
                   VALE_REFE=6.9282000000000002E-4,
                   CRITERE='RELATIF',
                   PRECISION=0.050000000000000003,
                   MAILLE='M1',),
                _F(GROUP_NO='A',
                   INST=1.0,
                   REFERENCE='ANALYTIQUE',
                   RESULTAT=EVOLOS,
                   NOM_CHAM='EPEQ_NOEU',
                   NOM_CMP='PRIN_1',
                   VALE_CALC=-5.59429312E-04,
                   VALE_REFE=-5.9999999999999995E-4,
                   CRITERE='RELATIF',
                   PRECISION=0.070000000000000007,
                   MAILLE='M1',),
                _F(GROUP_NO='A',
                   INST=1.0,
                   REFERENCE='ANALYTIQUE',
                   RESULTAT=EVOLOS,
                   NOM_CHAM='EPEQ_NOEU',
                   NOM_CMP='PRIN_2',
                   VALE_CALC=-6.42042868E-16,
                   VALE_REFE=0.0,
                   CRITERE='ABSOLU',
                   PRECISION=1.0000000000000001E-05,
                   MAILLE='M1',),
                _F(GROUP_NO='A',
                   INST=1.0,
                   REFERENCE='ANALYTIQUE',
                   RESULTAT=EVOLOS,
                   NOM_CHAM='EPEQ_NOEU',
                   NOM_CMP='PRIN_3',
                   VALE_CALC= 5.98266731E-04,
                   VALE_REFE=5.9999999999999995E-4,
                   CRITERE='RELATIF',
                   PRECISION=5.0000000000000001E-3,
                   MAILLE='M1',),
                ),
          )

TEST_RESU(RESU=(_F(GROUP_NO='A',
                   INST=1.0,
                   REFERENCE='ANALYTIQUE',
                   RESULTAT=EVOLOS,
                   NOM_CHAM='SIEQ_NOEU',
                   NOM_CMP='VMIS',
                   VALE_CALC=133.713210339,
                   VALE_REFE=138.5641,
                   CRITERE='RELATIF',
                   PRECISION=0.050000000000000003,
                   MAILLE='M1',),
                _F(GROUP_NO='A',
                   INST=1.0,
                   REFERENCE='ANALYTIQUE',
                   RESULTAT=EVOLOS,
                   NOM_CHAM='SIEQ_NOEU',
                   NOM_CMP='TRESCA',
                   VALE_CALC=154.369763746,
                   VALE_REFE=160.0,
                   CRITERE='RELATIF',
                   PRECISION=0.050000000000000003,
                   MAILLE='M1',),
                _F(GROUP_NO='A',
                   INST=1.0,
                   REFERENCE='ANALYTIQUE',
                   RESULTAT=EVOLOS,
                   NOM_CHAM='SIEQ_NOEU',
                   NOM_CMP='PRIN_1',
                   VALE_CALC=-55.535720508,
                   VALE_REFE=-60.0,
                   CRITERE='RELATIF',
                   PRECISION=0.10000000000000001,
                   MAILLE='M1',),
                _F(GROUP_NO='A',
                   INST=1.0,
                   REFERENCE='ANALYTIQUE',
                   RESULTAT=EVOLOS,
                   NOM_CHAM='SIEQ_NOEU',
                   NOM_CMP='PRIN_2',
                   VALE_CALC=19.059827517,
                   VALE_REFE=20.0,
                   CRITERE='RELATIF',
                   PRECISION=0.050000000000000003,
                   MAILLE='M1',),
                _F(GROUP_NO='A',
                   INST=1.0,
                   REFERENCE='ANALYTIQUE',
                   RESULTAT=EVOLOS,
                   NOM_CHAM='SIEQ_NOEU',
                   NOM_CMP='PRIN_3',
                   VALE_CALC=98.834043239,
                   VALE_REFE=100.0,
                   CRITERE='RELATIF',
                   PRECISION=0.014999999999999999,
                   MAILLE='M1',),
                _F(GROUP_NO='A',
                   INST=1.0,
                   REFERENCE='ANALYTIQUE',
                   RESULTAT=EVOLOS,
                   NOM_CHAM='SIEQ_NOEU',
                   NOM_CMP='VMIS_SG',
                   VALE_CALC=133.713210339,
                   VALE_REFE=138.5641,
                   CRITERE='RELATIF',
                   PRECISION=0.050000000000000003,
                   MAILLE='M1',),
                ),
          )

FIN();

#
