# TITRE CYLINDRE SOUMIS A UNE PRESSION EN MODE 1 FOURIER (TRIA6)
#            CONFIGURATION MANAGEMENT OF EDF VERSION
# ======================================================================
# COPYRIGHT (C) 1991 - 2013  EDF R&D                  WWW.CODE-ASTER.ORG
# THIS PROGRAM IS FREE SOFTWARE; YOU CAN REDISTRIBUTE IT AND/OR MODIFY
# IT UNDER THE TERMS OF THE GNU GENERAL PUBLIC LICENSE AS PUBLISHED BY
# THE FREE SOFTWARE FOUNDATION; EITHER VERSION 2 OF THE LICENSE, OR
# (AT YOUR OPTION) ANY LATER VERSION.
#
# THIS PROGRAM IS DISTRIBUTED IN THE HOPE THAT IT WILL BE USEFUL, BUT
# WITHOUT ANY WARRANTY; WITHOUT EVEN THE IMPLIED WARRANTY OF
# MERCHANTABILITY OR FITNESS FOR A PARTICULAR PURPOSE. SEE THE GNU
# GENERAL PUBLIC LICENSE FOR MORE DETAILS.
#
# YOU SHOULD HAVE RECEIVED A COPY OF THE GNU GENERAL PUBLIC LICENSE
# ALONG WITH THIS PROGRAM; IF NOT, WRITE TO EDF R&D CODE_ASTER,
#    1 AVENUE DU GENERAL DE GAULLE, 92141 CLAMART CEDEX, FRANCE.
# ======================================================================
# CAS TEST SSLV109A
# CYLINDRE EN FLEXION FOURIER MODE_FOURIER 1
#
# MODELISATION : ELEMENTS MECANIQUE AXIS_FOURIER (TRIA6)
# MAILLAGE     : ALIBABA ==> ASTER
#
# ----------------------------------------------------------------------
# GROUPES DE MAILLES:           PRES_REP : BOUT
# ----------------------------------------------------------------------
#

DEBUT(CODE=_F(NOM='SSLV109A', NIV_PUB_WEB='INTERNET'), DEBUG=_F(SDVERI='OUI'))

NUM_HARM=1

M=LIRE_MAILLAGE( )

MO=AFFE_MODELE(  MAILLAGE=M,
                         AFFE=_F(  TOUT = 'OUI',
                                PHENOMENE = 'MECANIQUE',
                                MODELISATION = 'AXIS_FOURIER',  ) )

MA=DEFI_MATERIAU( ELAS=_F(  E = 72.,   NU = 0.3,   RHO = 0.,  ) )

P=DEFI_FONCTION(      NOM_PARA='X',
           VALE=(0.,0., .5, .5, 1., 1.,) )

U0=DEFI_CONSTANTE(  VALE=0. )

CM=AFFE_MATERIAU(  MAILLAGE=M,
                           AFFE=_F(  TOUT = 'OUI',   MATER = MA,  ) )

BLOQU=AFFE_CHAR_MECA_F(       MODELE=MO,DDL_IMPO=(
               _F(  NOEUD = 'N1',           DX = U0,   DY = U0,    DZ = U0,   ),
                        _F(  NOEUD = 'N2',           DY = U0,   ),
                        _F(  NOEUD = 'N3',           DY = U0,   ))   )

CH=AFFE_CHAR_MECA_F(       MODELE=MO,
               PRES_REP=_F(  GROUP_MA = 'BOUT',       PRES = P,  )  )

FO_ELAS1=MACRO_ELAS_MULT(            MODELE=MO,
                                   CHAM_MATER=CM,
                             CHAR_MECA_GLOBAL=BLOQU,
                            CAS_CHARGE=_F(
                                 MODE_FOURIER = 1,

                                 TYPE_MODE = 'SYME',
                                 CHAR_MECA = CH,
                                 SOUS_TITRE = 'MODE FOURIER 1 SYME')
                          )

DEPLA=CREA_CHAMP( OPERATION='EXTR', TYPE_CHAM='NOEU_DEPL_R',
                    RESULTAT=FO_ELAS1, NUME_MODE=1,
                    NOM_CHAM='DEPL' ),

T_ENER=POST_ELEM(  MODELE       = MO,
                   CHAM_MATER   = CM,
                   MODE_FOURIER = NUM_HARM,
                   CHAM_GD      = DEPLA,
                   ENER_POT     = _F(  TOUT = 'OUI',  )
                   )

TEST_TABLE(VALE_CALC=0.020833429785059,
           VALE_REFE=0.020833333329999999,
           REFERENCE = 'ANALYTIQUE',
           PRECISION=1.E-3,
           NOM_PARA='TOTALE',
           TABLE=T_ENER,
           FILTRE=_F(NOM_PARA='LIEU',
                     VALE_K='M',),
           )

# ----------------------------------------------------------------------
#                     OPERATEUR COMB_FOURIER
# ----------------------------------------------------------------------

FO_ELAS1=CALC_CHAMP(reuse=FO_ELAS1,RESULTAT=FO_ELAS1,CONTRAINTE=('SIGM_ELNO'))


FO_ELAS1=CALC_CHAMP(reuse=FO_ELAS1,   RESULTAT=FO_ELAS1,
                       FORCE='FORC_NODA',
                         )

FO_ELAS1=CALC_CHAMP(reuse=FO_ELAS1,   RESULTAT=FO_ELAS1,
                       FORCE='REAC_NODA',
                         )

SIGMA=CREA_CHAMP( OPERATION='EXTR', TYPE_CHAM='ELNO_SIEF_R',
                    RESULTAT=FO_ELAS1, NUME_MODE=1,
                    NOM_CHAM='SIGM_ELNO' ),

TEST_RESU(RESU=(_F(NUME_MODE=1,
                   RESULTAT=FO_ELAS1,
                   NOM_CHAM='REAC_NODA',
                   NOEUD='N1',
                   NOM_CMP='DY',
                   VALE_CALC=-0.018468294131831,
                   VALE_REFE=-0.018468200000000001,
                   REFERENCE = 'ANALYTIQUE',
                   PRECISION=1.E-3,),
                _F(NUME_MODE=1,
                   RESULTAT=FO_ELAS1,
                   NOM_CHAM='REAC_NODA',
                   NOEUD='N2',
                   NOM_CMP='DY',
                   VALE_CALC=0.20370666726876,
                   VALE_REFE=0.203706,
                   REFERENCE = 'ANALYTIQUE',
                   PRECISION=1.E-3,),
                _F(NUME_MODE=1,
                   RESULTAT=FO_ELAS1,
                   NOM_CHAM='REAC_NODA',
                   NOEUD='N3',
                   NOM_CMP='DY',
                   VALE_CALC=0.14814666636663,
                   VALE_REFE=0.148146,
                   REFERENCE = 'ANALYTIQUE',
                   PRECISION=1.E-3,),
                ),
          )

TEST_RESU(RESU=(_F(NUME_MODE=1,
                   RESULTAT=FO_ELAS1,
                   NOM_CHAM='DEPL',
                   NOEUD='N3',
                   NOM_CMP='DX',
                   VALE_CALC=2.0835199156198E-03,
                   VALE_REFE=2.0833333330000001E-3,
                   REFERENCE = 'ANALYTIQUE',
                   PRECISION=1.E-3,),
                _F(NUME_MODE=1,
                   RESULTAT=FO_ELAS1,
                   NOM_CHAM='DEPL',
                   NOEUD='N3',
                   NOM_CMP='DY',
                   VALE_CALC=4.1165801236559E-19,
                   VALE_REFE=0.0,
                   REFERENCE = 'ANALYTIQUE',
                   PRECISION=1.E-3,
                   CRITERE='ABSOLU',),
                _F(NUME_MODE=1,
                   RESULTAT=FO_ELAS1,
                   NOM_CHAM='DEPL',
                   NOEUD='N3',
                   NOM_CMP='DZ',
                   VALE_CALC=-2.0834000292886E-03,
                   VALE_REFE=-2.0833333330000001E-3,
                   REFERENCE = 'ANALYTIQUE',
                   PRECISION=1.E-3,),
                _F(NUME_MODE=1,
                   RESULTAT=FO_ELAS1,
                   NOM_CHAM='DEPL',
                   NOEUD='N7',
                   NOM_CMP='DX',
                   VALE_CALC=0.25000117217574,
                   VALE_REFE=0.25,
                   REFERENCE = 'ANALYTIQUE',
                   PRECISION=1.E-3,),
                _F(NUME_MODE=1,
                   RESULTAT=FO_ELAS1,
                   NOM_CHAM='DEPL',
                   NOEUD='N7',
                   NOM_CMP='DY',
                   VALE_CALC=-4.3686049324636E-06,
                   VALE_REFE=0.0,
                   REFERENCE = 'ANALYTIQUE',
                   PRECISION=1.E-3,
                   CRITERE='ABSOLU',),
                _F(NUME_MODE=1,
                   RESULTAT=FO_ELAS1,
                   NOM_CHAM='DEPL',
                   NOEUD='N7',
                   NOM_CMP='DZ',
                   VALE_CALC=0.25000042083170,
                   VALE_REFE=0.25,
                   REFERENCE = 'ANALYTIQUE',
                   PRECISION=1.E-3,),
                _F(NUME_MODE=1,
                   RESULTAT=FO_ELAS1,
                   NOM_CHAM='DEPL',
                   NOEUD='N8',
                   NOM_CMP='DX',
                   VALE_CALC=0.25052177593845,
                   VALE_REFE=0.25052083333300001,
                   REFERENCE = 'ANALYTIQUE',
                   PRECISION=1.E-3,),
                _F(NUME_MODE=1,
                   RESULTAT=FO_ELAS1,
                   NOM_CHAM='DEPL',
                   NOEUD='N8',
                   NOM_CMP='DY',
                   VALE_CALC=-0.041668042848063,
                   VALE_REFE=-0.041666666666000003,
                   REFERENCE = 'ANALYTIQUE',
                   PRECISION=1.E-3,),
                _F(NUME_MODE=1,
                   RESULTAT=FO_ELAS1,
                   NOM_CHAM='DEPL',
                   NOEUD='N8',
                   NOM_CMP='DZ',
                   VALE_CALC=0.24947901912949,
                   VALE_REFE=0.24947916666600001,
                   REFERENCE = 'ANALYTIQUE',
                   PRECISION=1.E-3,),
                _F(NUME_MODE=1,
                   RESULTAT=FO_ELAS1,
                   NOM_CHAM='DEPL',
                   NOEUD='N9',
                   NOM_CMP='DX',
                   VALE_CALC=0.25208412142681,
                   VALE_REFE=0.25208333333299998,
                   REFERENCE = 'ANALYTIQUE',
                   PRECISION=1.E-3,),
                _F(NUME_MODE=1,
                   RESULTAT=FO_ELAS1,
                   NOM_CHAM='DEPL',
                   NOEUD='N9',
                   NOM_CMP='DY',
                   VALE_CALC=-0.083333277273335,
                   VALE_REFE=-0.083333333332999998,
                   REFERENCE = 'ANALYTIQUE',
                   PRECISION=1.E-3,),
                _F(NUME_MODE=1,
                   RESULTAT=FO_ELAS1,
                   NOM_CHAM='DEPL',
                   NOEUD='N9',
                   NOM_CMP='DZ',
                   VALE_CALC=0.24791642112641,
                   VALE_REFE=0.24791666666600001,
                   REFERENCE = 'ANALYTIQUE',
                   PRECISION=1.E-3,),
                _F(NUME_MODE=1,
                   RESULTAT=FO_ELAS1,
                   NOM_CHAM='DEPL',
                   NOEUD='N13',
                   NOM_CMP='DX',
                   VALE_CALC=1.0000600479646,
                   VALE_REFE=1.0,
                   REFERENCE = 'ANALYTIQUE',
                   PRECISION=1.E-3,),
                _F(NUME_MODE=1,
                   RESULTAT=FO_ELAS1,
                   NOM_CHAM='DEPL',
                   NOEUD='N13',
                   NOM_CMP='DY',
                   VALE_CALC=-5.39257351345E-05,
                   VALE_REFE=0.0,
                   REFERENCE = 'ANALYTIQUE',
                   PRECISION=1.E-3,
                   CRITERE='ABSOLU',),
                _F(NUME_MODE=1,
                   RESULTAT=FO_ELAS1,
                   NOM_CHAM='DEPL',
                   NOEUD='N13',
                   NOM_CMP='DZ',
                   VALE_CALC=1.0000643359606,
                   VALE_REFE=1.0,
                   REFERENCE = 'ANALYTIQUE',
                   PRECISION=1.E-3,),
                _F(NUME_MODE=1,
                   RESULTAT=FO_ELAS1,
                   NOM_CHAM='DEPL',
                   NOEUD='N15',
                   NOM_CMP='DX',
                   VALE_CALC=1.0021485112941,
                   VALE_REFE=1.0020833333332999,
                   REFERENCE = 'ANALYTIQUE',
                   PRECISION=1.E-3,),
                _F(NUME_MODE=1,
                   RESULTAT=FO_ELAS1,
                   NOM_CHAM='DEPL',
                   NOEUD='N15',
                   NOM_CMP='DY',
                   VALE_CALC=-0.16669113013492,
                   VALE_REFE=-0.16666666666659999,
                   REFERENCE = 'ANALYTIQUE',
                   PRECISION=1.E-3,),
                _F(NUME_MODE=1,
                   RESULTAT=FO_ELAS1,
                   NOM_CHAM='DEPL',
                   NOEUD='N15',
                   NOM_CMP='DZ',
                   VALE_CALC=0.99798135474055,
                   VALE_REFE=0.99779166666660002,
                   REFERENCE = 'ANALYTIQUE',
                   PRECISION=1.E-3,),
                ),
          )

TEST_RESU(RESU=(_F(NUME_MODE=1,
                   RESULTAT=FO_ELAS1,
                   NOM_CHAM='SIGM_ELNO',
                   NOEUD='N3',
                   NOM_CMP='SIYY',
                   VALE_CALC=-1.0000062501181,
                   VALE_REFE=-1.0,
                   REFERENCE = 'ANALYTIQUE',
                   PRECISION=1.E-3,
                   MAILLE='M1',),
                _F(NUME_MODE=1,
                   RESULTAT=FO_ELAS1,
                   NOM_CHAM='SIGM_ELNO',
                   NOEUD='N7',
                   NOM_CMP='SIYY',
                   VALE_CALC=-1.2981360230062E-04,
                   VALE_REFE=0.0,
                   REFERENCE = 'ANALYTIQUE',
                   PRECISION=1.E-3,
                   CRITERE='ABSOLU',
                   MAILLE='M2',),
                _F(NUME_MODE=1,
                   RESULTAT=FO_ELAS1,
                   NOM_CHAM='SIGM_ELNO',
                   NOEUD='N7',
                   NOM_CMP='SIYY',
                   VALE_CALC=6.4747288108458E-05,
                   VALE_REFE=0.0,
                   REFERENCE = 'ANALYTIQUE',
                   PRECISION=1.E-3,
                   CRITERE='ABSOLU',
                   MAILLE='M3',),
                _F(NUME_MODE=1,
                   RESULTAT=FO_ELAS1,
                   NOM_CHAM='SIGM_ELNO',
                   NOEUD='N7',
                   NOM_CMP='SIYY',
                   VALE_CALC=-1.0888186790209E-04,
                   VALE_REFE=0.0,
                   REFERENCE = 'ANALYTIQUE',
                   PRECISION=1.E-3,
                   CRITERE='ABSOLU',
                   MAILLE='M4',),
                _F(NUME_MODE=1,
                   RESULTAT=FO_ELAS1,
                   NOM_CHAM='SIGM_ELNO',
                   NOEUD='N8',
                   NOM_CMP='SIYY',
                   VALE_CALC=-0.50005310930232,
                   VALE_REFE=-0.5,
                   REFERENCE = 'ANALYTIQUE',
                   PRECISION=1.E-3,
                   MAILLE='M2',),
                _F(NUME_MODE=1,
                   RESULTAT=FO_ELAS1,
                   NOM_CHAM='SIGM_ELNO',
                   NOEUD='N8',
                   NOM_CMP='SIYY',
                   VALE_CALC=-0.50008146843351,
                   VALE_REFE=-0.5,
                   REFERENCE = 'ANALYTIQUE',
                   PRECISION=1.E-3,
                   MAILLE='M3',),
                _F(NUME_MODE=1,
                   RESULTAT=FO_ELAS1,
                   NOM_CHAM='SIGM_ELNO',
                   NOEUD='N9',
                   NOM_CMP='SIYY',
                   VALE_CALC=-0.99998615065957,
                   VALE_REFE=-1.0,
                   REFERENCE = 'ANALYTIQUE',
                   PRECISION=1.E-3,
                   MAILLE='M1',),
                _F(NUME_MODE=1,
                   RESULTAT=FO_ELAS1,
                   NOM_CHAM='SIGM_ELNO',
                   NOEUD='N9',
                   NOM_CMP='SIYY',
                   VALE_CALC=-0.99997640500235,
                   VALE_REFE=-1.0,
                   REFERENCE = 'ANALYTIQUE',
                   PRECISION=1.E-3,
                   MAILLE='M2',),
                _F(NUME_MODE=1,
                   RESULTAT=FO_ELAS1,
                   NOM_CHAM='SIGM_ELNO',
                   NOEUD='N9',
                   NOM_CMP='SIYY',
                   VALE_CALC=-1.0002276841551,
                   VALE_REFE=-1.0,
                   REFERENCE = 'ANALYTIQUE',
                   PRECISION=1.E-3,
                   MAILLE='M3',),
                _F(NUME_MODE=1,
                   RESULTAT=FO_ELAS1,
                   NOM_CHAM='SIGM_ELNO',
                   NOEUD='N13',
                   NOM_CMP='SIYY',
                   VALE_CALC=-1.1608758570493E-03,
                   VALE_REFE=0.0,
                   CRITERE='ABSOLU',
                   REFERENCE = 'ANALYTIQUE',
                   PRECISION=2.E-3,
                   MAILLE='M4',),
                _F(NUME_MODE=1,
                   RESULTAT=FO_ELAS1,
                   NOM_CHAM='SIGM_ELNO',
                   NOEUD='N15',
                   NOM_CMP='SIYY',
                   VALE_CALC=-1.0004044349832,
                   VALE_REFE=-1.0,
                   REFERENCE = 'ANALYTIQUE',
                   PRECISION=1.E-3,
                   MAILLE='M3',),
                _F(NUME_MODE=1,
                   RESULTAT=FO_ELAS1,
                   NOM_CHAM='SIGM_ELNO',
                   NOEUD='N15',
                   NOM_CMP='SIYY',
                   VALE_CALC=-0.99842522788577,
                   VALE_REFE=-1.0,
                   REFERENCE = 'ANALYTIQUE',
                   PRECISION=2.E-3,
                   MAILLE='M4',),
                ),
          )

ANGL1=45.

ANGL2=135.

CO_FOUR1=COMB_FOURIER(   RESULTAT=FO_ELAS1,
                            NOM_CHAM=( 'DEPL',  'REAC_NODA',
                      'SIEF_ELGA', 'SIGM_ELNO', ),
                                ANGLE=( ANGL1,  ANGL2,  )
                        )

CO_FOUR1=CALC_CHAMP(reuse=CO_FOUR1,RESULTAT=CO_FOUR1,CRITERES=('SIEQ_ELGA','SIEQ_ELNO'))


TEST_RESU(RESU=(_F(RESULTAT=CO_FOUR1,
                   NOM_CHAM='DEPL',
                   NOEUD='N7',
                   NOM_CMP='DX',
                   VALE_CALC=0.17677752415005,
                   VALE_REFE=0.17677660000000001,
                   REFERENCE = 'ANALYTIQUE',
                   PRECISION=1.E-3,
                   ANGLE=45.0,),
                _F(RESULTAT=CO_FOUR1,
                   NOM_CHAM='DEPL',
                   NOEUD='N7',
                   NOM_CMP='DY',
                   VALE_CALC=-3.08907017207E-06,
                   VALE_REFE=0.0,
                   REFERENCE = 'ANALYTIQUE',
                   PRECISION=1.E-3,
                   CRITERE='ABSOLU',
                   ANGLE=45.0,),
                _F(RESULTAT=CO_FOUR1,
                   NOM_CHAM='DEPL',
                   NOEUD='N7',
                   NOM_CMP='DZ',
                   VALE_CALC=-0.17677699286959,
                   VALE_REFE=-0.17677660000000001,
                   REFERENCE = 'ANALYTIQUE',
                   PRECISION=1.E-3,
                   ANGLE=45.0,),
                _F(RESULTAT=CO_FOUR1,
                   NOM_CHAM='DEPL',
                   NOEUD='N13',
                   NOM_CMP='DX',
                   VALE_CALC=0.70714924150952,
                   VALE_REFE=0.70710669999999998,
                   REFERENCE = 'ANALYTIQUE',
                   PRECISION=1.E-3,
                   ANGLE=45.0,),
                _F(RESULTAT=CO_FOUR1,
                   NOM_CHAM='DEPL',
                   NOEUD='N13',
                   NOM_CMP='DY',
                   VALE_CALC=-3.8131252994075E-05,
                   VALE_REFE=0.0,
                   REFERENCE = 'ANALYTIQUE',
                   PRECISION=1.E-3,
                   CRITERE='ABSOLU',
                   ANGLE=45.0,),
                _F(RESULTAT=CO_FOUR1,
                   NOM_CHAM='DEPL',
                   NOEUD='N13',
                   NOM_CMP='DZ',
                   VALE_CALC=-0.70715227358055,
                   VALE_REFE=-0.70710669999999998,
                   REFERENCE = 'ANALYTIQUE',
                   PRECISION=1.E-3,
                   ANGLE=45.0,),
                ),
          )

TEST_RESU(RESU=(_F(RESULTAT=CO_FOUR1,
                   NOM_CHAM='SIGM_ELNO',
                   NOEUD='N3',
                   NOM_CMP='SIYY',
                   VALE_CALC=-0.70711120068747,
                   VALE_REFE=-0.70710680000000004,
                   REFERENCE = 'ANALYTIQUE',
                   PRECISION=1.E-3,
                   ANGLE=45.0,
                   MAILLE='M1',),
                _F(RESULTAT=CO_FOUR1,
                   NOM_CHAM='SIGM_ELNO',
                   NOEUD='N7',
                   NOM_CMP='SIYY',
                   VALE_CALC=-9.1792078477021E-05,
                   VALE_REFE=0.0,
                   REFERENCE = 'ANALYTIQUE',
                   PRECISION=1.E-3,
                   CRITERE='ABSOLU',
                   ANGLE=45.0,
                   MAILLE='M2',),
                _F(RESULTAT=CO_FOUR1,
                   NOM_CHAM='SIGM_ELNO',
                   NOEUD='N7',
                   NOM_CMP='SIYY',
                   VALE_CALC=4.578324648493E-05,
                   VALE_REFE=0.0,
                   REFERENCE = 'ANALYTIQUE',
                   PRECISION=1.E-3,
                   CRITERE='ABSOLU',
                   ANGLE=45.0,
                   MAILLE='M3',),
                _F(RESULTAT=CO_FOUR1,
                   NOM_CHAM='SIGM_ELNO',
                   NOEUD='N7',
                   NOM_CMP='SIYY',
                   VALE_CALC=-7.6991107141825E-05,
                   VALE_REFE=0.0,
                   REFERENCE = 'ANALYTIQUE',
                   PRECISION=1.E-3,
                   CRITERE='ABSOLU',
                   ANGLE=45.0,
                   MAILLE='M4',),
                _F(RESULTAT=CO_FOUR1,
                   NOM_CHAM='SIGM_ELNO',
                   NOEUD='N8',
                   NOM_CMP='SIYY',
                   VALE_CALC=-0.35359094454109,
                   VALE_REFE=-0.35355340000000002,
                   REFERENCE = 'ANALYTIQUE',
                   PRECISION=1.E-3,
                   ANGLE=45.0,
                   MAILLE='M2',),
                _F(RESULTAT=CO_FOUR1,
                   NOM_CHAM='SIGM_ELNO',
                   NOEUD='N8',
                   NOM_CMP='SIYY',
                   VALE_CALC=-0.35361099747506,
                   VALE_REFE=-0.35355340000000002,
                   REFERENCE = 'ANALYTIQUE',
                   PRECISION=1.E-3,
                   ANGLE=45.0,
                   MAILLE='M3',),
                _F(RESULTAT=CO_FOUR1,
                   NOM_CHAM='SIGM_ELNO',
                   NOEUD='N9',
                   NOM_CMP='SIYY',
                   VALE_CALC=-0.70709698822401,
                   VALE_REFE=-0.70710680000000004,
                   REFERENCE = 'ANALYTIQUE',
                   PRECISION=1.E-3,
                   ANGLE=45.0,
                   MAILLE='M1',),
                _F(RESULTAT=CO_FOUR1,
                   NOM_CHAM='SIGM_ELNO',
                   NOEUD='N9',
                   NOM_CMP='SIYY',
                   VALE_CALC=-0.70709009700370,
                   VALE_REFE=-0.70710680000000004,
                   REFERENCE = 'ANALYTIQUE',
                   PRECISION=1.E-3,
                   ANGLE=45.0,
                   MAILLE='M2',),
                _F(RESULTAT=CO_FOUR1,
                   NOM_CHAM='SIGM_ELNO',
                   NOEUD='N9',
                   NOM_CMP='SIYY',
                   VALE_CALC=-0.70726777819660,
                   VALE_REFE=-0.70710680000000004,
                   REFERENCE = 'ANALYTIQUE',
                   PRECISION=1.E-3,
                   ANGLE=45.0,
                   MAILLE='M3',),
                _F(RESULTAT=CO_FOUR1,
                   NOM_CHAM='SIGM_ELNO',
                   NOEUD='N13',
                   NOM_CMP='SIYY',
                   VALE_CALC=-8.208631906353E-04,
                   VALE_REFE=0.0,
                   REFERENCE = 'ANALYTIQUE',
                   PRECISION=1.E-3,
                   CRITERE='ABSOLU',
                   ANGLE=45.0,
                   MAILLE='M4',),
                _F(RESULTAT=CO_FOUR1,
                   NOM_CHAM='SIGM_ELNO',
                   NOEUD='N15',
                   NOM_CMP='SIYY',
                   VALE_CALC=-0.70739275990570,
                   VALE_REFE=-0.70710680000000004,
                   REFERENCE = 'ANALYTIQUE',
                   PRECISION=1.E-3,
                   ANGLE=45.0,
                   MAILLE='M3',),
                _F(RESULTAT=CO_FOUR1,
                   NOM_CHAM='SIGM_ELNO',
                   NOEUD='N15',
                   NOM_CMP='SIYY',
                   VALE_CALC=-0.70599324914575,
                   VALE_REFE=-0.70710680000000004,
                   ANGLE=45.0,
                   REFERENCE = 'ANALYTIQUE',
                   PRECISION=2.E-3,
                   MAILLE='M4',),
                _F(RESULTAT=CO_FOUR1,
                   NOM_CHAM='SIGM_ELNO',
                   NOEUD='N3',
                   NOM_CMP='SIYY',
                   VALE_CALC=0.70711120068747,
                   VALE_REFE=0.70710680000000004,
                   REFERENCE = 'ANALYTIQUE',
                   PRECISION=1.E-3,
                   ANGLE=135.0,
                   MAILLE='M1',),
                _F(RESULTAT=CO_FOUR1,
                   NOM_CHAM='SIGM_ELNO',
                   NOEUD='N7',
                   NOM_CMP='SIYY',
                   VALE_CALC=9.1792078477021E-05,
                   VALE_REFE=0.0,
                   REFERENCE = 'ANALYTIQUE',
                   PRECISION=1.E-3,
                   CRITERE='ABSOLU',
                   ANGLE=135.0,
                   MAILLE='M2',),
                _F(RESULTAT=CO_FOUR1,
                   NOM_CHAM='SIGM_ELNO',
                   NOEUD='N7',
                   NOM_CMP='SIYY',
                   VALE_CALC=-4.578324648493E-05,
                   VALE_REFE=0.0,
                   REFERENCE = 'ANALYTIQUE',
                   PRECISION=1.E-3,
                   CRITERE='ABSOLU',
                   ANGLE=135.0,
                   MAILLE='M3',),
                _F(RESULTAT=CO_FOUR1,
                   NOM_CHAM='SIGM_ELNO',
                   NOEUD='N7',
                   NOM_CMP='SIYY',
                   VALE_CALC=7.6991107141825E-05,
                   VALE_REFE=0.0,
                   REFERENCE = 'ANALYTIQUE',
                   PRECISION=1.E-3,
                   CRITERE='ABSOLU',
                   ANGLE=135.0,
                   MAILLE='M4',),
                _F(RESULTAT=CO_FOUR1,
                   NOM_CHAM='SIGM_ELNO',
                   NOEUD='N8',
                   NOM_CMP='SIYY',
                   VALE_CALC=0.35359094454109,
                   VALE_REFE=0.35355340000000002,
                   REFERENCE = 'ANALYTIQUE',
                   PRECISION=1.E-3,
                   ANGLE=135.0,
                   MAILLE='M2',),
                _F(RESULTAT=CO_FOUR1,
                   NOM_CHAM='SIGM_ELNO',
                   NOEUD='N8',
                   NOM_CMP='SIYY',
                   VALE_CALC=0.35361099747506,
                   VALE_REFE=0.35355340000000002,
                   REFERENCE = 'ANALYTIQUE',
                   PRECISION=1.E-3,
                   ANGLE=135.0,
                   MAILLE='M3',),
                _F(RESULTAT=CO_FOUR1,
                   NOM_CHAM='SIGM_ELNO',
                   NOEUD='N9',
                   NOM_CMP='SIYY',
                   VALE_CALC=0.70709698822401,
                   VALE_REFE=0.70710680000000004,
                   REFERENCE = 'ANALYTIQUE',
                   PRECISION=1.E-3,
                   ANGLE=135.0,
                   MAILLE='M1',),
                _F(RESULTAT=CO_FOUR1,
                   NOM_CHAM='SIGM_ELNO',
                   NOEUD='N9',
                   NOM_CMP='SIYY',
                   VALE_CALC=0.70709009700370,
                   VALE_REFE=0.70710680000000004,
                   REFERENCE = 'ANALYTIQUE',
                   PRECISION=1.E-3,
                   ANGLE=135.0,
                   MAILLE='M2',),
                _F(RESULTAT=CO_FOUR1,
                   NOM_CHAM='SIGM_ELNO',
                   NOEUD='N9',
                   NOM_CMP='SIYY',
                   VALE_CALC=0.70726777819660,
                   VALE_REFE=0.70710680000000004,
                   REFERENCE = 'ANALYTIQUE',
                   PRECISION=1.E-3,
                   ANGLE=135.0,
                   MAILLE='M3',),
                _F(RESULTAT=CO_FOUR1,
                   NOM_CHAM='SIGM_ELNO',
                   NOEUD='N13',
                   NOM_CMP='SIYY',
                   VALE_CALC=8.208631906353E-04,
                   VALE_REFE=0.0,
                   REFERENCE = 'ANALYTIQUE',
                   PRECISION=1.E-3,
                   CRITERE='ABSOLU',
                   ANGLE=135.0,
                   MAILLE='M4',),
                _F(RESULTAT=CO_FOUR1,
                   NOM_CHAM='SIGM_ELNO',
                   NOEUD='N15',
                   NOM_CMP='SIYY',
                   VALE_CALC=0.70739275990570,
                   VALE_REFE=0.70710680000000004,
                   REFERENCE = 'ANALYTIQUE',
                   PRECISION=1.E-3,
                   ANGLE=135.0,
                   MAILLE='M3',),
                _F(RESULTAT=CO_FOUR1,
                   NOM_CHAM='SIGM_ELNO',
                   NOEUD='N15',
                   NOM_CMP='SIYY',
                   VALE_CALC=0.70599324914575,
                   VALE_REFE=0.70710680000000004,
                   ANGLE=135.0,
                   REFERENCE = 'ANALYTIQUE',
                   PRECISION=2.E-3,
                   MAILLE='M4',),
                ),
          )

TEST_RESU(RESU=(_F(
                   RESULTAT=CO_FOUR1,
                   NOM_CHAM='SIEQ_ELNO',
                   NOEUD='N3',
                   NOM_CMP='VMIS',
                   VALE_CALC=0.70710983043058,
                   VALE_REFE=0.70711000000000002,
                   REFERENCE = 'ANALYTIQUE',
                   PRECISION=1.E-3,
                   ANGLE=45.0,
                   MAILLE='M1',),
                _F(
                   RESULTAT=CO_FOUR1,
                   NOM_CHAM='SIEQ_ELNO',
                   NOEUD='N6',
                   NOM_CMP='TRESCA',
                   VALE_CALC=0.70711679688592,
                   VALE_REFE=0.70711000000000002,
                   REFERENCE = 'ANALYTIQUE',
                   PRECISION=1.E-3,
                   ANGLE=45.0,
                   MAILLE='M1',),
                ),
          )

# ----------------------------------------------------------------------
#                     COMBINAISON DE CHAMPS
# ----------------------------------------------------------------------
DEP45=CREA_CHAMP(  OPERATION='EXTR', TYPE_CHAM='NOEU_DEPL_R',
                   NOM_CHAM='DEPL', RESULTAT=CO_FOUR1,
                   ANGLE=ANGL1    )


SIG45=CREA_CHAMP(OPERATION='EXTR',TYPE_CHAM='ELNO_SIEF_R',
                  RESULTAT=CO_FOUR1,ANGLE=ANGL1,
                  NOM_CHAM='SIGM_ELNO'),


DEP135=CREA_CHAMP(OPERATION='EXTR',TYPE_CHAM='NOEU_DEPL_R',
                  RESULTAT=CO_FOUR1,ANGLE=ANGL2,
                  NOM_CHAM='DEPL'),

SIG135=CREA_CHAMP(OPERATION='EXTR',TYPE_CHAM='ELNO_SIEF_R',
                  RESULTAT=CO_FOUR1,ANGLE=ANGL2,
                  NOM_CHAM='SIGM_ELNO'),


DEPRZ = CREA_CHAMP(OPERATION='ASSE',MODELE=MO,TYPE_CHAM='NOEU_DEPL_R',
                   OPTION='DEPL',
                   ASSE=(_F( CHAM_GD=DEP45,TOUT='OUI',CUMUL='OUI',COEF_R=1.),
                         _F( CHAM_GD=DEP135,TOUT='OUI',CUMUL='OUI',COEF_R=1.),),)

TEST_RESU(CHAM_NO=(_F(NOEUD='N7',
                      CRITERE='ABSOLU',
                      NOM_CMP='DX',
                      CHAM_GD=DEPRZ,
                      VALE_CALC=2.7755575615629E-17,
                      VALE_REFE=0.0,
                      REFERENCE = 'ANALYTIQUE',
                      PRECISION=1.E-3,),
                   _F(NOEUD='N7',
                      CRITERE='ABSOLU',
                      NOM_CMP='DY',
                      CHAM_GD=DEPRZ,
                      VALE_CALC=-4.2351647362715E-22,
                      VALE_REFE=0.0,
                      REFERENCE = 'ANALYTIQUE',
                      PRECISION=1.E-3,),
                   _F(NOEUD='N13',
                      CRITERE='ABSOLU',
                      NOM_CMP='DX',
                      CHAM_GD=DEPRZ,
                      VALE_CALC=1.1102230246252E-16,
                      VALE_REFE=0.0,
                      REFERENCE = 'ANALYTIQUE',
                      PRECISION=1.E-3,),
                   _F(NOEUD='N13',
                      CRITERE='ABSOLU',
                      NOM_CMP='DY',
                      CHAM_GD=DEPRZ,
                      VALE_CALC=-6.7762635780344E-21,
                      VALE_REFE=0.0,
                      REFERENCE = 'ANALYTIQUE',
                      PRECISION=1.E-3,),
                   ),
          )

DEPTH = CREA_CHAMP(OPERATION='ASSE',MODELE=MO,TYPE_CHAM='NOEU_DEPL_R',
                   OPTION='DEPL',
                   ASSE=(_F( CHAM_GD=DEP45,TOUT='OUI',CUMUL='OUI',COEF_R=1.),
                         _F( CHAM_GD=DEP135,TOUT='OUI',CUMUL='OUI',COEF_R=-1.),),)

TEST_RESU(CHAM_NO=(_F(NOEUD='N7',
                      CRITERE='ABSOLU',
                      NOM_CMP='DZ',
                      CHAM_GD=DEPTH,
                      VALE_CALC=2.7755575615629E-17,
                      VALE_REFE=0.0,
                      REFERENCE = 'ANALYTIQUE',
                      PRECISION=1.E-3,),
                   _F(NOEUD='N13',
                      CRITERE='ABSOLU',
                      NOM_CMP='DZ',
                      CHAM_GD=DEPTH,
                      VALE_CALC=1.1102230246252E-16,
                      VALE_REFE=0.0,
                      REFERENCE = 'ANALYTIQUE',
                      PRECISION=1.E-3,),
                   ),
          )

SIGRZ = CREA_CHAMP(OPERATION='ASSE',MODELE=MO,TYPE_CHAM='ELNO_SIEF_R',
                   OPTION='SIGM_ELNO',
                   ASSE=(_F( CHAM_GD=SIG45,TOUT='OUI',CUMUL='OUI',COEF_R=1.),
                         _F( CHAM_GD=SIG135,TOUT='OUI',CUMUL='OUI',COEF_R=1.),),)

TEST_RESU(CHAM_ELEM=(_F(NOEUD='N3',
                        CRITERE='ABSOLU',
                        NOM_CMP='SIXX',
                        MAILLE='M1',
                        CHAM_GD=SIGRZ,
                        VALE_CALC=-4.2351647362715E-22,
                        VALE_REFE=0.0,
                        REFERENCE = 'ANALYTIQUE',
                        PRECISION=1.E-3,),
                     _F(NOEUD='N7',
                        CRITERE='ABSOLU',
                        NOM_CMP='SIXX',
                        MAILLE='M2',
                        CHAM_GD=SIGRZ,
                        VALE_CALC=-2.1175823681358E-22,
                        VALE_REFE=0.0,
                        REFERENCE = 'ANALYTIQUE',
                        PRECISION=1.E-3,),
                     _F(NOEUD='N7',
                        CRITERE='ABSOLU',
                        NOM_CMP='SIXX',
                        MAILLE='M3',
                        CHAM_GD=SIGRZ,
                        VALE_CALC=-6.7762635780344E-21,
                        VALE_REFE=0.0,
                        REFERENCE = 'ANALYTIQUE',
                        PRECISION=1.E-3,),
                     _F(NOEUD='N7',
                        CRITERE='ABSOLU',
                        NOM_CMP='SIXX',
                        MAILLE='M4',
                        CHAM_GD=SIGRZ,
                        VALE_CALC=-1.0842021724855E-19,
                        VALE_REFE=0.0,
                        REFERENCE = 'ANALYTIQUE',
                        PRECISION=1.E-3,),
                     _F(NOEUD='N8',
                        CRITERE='ABSOLU',
                        NOM_CMP='SIXX',
                        MAILLE='M2',
                        CHAM_GD=SIGRZ,
                        VALE_CALC=8.470329472543E-22,
                        VALE_REFE=0.0,
                        REFERENCE = 'ANALYTIQUE',
                        PRECISION=1.E-3,),
                     _F(NOEUD='N8',
                        CRITERE='ABSOLU',
                        NOM_CMP='SIXX',
                        MAILLE='M3',
                        CHAM_GD=SIGRZ,
                        VALE_CALC=-6.7762635780344E-21,
                        VALE_REFE=0.0,
                        REFERENCE = 'ANALYTIQUE',
                        PRECISION=1.E-3,),
                     _F(NOEUD='N9',
                        CRITERE='ABSOLU',
                        NOM_CMP='SIXX',
                        MAILLE='M1',
                        CHAM_GD=SIGRZ,
                        VALE_CALC=-8.470329472543E-22,
                        VALE_REFE=0.0,
                        REFERENCE = 'ANALYTIQUE',
                        PRECISION=1.E-3,),
                     _F(NOEUD='N9',
                        CRITERE='ABSOLU',
                        NOM_CMP='SIXX',
                        MAILLE='M2',
                        CHAM_GD=SIGRZ,
                        VALE_CALC=1.6940658945086E-21,
                        VALE_REFE=0.0,
                        REFERENCE = 'ANALYTIQUE',
                        PRECISION=1.E-3,),
                     _F(NOEUD='N9',
                        CRITERE='ABSOLU',
                        NOM_CMP='SIXX',
                        MAILLE='M3',
                        CHAM_GD=SIGRZ,
                        VALE_CALC=-1.3552527156069E-20,
                        VALE_REFE=0.0,
                        REFERENCE = 'ANALYTIQUE',
                        PRECISION=1.E-3,),
                     _F(NOEUD='N13',
                        CRITERE='ABSOLU',
                        NOM_CMP='SIXX',
                        MAILLE='M4',
                        CHAM_GD=SIGRZ,
                        VALE_CALC=1.0842021724855E-19,
                        VALE_REFE=0.0,
                        REFERENCE = 'ANALYTIQUE',
                        PRECISION=1.E-3,),
                     _F(NOEUD='N15',
                        CRITERE='ABSOLU',
                        NOM_CMP='SIXX',
                        MAILLE='M3',
                        CHAM_GD=SIGRZ,
                        VALE_CALC=2.7105054312138E-20,
                        VALE_REFE=0.0,
                        REFERENCE = 'ANALYTIQUE',
                        PRECISION=1.E-3,),
                     _F(NOEUD='N15',
                        CRITERE='ABSOLU',
                        NOM_CMP='SIXX',
                        MAILLE='M4',
                        CHAM_GD=SIGRZ,
                        VALE_CALC=-1.3552527156069E-20,
                        VALE_REFE=0.0,
                        REFERENCE = 'ANALYTIQUE',
                        PRECISION=1.E-3,),
                     _F(NOEUD='N3',
                        CRITERE='ABSOLU',
                        NOM_CMP='SIYY',
                        MAILLE='M1',
                        CHAM_GD=SIGRZ,
                        VALE_CALC=-1.1102230246252E-16,
                        VALE_REFE=0.0,
                        REFERENCE = 'ANALYTIQUE',
                        PRECISION=1.E-3,),
                     _F(NOEUD='N7',
                        CRITERE='ABSOLU',
                        NOM_CMP='SIYY',
                        MAILLE='M2',
                        CHAM_GD=SIGRZ,
                        VALE_CALC=-2.7105054312138E-20,
                        VALE_REFE=0.0,
                        REFERENCE = 'ANALYTIQUE',
                        PRECISION=1.E-3,),
                     _F(NOEUD='N7',
                        CRITERE='ABSOLU',
                        NOM_CMP='SIYY',
                        MAILLE='M3',
                        CHAM_GD=SIGRZ,
                        VALE_CALC=6.7762635780344E-21,
                        VALE_REFE=0.0,
                        REFERENCE = 'ANALYTIQUE',
                        PRECISION=1.E-3,),
                     _F(NOEUD='N7',
                        CRITERE='ABSOLU',
                        NOM_CMP='SIYY',
                        MAILLE='M4',
                        CHAM_GD=SIGRZ,
                        VALE_CALC=-1.3552527156069E-20,
                        VALE_REFE=0.0,
                        REFERENCE = 'ANALYTIQUE',
                        PRECISION=1.E-3,),
                     _F(NOEUD='N8',
                        CRITERE='ABSOLU',
                        NOM_CMP='SIYY',
                        MAILLE='M2',
                        CHAM_GD=SIGRZ,
                        VALE_CALC=-5.5511151231258E-17,
                        VALE_REFE=0.0,
                        REFERENCE = 'ANALYTIQUE',
                        PRECISION=1.E-3,),
                     _F(NOEUD='N8',
                        CRITERE='ABSOLU',
                        NOM_CMP='SIYY',
                        MAILLE='M3',
                        CHAM_GD=SIGRZ,
                        VALE_CALC=-5.5511151231258E-17,
                        VALE_REFE=0.0,
                        REFERENCE = 'ANALYTIQUE',
                        PRECISION=1.E-3,),
                     _F(NOEUD='N9',
                        CRITERE='ABSOLU',
                        NOM_CMP='SIYY',
                        MAILLE='M1',
                        CHAM_GD=SIGRZ,
                        VALE_CALC=-1.1102230246252E-16,
                        VALE_REFE=0.0,
                        REFERENCE = 'ANALYTIQUE',
                        PRECISION=1.E-3,),
                     _F(NOEUD='N9',
                        CRITERE='ABSOLU',
                        NOM_CMP='SIYY',
                        MAILLE='M2',
                        CHAM_GD=SIGRZ,
                        VALE_CALC=-1.1102230246252E-16,
                        VALE_REFE=0.0,
                        REFERENCE = 'ANALYTIQUE',
                        PRECISION=1.E-3,),
                     _F(NOEUD='N9',
                        CRITERE='ABSOLU',
                        NOM_CMP='SIYY',
                        MAILLE='M3',
                        CHAM_GD=SIGRZ,
                        VALE_CALC=-1.1102230246252E-16,
                        VALE_REFE=0.0,
                        REFERENCE = 'ANALYTIQUE',
                        PRECISION=1.E-3,),
                     _F(NOEUD='N13',
                        CRITERE='ABSOLU',
                        NOM_CMP='SIYY',
                        MAILLE='M4',
                        CHAM_GD=SIGRZ,
                        VALE_CALC=-1.0842021724855E-19,
                        VALE_REFE=0.0,
                        REFERENCE = 'ANALYTIQUE',
                        PRECISION=1.E-3,),
                     _F(NOEUD='N15',
                        CRITERE='ABSOLU',
                        NOM_CMP='SIYY',
                        MAILLE='M3',
                        CHAM_GD=SIGRZ,
                        VALE_CALC=-1.1102230246252E-16,
                        VALE_REFE=0.0,
                        REFERENCE = 'ANALYTIQUE',
                        PRECISION=1.E-3,),
                     _F(NOEUD='N15',
                        CRITERE='ABSOLU',
                        NOM_CMP='SIYY',
                        MAILLE='M4',
                        CHAM_GD=SIGRZ,
                        VALE_CALC=-1.1102230246252E-16,
                        VALE_REFE=0.0,
                        REFERENCE = 'ANALYTIQUE',
                        PRECISION=1.E-3,),
                     _F(NOEUD='N3',
                        CRITERE='ABSOLU',
                        NOM_CMP='SIZZ',
                        MAILLE='M1',
                        CHAM_GD=SIGRZ,
                        VALE_CALC=-5.2939559203394E-23,
                        VALE_REFE=0.0,
                        REFERENCE = 'ANALYTIQUE',
                        PRECISION=1.E-3,),
                     _F(NOEUD='N7',
                        CRITERE='ABSOLU',
                        NOM_CMP='SIZZ',
                        MAILLE='M2',
                        CHAM_GD=SIGRZ,
                        VALE_CALC=2.7105054312138E-20,
                        VALE_REFE=0.0,
                        REFERENCE = 'ANALYTIQUE',
                        PRECISION=1.E-3,),
                     _F(NOEUD='N7',
                        CRITERE='ABSOLU',
                        NOM_CMP='SIZZ',
                        MAILLE='M3',
                        CHAM_GD=SIGRZ,
                        VALE_CALC=-1.3552527156069E-20,
                        VALE_REFE=0.0,
                        REFERENCE = 'ANALYTIQUE',
                        PRECISION=1.E-3,),
                     _F(NOEUD='N7',
                        CRITERE='ABSOLU',
                        NOM_CMP='SIZZ',
                        MAILLE='M4',
                        CHAM_GD=SIGRZ,
                        VALE_CALC=-2.7105054312138E-20,
                        VALE_REFE=0.0,
                        REFERENCE = 'ANALYTIQUE',
                        PRECISION=1.E-3,),
                     _F(NOEUD='N8',
                        CRITERE='ABSOLU',
                        NOM_CMP='SIZZ',
                        MAILLE='M2',
                        CHAM_GD=SIGRZ,
                        VALE_CALC=0.0E+00,
                        VALE_REFE=0.0,
                        REFERENCE = 'ANALYTIQUE',
                        PRECISION=1.E-3,),
                     _F(NOEUD='N8',
                        CRITERE='ABSOLU',
                        NOM_CMP='SIZZ',
                        MAILLE='M3',
                        CHAM_GD=SIGRZ,
                        VALE_CALC=-6.7762635780344E-21,
                        VALE_REFE=0.0,
                        REFERENCE = 'ANALYTIQUE',
                        PRECISION=1.E-3,),
                     _F(NOEUD='N9',
                        CRITERE='ABSOLU',
                        NOM_CMP='SIZZ',
                        MAILLE='M1',
                        CHAM_GD=SIGRZ,
                        VALE_CALC=3.3881317890172E-21,
                        VALE_REFE=0.0,
                        REFERENCE = 'ANALYTIQUE',
                        PRECISION=1.E-3,),
                     _F(NOEUD='N9',
                        CRITERE='ABSOLU',
                        NOM_CMP='SIZZ',
                        MAILLE='M2',
                        CHAM_GD=SIGRZ,
                        VALE_CALC=0.0E+00,
                        VALE_REFE=0.0,
                        REFERENCE = 'ANALYTIQUE',
                        PRECISION=1.E-3,),
                     _F(NOEUD='N9',
                        CRITERE='ABSOLU',
                        NOM_CMP='SIZZ',
                        MAILLE='M3',
                        CHAM_GD=SIGRZ,
                        VALE_CALC=-3.3881317890172E-21,
                        VALE_REFE=0.0,
                        REFERENCE = 'ANALYTIQUE',
                        PRECISION=1.E-3,),
                     _F(NOEUD='N13',
                        CRITERE='ABSOLU',
                        NOM_CMP='SIZZ',
                        MAILLE='M4',
                        CHAM_GD=SIGRZ,
                        VALE_CALC=-1.3552527156069E-20,
                        VALE_REFE=0.0,
                        REFERENCE = 'ANALYTIQUE',
                        PRECISION=1.E-3,),
                     _F(NOEUD='N15',
                        CRITERE='ABSOLU',
                        NOM_CMP='SIZZ',
                        MAILLE='M3',
                        CHAM_GD=SIGRZ,
                        VALE_CALC=-2.7105054312138E-20,
                        VALE_REFE=0.0,
                        REFERENCE = 'ANALYTIQUE',
                        PRECISION=1.E-3,),
                     _F(NOEUD='N15',
                        CRITERE='ABSOLU',
                        NOM_CMP='SIZZ',
                        MAILLE='M4',
                        CHAM_GD=SIGRZ,
                        VALE_CALC=5.4210108624275E-20,
                        VALE_REFE=0.0,
                        REFERENCE = 'ANALYTIQUE',
                        PRECISION=1.E-3,),
                     _F(NOEUD='N3',
                        CRITERE='ABSOLU',
                        NOM_CMP='SIXY',
                        MAILLE='M1',
                        CHAM_GD=SIGRZ,
                        VALE_CALC=-4.2351647362715E-22,
                        VALE_REFE=0.0,
                        REFERENCE = 'ANALYTIQUE',
                        PRECISION=1.E-3,),
                     _F(NOEUD='N7',
                        CRITERE='ABSOLU',
                        NOM_CMP='SIXY',
                        MAILLE='M2',
                        CHAM_GD=SIGRZ,
                        VALE_CALC=2.7105054312138E-20,
                        VALE_REFE=0.0,
                        REFERENCE = 'ANALYTIQUE',
                        PRECISION=1.E-3,),
                     _F(NOEUD='N7',
                        CRITERE='ABSOLU',
                        NOM_CMP='SIXY',
                        MAILLE='M3',
                        CHAM_GD=SIGRZ,
                        VALE_CALC=6.7762635780344E-21,
                        VALE_REFE=0.0,
                        REFERENCE = 'ANALYTIQUE',
                        PRECISION=1.E-3,),
                     _F(NOEUD='N7',
                        CRITERE='ABSOLU',
                        NOM_CMP='SIXY',
                        MAILLE='M4',
                        CHAM_GD=SIGRZ,
                        VALE_CALC=-2.7105054312138E-20,
                        VALE_REFE=0.0,
                        REFERENCE = 'ANALYTIQUE',
                        PRECISION=1.E-3,),
                     _F(NOEUD='N8',
                        CRITERE='ABSOLU',
                        NOM_CMP='SIXY',
                        MAILLE='M2',
                        CHAM_GD=SIGRZ,
                        VALE_CALC=1.3552527156069E-20,
                        VALE_REFE=0.0,
                        REFERENCE = 'ANALYTIQUE',
                        PRECISION=1.E-3,),
                     _F(NOEUD='N8',
                        CRITERE='ABSOLU',
                        NOM_CMP='SIXY',
                        MAILLE='M3',
                        CHAM_GD=SIGRZ,
                        VALE_CALC=-1.6940658945086E-21,
                        VALE_REFE=0.0,
                        REFERENCE = 'ANALYTIQUE',
                        PRECISION=1.E-3,),
                     _F(NOEUD='N9',
                        CRITERE='ABSOLU',
                        NOM_CMP='SIXY',
                        MAILLE='M1',
                        CHAM_GD=SIGRZ,
                        VALE_CALC=4.2351647362715E-22,
                        VALE_REFE=0.0,
                        REFERENCE = 'ANALYTIQUE',
                        PRECISION=1.E-3,),
                     _F(NOEUD='N9',
                        CRITERE='ABSOLU',
                        NOM_CMP='SIXY',
                        MAILLE='M2',
                        CHAM_GD=SIGRZ,
                        VALE_CALC=6.7762635780344E-21,
                        VALE_REFE=0.0,
                        REFERENCE = 'ANALYTIQUE',
                        PRECISION=1.E-3,),
                     _F(NOEUD='N9',
                        CRITERE='ABSOLU',
                        NOM_CMP='SIXY',
                        MAILLE='M3',
                        CHAM_GD=SIGRZ,
                        VALE_CALC=-1.3552527156069E-20,
                        VALE_REFE=0.0,
                        REFERENCE = 'ANALYTIQUE',
                        PRECISION=1.E-3,),
                     _F(NOEUD='N13',
                        CRITERE='ABSOLU',
                        NOM_CMP='SIXY',
                        MAILLE='M4',
                        CHAM_GD=SIGRZ,
                        VALE_CALC=8.673617379884E-19,
                        VALE_REFE=0.0,
                        REFERENCE = 'ANALYTIQUE',
                        PRECISION=1.E-3,),
                     _F(NOEUD='N15',
                        CRITERE='ABSOLU',
                        NOM_CMP='SIXY',
                        MAILLE='M3',
                        CHAM_GD=SIGRZ,
                        VALE_CALC=1.6940658945086E-21,
                        VALE_REFE=0.0,
                        REFERENCE = 'ANALYTIQUE',
                        PRECISION=1.E-3,),
                     _F(NOEUD='N15',
                        CRITERE='ABSOLU',
                        NOM_CMP='SIXY',
                        MAILLE='M4',
                        CHAM_GD=SIGRZ,
                        VALE_CALC=-4.336808689942E-19,
                        VALE_REFE=0.0,
                        REFERENCE = 'ANALYTIQUE',
                        PRECISION=1.E-3,),
                     ),
          )

SIGTH = CREA_CHAMP(OPERATION='ASSE',MODELE=MO,TYPE_CHAM='ELNO_SIEF_R',
                   OPTION='SIGM_ELNO',
                   ASSE=(_F( CHAM_GD=SIG45,TOUT='OUI',CUMUL='OUI',COEF_R=1.),
                         _F( CHAM_GD=SIG135,TOUT='OUI',CUMUL='OUI',COEF_R=-1.),),)

TEST_RESU(CHAM_ELEM=(_F(NOEUD='N3',
                        NOM_CMP='SIYY',
                        MAILLE='M1',
                        CHAM_GD=SIGTH,
                        VALE_CALC=-1.4142224013749,
                        VALE_REFE=-1.4142135,
                        REFERENCE = 'ANALYTIQUE',
                        PRECISION=1.E-3,),
                     _F(NOEUD='N9',
                        NOM_CMP='SIYY',
                        MAILLE='M1',
                        CHAM_GD=SIGTH,
                        VALE_CALC=-1.414193976448,
                        VALE_REFE=-1.4142135,
                        REFERENCE = 'ANALYTIQUE',
                        PRECISION=1.E-3,),
                     _F(NOEUD='N9',
                        NOM_CMP='SIYY',
                        MAILLE='M3',
                        CHAM_GD=SIGTH,
                        VALE_CALC=-1.4145355563932,
                        VALE_REFE=-1.4142135,
                        REFERENCE = 'ANALYTIQUE',
                        PRECISION=1.E-3,),
                     _F(NOEUD='N15',
                        NOM_CMP='SIYY',
                        MAILLE='M3',
                        CHAM_GD=SIGTH,
                        VALE_CALC=-1.4147855198114,
                        VALE_REFE=-1.4142135,
                        REFERENCE = 'ANALYTIQUE',
                        PRECISION=1.E-3,),
                     _F(NOEUD='N15',
                        NOM_CMP='SIYY',
                        MAILLE='M4',
                        CHAM_GD=SIGTH,
                        VALE_CALC=-1.4119864982915,
                        VALE_REFE=-1.4142135,
                        REFERENCE = 'ANALYTIQUE',
                        PRECISION=2.E-3,),
                     _F(NOEUD='N3',
                        CRITERE='ABSOLU',
                        NOM_CMP='SIXZ',
                        MAILLE='M1',
                        CHAM_GD=SIGTH,
                        VALE_CALC=4.2351647362715E-22,
                        VALE_REFE=0.0,
                        REFERENCE = 'ANALYTIQUE',
                        PRECISION=1.E-3,),
                     _F(NOEUD='N7',
                        CRITERE='ABSOLU',
                        NOM_CMP='SIXZ',
                        MAILLE='M2',
                        CHAM_GD=SIGTH,
                        VALE_CALC=6.7762635780344E-21,
                        VALE_REFE=0.0,
                        REFERENCE = 'ANALYTIQUE',
                        PRECISION=1.E-3,),
                     _F(NOEUD='N7',
                        CRITERE='ABSOLU',
                        NOM_CMP='SIXZ',
                        MAILLE='M3',
                        CHAM_GD=SIGTH,
                        VALE_CALC=-1.3552527156069E-20,
                        VALE_REFE=0.0,
                        REFERENCE = 'ANALYTIQUE',
                        PRECISION=1.E-3,),
                     _F(NOEUD='N7',
                        CRITERE='ABSOLU',
                        NOM_CMP='SIXZ',
                        MAILLE='M4',
                        CHAM_GD=SIGTH,
                        VALE_CALC=1.3552527156069E-20,
                        VALE_REFE=0.0,
                        REFERENCE = 'ANALYTIQUE',
                        PRECISION=1.E-3,),
                     _F(NOEUD='N8',
                        CRITERE='ABSOLU',
                        NOM_CMP='SIXZ',
                        MAILLE='M2',
                        CHAM_GD=SIGTH,
                        VALE_CALC=6.7762635780344E-21,
                        VALE_REFE=0.0,
                        REFERENCE = 'ANALYTIQUE',
                        PRECISION=1.E-3,),
                     _F(NOEUD='N8',
                        CRITERE='ABSOLU',
                        NOM_CMP='SIXZ',
                        MAILLE='M3',
                        CHAM_GD=SIGTH,
                        VALE_CALC=-3.3881317890172E-21,
                        VALE_REFE=0.0,
                        REFERENCE = 'ANALYTIQUE',
                        PRECISION=1.E-3,),
                     _F(NOEUD='N9',
                        CRITERE='ABSOLU',
                        NOM_CMP='SIXZ',
                        MAILLE='M1',
                        CHAM_GD=SIGTH,
                        VALE_CALC=1.6940658945086E-21,
                        VALE_REFE=0.0,
                        REFERENCE = 'ANALYTIQUE',
                        PRECISION=1.E-3,),
                     _F(NOEUD='N9',
                        CRITERE='ABSOLU',
                        NOM_CMP='SIXZ',
                        MAILLE='M2',
                        CHAM_GD=SIGTH,
                        VALE_CALC=3.3881317890172E-21,
                        VALE_REFE=0.0,
                        REFERENCE = 'ANALYTIQUE',
                        PRECISION=1.E-3,),
                     _F(NOEUD='N9',
                        CRITERE='ABSOLU',
                        NOM_CMP='SIXZ',
                        MAILLE='M3',
                        CHAM_GD=SIGTH,
                        VALE_CALC=3.3881317890172E-21,
                        VALE_REFE=0.0,
                        REFERENCE = 'ANALYTIQUE',
                        PRECISION=1.E-3,),
                     _F(NOEUD='N13',
                        CRITERE='ABSOLU',
                        NOM_CMP='SIXZ',
                        MAILLE='M4',
                        CHAM_GD=SIGTH,
                        VALE_CALC=0.0E+00,
                        VALE_REFE=0.0,
                        REFERENCE = 'ANALYTIQUE',
                        PRECISION=1.E-3,),
                     _F(NOEUD='N15',
                        CRITERE='ABSOLU',
                        NOM_CMP='SIXZ',
                        MAILLE='M3',
                        CHAM_GD=SIGTH,
                        VALE_CALC=-6.7762635780344E-21,
                        VALE_REFE=0.0,
                        REFERENCE = 'ANALYTIQUE',
                        PRECISION=1.E-3,),
                     _F(NOEUD='N15',
                        CRITERE='ABSOLU',
                        NOM_CMP='SIXZ',
                        MAILLE='M4',
                        CHAM_GD=SIGTH,
                        VALE_CALC=6.7762635780344E-21,
                        VALE_REFE=0.0,
                        REFERENCE = 'ANALYTIQUE',
                        PRECISION=1.E-3,),
                     _F(NOEUD='N3',
                        CRITERE='ABSOLU',
                        NOM_CMP='SIYZ',
                        MAILLE='M1',
                        CHAM_GD=SIGTH,
                        VALE_CALC=4.2351647362715E-22,
                        VALE_REFE=0.0,
                        REFERENCE = 'ANALYTIQUE',
                        PRECISION=1.E-3,),
                     _F(NOEUD='N7',
                        CRITERE='ABSOLU',
                        NOM_CMP='SIYZ',
                        MAILLE='M2',
                        CHAM_GD=SIGTH,
                        VALE_CALC=-5.4210108624275E-20,
                        VALE_REFE=0.0,
                        REFERENCE = 'ANALYTIQUE',
                        PRECISION=1.E-3,),
                     _F(NOEUD='N7',
                        CRITERE='ABSOLU',
                        NOM_CMP='SIYZ',
                        MAILLE='M3',
                        CHAM_GD=SIGTH,
                        VALE_CALC=-2.7105054312138E-20,
                        VALE_REFE=0.0,
                        REFERENCE = 'ANALYTIQUE',
                        PRECISION=1.E-3,),
                     _F(NOEUD='N7',
                        CRITERE='ABSOLU',
                        NOM_CMP='SIYZ',
                        MAILLE='M4',
                        CHAM_GD=SIGTH,
                        VALE_CALC=1.0842021724855E-19,
                        VALE_REFE=0.0,
                        REFERENCE = 'ANALYTIQUE',
                        PRECISION=1.E-3,),
                     _F(NOEUD='N8',
                        CRITERE='ABSOLU',
                        NOM_CMP='SIYZ',
                        MAILLE='M2',
                        CHAM_GD=SIGTH,
                        VALE_CALC=0.0E+00,
                        VALE_REFE=0.0,
                        REFERENCE = 'ANALYTIQUE',
                        PRECISION=1.E-3,),
                     _F(NOEUD='N8',
                        CRITERE='ABSOLU',
                        NOM_CMP='SIYZ',
                        MAILLE='M3',
                        CHAM_GD=SIGTH,
                        VALE_CALC=-1.3552527156069E-20,
                        VALE_REFE=0.0,
                        REFERENCE = 'ANALYTIQUE',
                        PRECISION=1.E-3,),
                     _F(NOEUD='N9',
                        CRITERE='ABSOLU',
                        NOM_CMP='SIYZ',
                        MAILLE='M1',
                        CHAM_GD=SIGTH,
                        VALE_CALC=-8.470329472543E-22,
                        VALE_REFE=0.0,
                        REFERENCE = 'ANALYTIQUE',
                        PRECISION=1.E-3,),
                     _F(NOEUD='N9',
                        CRITERE='ABSOLU',
                        NOM_CMP='SIYZ',
                        MAILLE='M2',
                        CHAM_GD=SIGTH,
                        VALE_CALC=1.6940658945086E-21,
                        VALE_REFE=0.0,
                        REFERENCE = 'ANALYTIQUE',
                        PRECISION=1.E-3,),
                     _F(NOEUD='N9',
                        CRITERE='ABSOLU',
                        NOM_CMP='SIYZ',
                        MAILLE='M3',
                        CHAM_GD=SIGTH,
                        VALE_CALC=-6.7762635780344E-21,
                        VALE_REFE=0.0,
                        REFERENCE = 'ANALYTIQUE',
                        PRECISION=1.E-3,),
                     _F(NOEUD='N13',
                        CRITERE='ABSOLU',
                        NOM_CMP='SIYZ',
                        MAILLE='M4',
                        CHAM_GD=SIGTH,
                        VALE_CALC=-2.168404344971E-19,
                        VALE_REFE=0.0,
                        REFERENCE = 'ANALYTIQUE',
                        PRECISION=1.E-3,),
                     _F(NOEUD='N15',
                        CRITERE='ABSOLU',
                        NOM_CMP='SIYZ',
                        MAILLE='M3',
                        CHAM_GD=SIGTH,
                        VALE_CALC=1.3552527156069E-20,
                        VALE_REFE=0.0,
                        REFERENCE = 'ANALYTIQUE',
                        PRECISION=1.E-3,),
                     _F(NOEUD='N15',
                        CRITERE='ABSOLU',
                        NOM_CMP='SIYZ',
                        MAILLE='M4',
                        CHAM_GD=SIGTH,
                        VALE_CALC=1.0842021724855E-19,
                        VALE_REFE=0.0,
                        REFERENCE = 'ANALYTIQUE',
                        PRECISION=1.E-3,),
                     ),
          )

FIN( )
#
