# MODIF  DATE 11/06/2012   AUTEUR PELLET J.PELLET 
# TITRE CYLINDRE EN D.P. (TRIA3 QUAD4)
# sslv100a.para = tps_job 60 mem_job 128Mo ncpus 1 liste_test S
#            CONFIGURATION MANAGEMENT OF EDF VERSION
# ======================================================================
# COPYRIGHT (C) 1991 - 2012  EDF R&D                  WWW.CODE-ASTER.ORG
# THIS PROGRAM IS FREE SOFTWARE; YOU CAN REDISTRIBUTE IT AND/OR MODIFY
# IT UNDER THE TERMS OF THE GNU GENERAL PUBLIC LICENSE AS PUBLISHED BY
# THE FREE SOFTWARE FOUNDATION; EITHER VERSION 2 OF THE LICENSE, OR
# (AT YOUR OPTION) ANY LATER VERSION.
#
# THIS PROGRAM IS DISTRIBUTED IN THE HOPE THAT IT WILL BE USEFUL, BUT
# WITHOUT ANY WARRANTY; WITHOUT EVEN THE IMPLIED WARRANTY OF
# MERCHANTABILITY OR FITNESS FOR A PARTICULAR PURPOSE. SEE THE GNU
# GENERAL PUBLIC LICENSE FOR MORE DETAILS.
#
# YOU SHOULD HAVE RECEIVED A COPY OF THE GNU GENERAL PUBLIC LICENSE
# ALONG WITH THIS PROGRAM; IF NOT, WRITE TO EDF R&D CODE_ASTER,
#    1 AVENUE DU GENERAL DE GAULLE, 92141 CLAMART CEDEX, FRANCE.
# ======================================================================
#CAS_TEST__: SSLV100A
# ----------------------------------------------------------------------
# CYLINDRE CREUX EN DEFORMATIONS PLANES
#
# MODELISATION : ELEMENTS MECANIQUE D_PLAN (TRIA3 QUAD4)
# MAILLAGE     : ASTER (ISSU DE GIBI)
# ----------------------------------------------------------------------
# GROUPES DE NOEUDS: A , B , C , D , E , F , BORDAB
# GROUPES DE MAILLES:  AE , FE
# ----------------------------------------------------------------------
#

DEBUT(CODE=_F(NOM='SSLV100A',NIV_PUB_WEB='INTERNET'),DEBUG=_F(SDVERI='OUI'))

M=LIRE_MAILLAGE(FORMAT='MED',)

DEFI_GROUP(reuse=M,       MAILLAGE=M,
                  CREA_GROUP_NO=_F( NOM = 'DIRI', GROUP_MA = 'AB'))

MO=AFFE_MODELE(            MAILLAGE=M,
                                   VERIF='MAILLE',
                                  AFFE=_F(  TOUT = 'OUI',
                                         PHENOMENE = 'MECANIQUE',
                                         MODELISATION = 'D_PLAN'))

MA=DEFI_MATERIAU(            ELAS=_F(  E = 200000.,
                                         NU = 0.3,
                                         ALPHA = 0.) )

CM=AFFE_MATERIAU(        MAILLAGE=M,
                                  AFFE=_F(  TOUT = 'OUI',
                                         MATER = MA))

CH=AFFE_CHAR_MECA(         MODELE=MO,
                              DDL_IMPO=_F(  GROUP_NO = 'DIRI',  DY = 0.),
                             FACE_IMPO=_F(  GROUP_MA = 'FE',  DNOR = 0.),
                              PRES_REP=_F(  GROUP_MA = 'AE',  PRES = 60.))

RESU=MECA_STATIQUE(         MODELE=MO,    CHAM_MATER=CM,
                          EXCIT=_F(  CHARGE = CH),
                      )


CALC_CHAMP(reuse=RESU,RESULTAT=RESU,CONTRAINTE=('SIGM_ELNO'),DEFORMATION=('EPSI_ELNO'))


CALC_CHAMP( reuse=RESU,                      RESULTAT=RESU,
                     DEFORMATION='EPSI_NOEU',CONTRAINTE='SIGM_NOEU')

#--------------------------------------------------------------------

TEST_RESU(RESU=(
   # DEPLACEMENTS

         _F(    CRITERE = 'RELATIF',   PRECISION = 1.E-2,
         REFERENCE='ANALYTIQUE',
         RESULTAT = RESU, NOM_CHAM = 'DEPL',   NUME_ORDRE = 1,
         GROUP_NO = 'A',     NOM_CMP = 'DX',            VALE = 5.72E-5),
         _F(    CRITERE = 'ABSOLU',    PRECISION = 1.E-10,
         REFERENCE='ANALYTIQUE',
         RESULTAT = RESU, NOM_CHAM = 'DEPL',   NUME_ORDRE = 1,
         GROUP_NO = 'A',     NOM_CMP = 'DY',            VALE = 0.),
         _F(    CRITERE = 'RELATIF',   PRECISION = 1.E-2,
         REFERENCE='ANALYTIQUE',
         RESULTAT = RESU, NOM_CHAM = 'DEPL',   NUME_ORDRE = 1,
         GROUP_NO = 'B',     NOM_CMP = 'DX',            VALE = 3.64E-5),
         _F(   CRITERE = 'ABSOLU',    PRECISION = 1.E-2,
         REFERENCE='ANALYTIQUE',
         RESULTAT = RESU, NOM_CHAM = 'DEPL',   NUME_ORDRE = 1,
         GROUP_NO = 'B',     NOM_CMP = 'DY',            VALE = 0.),
         _F(    CRITERE = 'RELATIF',   PRECISION = 1.E-2,
         REFERENCE='ANALYTIQUE',
         RESULTAT = RESU, NOM_CHAM = 'DEPL',   NUME_ORDRE = 1,
         GROUP_NO = 'D',     NOM_CMP = 'DX',            VALE = 3.36292E-5),
         _F(   CRITERE = 'RELATIF',   PRECISION = 1.E-2,
         REFERENCE='ANALYTIQUE',
         RESULTAT = RESU, NOM_CHAM = 'DEPL',   NUME_ORDRE = 1,
         GROUP_NO = 'D',     NOM_CMP = 'DY',            VALE = 1.39297E-5),
         _F(    CRITERE = 'RELATIF',   PRECISION = 1.E-2,
         REFERENCE='ANALYTIQUE',
         RESULTAT = RESU, NOM_CHAM = 'DEPL',   NUME_ORDRE = 1,
         GROUP_NO = 'E',     NOM_CMP = 'DX',            VALE = 4.04465E-5),
         _F(   CRITERE = 'RELATIF',   PRECISION = 1.E-2,
         REFERENCE='ANALYTIQUE',
         RESULTAT = RESU, NOM_CHAM = 'DEPL',   NUME_ORDRE = 1,
         GROUP_NO = 'E',     NOM_CMP = 'DY',            VALE = 4.04465E-5),
         _F(   CRITERE = 'RELATIF',   PRECISION = 1.E-2,
         REFERENCE='ANALYTIQUE',
         RESULTAT = RESU, NOM_CHAM = 'DEPL',   NUME_ORDRE = 1,
         GROUP_NO = 'F',     NOM_CMP = 'DX',            VALE = 2.57387E-5),
         _F(    CRITERE = 'RELATIF',   PRECISION = 1.E-2,
         REFERENCE='ANALYTIQUE',
         RESULTAT = RESU, NOM_CHAM = 'DEPL',   NUME_ORDRE = 1,
         GROUP_NO = 'F',     NOM_CMP = 'DY',            VALE = 2.57387E-5))
           )

# CONTRAINTES

TEST_RESU(RESU=(

           _F(   CRITERE = 'RELATIF',    PRECISION = 5.E-2,
         REFERENCE='ANALYTIQUE',
 RESULTAT = RESU, NOM_CHAM = 'SIGM_NOEU',   NUME_ORDRE = 1,
 GROUP_NO = 'A',       NOM_CMP = 'SIXX',       VALE = -60.),
           _F(   CRITERE = 'RELATIF',    PRECISION = 5.E-2,
         REFERENCE='ANALYTIQUE',
 RESULTAT = RESU, NOM_CHAM = 'SIGM_NOEU',   NUME_ORDRE = 1,
 GROUP_NO = 'A',      NOM_CMP = 'SIYY',       VALE = 100.),
           _F(    CRITERE = 'RELATIF',     PRECISION = 5.E-2,
         REFERENCE='ANALYTIQUE',
 RESULTAT = RESU, NOM_CHAM = 'SIGM_NOEU',   NUME_ORDRE = 1,
 GROUP_NO = 'A',        NOM_CMP = 'SIZZ',       VALE = 12.),
           _F(   CRITERE = 'ABSOLU',     PRECISION = 2.,
         REFERENCE='ANALYTIQUE',
 RESULTAT = RESU, NOM_CHAM = 'SIGM_NOEU',   NUME_ORDRE = 1,
 GROUP_NO = 'A',        NOM_CMP = 'SIXY',       VALE = 0.))
           )

#

TEST_RESU(RESU=(

           _F(   CRITERE = 'ABSOLU',     PRECISION = 2.,
         REFERENCE='ANALYTIQUE',
 RESULTAT = RESU, NOM_CHAM = 'SIGM_NOEU',   NUME_ORDRE = 1,
 GROUP_NO = 'B',    NOM_CMP = 'SIXX',       VALE = 0.),
           _F(   CRITERE = 'RELATIF',    PRECISION = 5.E-2,
         REFERENCE='ANALYTIQUE',
 RESULTAT = RESU, NOM_CHAM = 'SIGM_NOEU',   NUME_ORDRE = 1,
 GROUP_NO = 'B',     NOM_CMP = 'SIYY',       VALE = 40.),
           _F(    CRITERE = 'ABSOLU',     PRECISION = 1.,
         REFERENCE='ANALYTIQUE',
 RESULTAT = RESU, NOM_CHAM = 'SIGM_NOEU',   NUME_ORDRE = 1,
 GROUP_NO = 'B',     NOM_CMP = 'SIZZ',       VALE = 12.),
           _F(    CRITERE = 'ABSOLU',     PRECISION = 1.,
         REFERENCE='ANALYTIQUE',
 RESULTAT = RESU, NOM_CHAM = 'SIGM_NOEU',   NUME_ORDRE = 1,
 GROUP_NO = 'B',    NOM_CMP = 'SIXY',       VALE = 0.))
           )

#

TEST_RESU(RESU=(

           _F(   CRITERE = 'RELATIF',     PRECISION = 5.E-2,
         REFERENCE='ANALYTIQUE',
 RESULTAT = RESU, NOM_CHAM = 'SIGM_NOEU',   NUME_ORDRE = 1,
 GROUP_NO = 'C',    NOM_CMP = 'SIXX',       VALE = -36.56854),
           _F(   CRITERE = 'RELATIF',    PRECISION = 5.E-2,
         REFERENCE='ANALYTIQUE',
 RESULTAT = RESU, NOM_CHAM = 'SIGM_NOEU',   NUME_ORDRE = 1,
 GROUP_NO = 'C',     NOM_CMP = 'SIYY',       VALE = 76.56854),
           _F(    CRITERE = 'RELATIF',     PRECISION = 5.E-2,
         REFERENCE='ANALYTIQUE',
 RESULTAT = RESU, NOM_CHAM = 'SIGM_NOEU',   NUME_ORDRE = 1,
 GROUP_NO = 'C',     NOM_CMP = 'SIZZ',       VALE = 12.),
           _F(    CRITERE = 'RELATIF',     PRECISION = 5.E-2,
         REFERENCE='ANALYTIQUE',
 RESULTAT = RESU, NOM_CHAM = 'SIGM_NOEU',   NUME_ORDRE = 1,
 GROUP_NO = 'C',    NOM_CMP = 'SIXY',       VALE = -56.56854))
           )

#

TEST_RESU(RESU=(

           _F(   CRITERE = 'RELATIF',     PRECISION = 0.2,
         REFERENCE='ANALYTIQUE',
 RESULTAT = RESU, NOM_CHAM = 'SIGM_NOEU',   NUME_ORDRE = 1,
 GROUP_NO = 'D',    NOM_CMP = 'SIXX',       VALE = 5.85786),
           _F(   CRITERE = 'RELATIF',    PRECISION = 5.E-2,
         REFERENCE='ANALYTIQUE',
 RESULTAT = RESU, NOM_CHAM = 'SIGM_NOEU',   NUME_ORDRE = 1,
 GROUP_NO = 'D',     NOM_CMP = 'SIYY',       VALE = 34.14214),
           _F(    CRITERE = 'RELATIF',     PRECISION = 5.E-2,
         REFERENCE='ANALYTIQUE',
 RESULTAT = RESU, NOM_CHAM = 'SIGM_NOEU',   NUME_ORDRE = 1,
 GROUP_NO = 'D',     NOM_CMP = 'SIZZ',       VALE = 12.),
           _F(    CRITERE = 'RELATIF',     PRECISION = 8.E-2,
         REFERENCE='ANALYTIQUE',
 RESULTAT = RESU, NOM_CHAM = 'SIGM_NOEU',   NUME_ORDRE = 1,
 GROUP_NO = 'D',    NOM_CMP = 'SIXY',       VALE = -14.14214))
           )

#
#-----------------------------------------------------------------

TEST_RESU(RESU=(

           _F(    CRITERE = 'RELATIF',    PRECISION = 5.E-2,
         REFERENCE='ANALYTIQUE',
 RESULTAT = RESU, NOM_CHAM = 'SIGM_NOEU',   NUME_ORDRE = 1,
 GROUP_NO = 'E',        NOM_CMP = 'SIXX',       VALE = 20.),
           _F(   CRITERE = 'RELATIF',    PRECISION = 6.E-2,
         REFERENCE='ANALYTIQUE',
 RESULTAT = RESU, NOM_CHAM = 'SIGM_NOEU',   NUME_ORDRE = 1,
 GROUP_NO = 'E',       NOM_CMP = 'SIYY',       VALE = 20.),
           _F(     CRITERE = 'ABSOLU',     PRECISION = 3.E-1,
         REFERENCE='ANALYTIQUE',
 RESULTAT = RESU, NOM_CHAM = 'SIGM_NOEU',   NUME_ORDRE = 1,
 GROUP_NO = 'E',        NOM_CMP = 'SIZZ',       VALE = 12.),
           _F(    CRITERE = 'RELATIF',    PRECISION = 5.E-2,
         REFERENCE='ANALYTIQUE',
 RESULTAT = RESU, NOM_CHAM = 'SIGM_NOEU',   NUME_ORDRE = 1,
 GROUP_NO = 'E',      NOM_CMP = 'SIXY',       VALE = -80.))
           )

#

TEST_RESU(RESU=(

           _F(     CRITERE = 'RELATIF',    PRECISION = 7.E-2,
         REFERENCE='ANALYTIQUE',
 RESULTAT = RESU, NOM_CHAM = 'SIGM_NOEU',   NUME_ORDRE = 1,
 GROUP_NO = 'F',      NOM_CMP = 'SIXX',       VALE = 20.),
           _F(    CRITERE = 'RELATIF',    PRECISION = 5.E-2,
         REFERENCE='ANALYTIQUE',
 RESULTAT = RESU, NOM_CHAM = 'SIGM_NOEU',   NUME_ORDRE = 1,
 GROUP_NO = 'F',    NOM_CMP = 'SIYY',       VALE = 20.),
           _F(    CRITERE = 'ABSOLU',     PRECISION = 5.E-1,
         REFERENCE='ANALYTIQUE',
 RESULTAT = RESU, NOM_CHAM = 'SIGM_NOEU',   NUME_ORDRE = 1,
 GROUP_NO = 'F',      NOM_CMP = 'SIZZ',       VALE = 12.),
           _F(   CRITERE = 'RELATIF',    PRECISION = 5.E-2,
         REFERENCE='ANALYTIQUE',
 RESULTAT = RESU, NOM_CHAM = 'SIGM_NOEU',   NUME_ORDRE = 1,
 GROUP_NO = 'F',      NOM_CMP = 'SIXY',       VALE = -20.))
            )

#--------------------------------------------------------------------
FIN( )
#
