# MODIF  DATE 21/11/2006   AUTEUR SALMONA L.SALMONA 
# TITRE ORTHOTROPIE DANS UN REPERE QUELCONQUE (3D)
#            CONFIGURATION MANAGEMENT OF EDF VERSION
# ======================================================================
# COPYRIGHT (C) 1991 - 2001  EDF R&D                  WWW.CODE-ASTER.ORG
# THIS PROGRAM IS FREE SOFTWARE; YOU CAN REDISTRIBUTE IT AND/OR MODIFY
# IT UNDER THE TERMS OF THE GNU GENERAL PUBLIC LICENSE AS PUBLISHED BY
# THE FREE SOFTWARE FOUNDATION; EITHER VERSION 2 OF THE LICENSE, OR
# (AT YOUR OPTION) ANY LATER VERSION.
#
# THIS PROGRAM IS DISTRIBUTED IN THE HOPE THAT IT WILL BE USEFUL, BUT
# WITHOUT ANY WARRANTY; WITHOUT EVEN THE IMPLIED WARRANTY OF
# MERCHANTABILITY OR FITNESS FOR A PARTICULAR PURPOSE. SEE THE GNU
# GENERAL PUBLIC LICENSE FOR MORE DETAILS.
#
# YOU SHOULD HAVE RECEIVED A COPY OF THE GNU GENERAL PUBLIC LICENSE
# ALONG WITH THIS PROGRAM; IF NOT, WRITE TO EDF R&D CODE_ASTER,
#    1 AVENUE DU GENERAL DE GAULLE, 92141 CLAMART CEDEX, FRANCE.
# ======================================================================
#

DEBUT(CODE=_F( NOM = 'SSLV131A',NIV_PUB_WEB='INTERNET') )

MA=LIRE_MAILLAGE( )

DEFI_GROUP( reuse=MA,   MAILLAGE=MA,
  CREA_GROUP_MA=_F(  NOM = 'TOUT', TOUT = 'OUI'))

#================================

# MATERIAU ISOTROPE TRANSVERSE  =

#================================


MATISTR=DEFI_MATERIAU(
           ELAS_ISTR=_F(  E_L = 11000.,   E_N = 8000.,
                          NU_LN = 0.15,   NU_LT = 0.18,
                           G_LN = 7000.) )

CHMATIST=AFFE_MATERIAU(  MAILLAGE=MA,
           AFFE=_F(  TOUT = 'OUI',   MATER = MATISTR) )

MOD3D=AFFE_MODELE(  MAILLAGE=MA,
           AFFE=_F( MAILLE = 'TET1', MODELISATION = '3D',
           PHENOMENE = 'MECANIQUE'))

CAREL3D=AFFE_CARA_ELEM(MODELE=MOD3D,
                       MASSIF=_F(  GROUP_MA = 'TOUT',
                                   ANGL_REP = (30.,20.,10.,)))

CHAR3D=AFFE_CHAR_MECA(  MODELE=MOD3D,DDL_IMPO=(
              _F( NOEUD = 'A',   DX = 0.,       DY = 0.,     DZ = 0.),
              _F( NOEUD = 'B',   DX = 9.,       DY = 14.,    DZ = 18.),
              _F( NOEUD = 'C',   DX = 13.,      DY = 21.,    DZ = 26.),
              _F( NOEUD = 'D',   DX = 5.,      DY = 8.,    DZ = 11.)))


LISTE=DEFI_LIST_REEL(DEBUT=0.0,
                      INTERVALLE=_F(JUSQU_A=1.0,
                                    NOMBRE=5,),);


FONC=DEFI_FONCTION(NOM_PARA='INST',VALE=(0.,0.,1.,1.),);
MEST1=STAT_NON_LINE(MODELE=MOD3D,
                    CHAM_MATER=CHMATIST,
                    CARA_ELEM=CAREL3D,
                    EXCIT=_F( CHARGE = CHAR3D,FONC_MULT=FONC),
                    NEWTON=_F(PREDICTION='TANGENTE'),
                    COMP_INCR=_F(RELATION='ELAS'),
                    INCREMENT=_F(LIST_INST=LISTE),);

MEST1=CALC_ELEM( reuse= MEST1 ,RESULTAT= MEST1 ,            
                  

           OPTION=('EPSI_ELGA_DEPL','SIEF_ELNO_ELGA'),)

CALC_ELEM(reuse=MEST1,      
                       RESULTAT=MEST1,
                         OPTION='ENEL_ELGA',
                  )

CALC_ELEM(reuse=MEST1,      
                       RESULTAT=MEST1,
                         OPTION='ENEL_ELNO_ELGA',
                  )

CALC_NO(  reuse=MEST1,
                       RESULTAT=MEST1,
                         OPTION='ENEL_NOEU_ELGA',
                  )

TEST_RESU(RESU=(
     # DEPLACEMENTS
       _F(  RESULTAT = MEST1,  NOM_CHAM = 'DEPL', NUME_ORDRE = 5,
        CRITERE = 'RELATIF',   PRECISION = 1.E-7,REFERENCE='ANALYTIQUE',
         NOEUD = 'C',       NOM_CMP = 'DY',    VALE = 21.),
     # DEFORMATIONS
       _F(  RESULTAT = MEST1,  NOM_CHAM = 'EPSI_ELGA_DEPL', NUME_ORDRE = 5,
        CRITERE = 'RELATIF',   PRECISION = 1.E-7,REFERENCE='ANALYTIQUE',  MAILLE = 'TET1',
         POINT = 1,       NOM_CMP = 'EPXY',    VALE = 3.),
       _F(  RESULTAT = MEST1,  NOM_CHAM = 'EPSI_ELGA_DEPL', NUME_ORDRE = 5,
        CRITERE = 'RELATIF',   PRECISION = 1.E-7,  MAILLE = 'TET1',
         POINT = 1,       NOM_CMP = 'EPXZ',REFERENCE='ANALYTIQUE',    VALE = 4.),
       _F(  RESULTAT = MEST1,  NOM_CHAM = 'EPSI_ELGA_DEPL', NUME_ORDRE = 5,
        CRITERE = 'RELATIF',   PRECISION = 1.E-7,  MAILLE = 'TET1',
         POINT = 1,       NOM_CMP = 'EPYZ', REFERENCE='ANALYTIQUE',   VALE = 6.),
     # CONTRAINTES  (1) :
       _F(  RESULTAT = MEST1,  NOM_CHAM = 'SIEF_ELGA', NUME_ORDRE = 5,
        CRITERE = 'RELATIF',   PRECISION = 1.E-7,  MAILLE = 'TET1',
         POINT = 1,       NOM_CMP = 'SIXX',REFERENCE='ANALYTIQUE',    VALE = 43310.7606376),
       _F(  RESULTAT = MEST1,  NOM_CHAM = 'SIEF_ELGA', NUME_ORDRE = 5,
        CRITERE = 'RELATIF',   PRECISION = 1.E-7,  MAILLE = 'TET1',
         POINT = 1,       NOM_CMP = 'SIYY', REFERENCE='ANALYTIQUE',   VALE = 72798.7101836),
       _F(  RESULTAT = MEST1,  NOM_CHAM = 'SIEF_ELGA', NUME_ORDRE = 5,
        CRITERE = 'RELATIF',   PRECISION = 1.E-7,  MAILLE = 'TET1',
         POINT = 1,       NOM_CMP = 'SIZZ',REFERENCE='ANALYTIQUE',    VALE = 62459.3557647),
       _F(  RESULTAT = MEST1,  NOM_CHAM = 'SIEF_ELGA', NUME_ORDRE = 5,
        CRITERE = 'RELATIF',   PRECISION = 1.E-7,  MAILLE = 'TET1',
         POINT = 1,       NOM_CMP = 'SIXY',REFERENCE='ANALYTIQUE',    VALE = 39567.9809905),
       _F(  RESULTAT = MEST1,  NOM_CHAM = 'SIEF_ELGA', NUME_ORDRE = 5,
        CRITERE = 'RELATIF',   PRECISION = 1.E-7,  MAILLE = 'TET1',
         POINT = 1,       NOM_CMP = 'SIXZ',REFERENCE='ANALYTIQUE',    VALE = 31078.5972274),
       _F(  RESULTAT = MEST1,  NOM_CHAM = 'SIEF_ELGA', NUME_ORDRE = 5,
        CRITERE = 'RELATIF',   PRECISION = 1.E-7,  MAILLE = 'TET1',
         POINT = 1,       NOM_CMP = 'SIYZ', REFERENCE='ANALYTIQUE',   VALE = 84049.3009688),
     # CONTRAINTES  (2) :
       _F(  RESULTAT = MEST1,  NOM_CHAM = 'SIEF_ELNO_ELGA', NUME_ORDRE = 5,
        CRITERE = 'RELATIF',   PRECISION = 1.E-7,  MAILLE = 'TET1',
         NOEUD = 'C',       NOM_CMP = 'SIXX', REFERENCE='ANALYTIQUE',   VALE = 43310.7606376),
     # DENSITE D'ENERGIE DE DEFORMATION  (1) :
       _F(  RESULTAT = MEST1,  NOM_CHAM = 'ENEL_ELGA', NUME_ORDRE = 5,
        CRITERE = 'RELATIF',   PRECISION = 1.E-6,  MAILLE = 'TET1',
         POINT = 1,       NOM_CMP = 'TOTALE',REFERENCE='ANALYTIQUE',    VALE = 1.19122941897E6),
     # DENSITE D'ENERGIE DE DEFORMATION  (2) :
       _F(  RESULTAT = MEST1,  NOM_CHAM = 'ENEL_ELNO_ELGA', NUME_ORDRE = 5,
        CRITERE = 'RELATIF',   PRECISION = 1.E-6,  MAILLE = 'TET1',
         NOEUD = 'A',       NOM_CMP = 'TOTALE',REFERENCE='ANALYTIQUE',    VALE = 1.19122941897E6))
            )

#---------------------------------------------



#=======================

# MATERIAU ORTHOTROPE  =

#=======================

MATORTH=DEFI_MATERIAU(
           ELAS_ORTH=_F(
              E_L = 11000.,     E_T = 5000.,   E_N = 8000.,
              NU_TN = 0.11,       NU_LN = 0.15,    NU_LT = 0.396,
              G_TN = 13000.,     G_LN = 7000.,   G_LT = 10500.) )

CHMATORT=AFFE_MATERIAU(  MAILLAGE=MA,
           AFFE=_F(  TOUT = 'OUI',   MATER = MATORTH) )

LISTE2=DEFI_LIST_REEL(DEBUT=0.0,
                      INTERVALLE=_F(JUSQU_A=1.0,
                                    NOMBRE=1,),);

MEST2=STAT_NON_LINE(MODELE=MOD3D,
                    CHAM_MATER=CHMATORT,
                    CARA_ELEM=CAREL3D,
                    EXCIT=_F( CHARGE = CHAR3D),
                    COMP_INCR=_F(RELATION='ELAS'),
                    INCREMENT=_F(LIST_INST=LISTE2),);

MEST2=CALC_ELEM( reuse= MEST2 ,RESULTAT= MEST2 ,            
                

           OPTION=('EPSI_ELGA_DEPL',)  )

CALC_ELEM(reuse=MEST2,      
                       RESULTAT=MEST2,
                         OPTION='ENEL_ELGA',
                  )

CALC_ELEM(reuse=MEST2,      
                       RESULTAT=MEST2,
                         OPTION='ENEL_ELNO_ELGA',
                  )

TEST_RESU(RESU=(
     # DEPLACEMENTS
       _F(  RESULTAT = MEST2,  NOM_CHAM = 'DEPL', NUME_ORDRE = 1,
        CRITERE = 'RELATIF',   PRECISION = 1.E-7,
         NOEUD = 'C',       NOM_CMP = 'DY',REFERENCE='ANALYTIQUE',    VALE = 21.),
     # DEFORMATIONS
       _F(  RESULTAT = MEST2,  NOM_CHAM = 'EPSI_ELGA_DEPL', NUME_ORDRE = 1,
        CRITERE = 'RELATIF',   PRECISION = 1.E-7,  MAILLE = 'TET1',
         POINT = 1,       NOM_CMP = 'EPXY', REFERENCE='ANALYTIQUE',   VALE = 3.),
       _F(  RESULTAT = MEST2,  NOM_CHAM = 'EPSI_ELGA_DEPL', NUME_ORDRE = 1,
        CRITERE = 'RELATIF',   PRECISION = 1.E-7,  MAILLE = 'TET1',
         POINT = 1,       NOM_CMP = 'EPXZ',REFERENCE='ANALYTIQUE',    VALE = 4.),
       _F(  RESULTAT = MEST2,  NOM_CHAM = 'EPSI_ELGA_DEPL', NUME_ORDRE = 1,
        CRITERE = 'RELATIF',   PRECISION = 1.E-7,  MAILLE = 'TET1',
         POINT = 1,       NOM_CMP = 'EPYZ', REFERENCE='ANALYTIQUE',   VALE = 6.),
     # CONTRAINTES  (1) :
       _F(  RESULTAT = MEST2,  NOM_CHAM = 'SIEF_ELGA', NUME_ORDRE = 1,
        CRITERE = 'RELATIF',   PRECISION = 1.E-7,  MAILLE = 'TET1',
         POINT = 1,       NOM_CMP = 'SIXX', REFERENCE='ANALYTIQUE',   VALE = 601.875400223),
       _F(  RESULTAT = MEST2,  NOM_CHAM = 'SIEF_ELGA', NUME_ORDRE = 1,
        CRITERE = 'RELATIF',   PRECISION = 1.E-7,  MAILLE = 'TET1',
         POINT = 1,       NOM_CMP = 'SIYY',REFERENCE='ANALYTIQUE',    VALE = 80053.6651306),
       _F(  RESULTAT = MEST2,  NOM_CHAM = 'SIEF_ELGA', NUME_ORDRE = 1,
        CRITERE = 'RELATIF',   PRECISION = 1.E-7,  MAILLE = 'TET1',
         POINT = 1,       NOM_CMP = 'SIZZ', REFERENCE='ANALYTIQUE',   VALE = 78596.6067582),
       _F(  RESULTAT = MEST2,  NOM_CHAM = 'SIEF_ELGA', NUME_ORDRE = 1,
        CRITERE = 'RELATIF',   PRECISION = 1.E-7,  MAILLE = 'TET1',
         POINT = 1,       NOM_CMP = 'SIXY',REFERENCE='ANALYTIQUE',    VALE = 83948.2632502),
       _F(  RESULTAT = MEST2,  NOM_CHAM = 'SIEF_ELGA', NUME_ORDRE = 1,
        CRITERE = 'RELATIF',   PRECISION = 1.E-7,  MAILLE = 'TET1',
         POINT = 1,       NOM_CMP = 'SIXZ',REFERENCE='ANALYTIQUE',    VALE = 17339.0930498),
       _F(  RESULTAT = MEST2,  NOM_CHAM = 'SIEF_ELGA', NUME_ORDRE = 1,
        CRITERE = 'RELATIF',   PRECISION = 1.E-7,  MAILLE = 'TET1',
         POINT = 1,       NOM_CMP = 'SIYZ',REFERENCE='ANALYTIQUE',    VALE = 126571.710097),
     # DENSITE D'ENERGIE DE DEFORMATION  (1) :
       _F(  RESULTAT = MEST2,  NOM_CHAM = 'ENEL_ELGA', NUME_ORDRE = 1,
        CRITERE = 'RELATIF',   PRECISION = 1.E-6,  MAILLE = 'TET1',
         POINT = 1,       NOM_CMP = 'TOTALE',REFERENCE='ANALYTIQUE',    VALE = 1.55645558441E6),
     # DENSITE D'ENERGIE DE DEFORMATION  (2) :
       _F(  RESULTAT = MEST2,  NOM_CHAM = 'ENEL_ELNO_ELGA', NUME_ORDRE = 1,
        CRITERE = 'RELATIF',   PRECISION = 1.E-6,  MAILLE = 'TET1',
         NOEUD = 'A',       NOM_CMP = 'TOTALE',REFERENCE='ANALYTIQUE',    VALE = 1.55645558441E6))
            )

# PRISE EN COMPTE DE DEFORMATIONS THERMIQUES ORTHOTROPIQUES

MATORTH2=DEFI_MATERIAU(
           ELAS_ORTH=_F(
              E_L = 11000.,     E_T = 5000.,   E_N = 8000.,
              NU_TN = 0.11,       NU_LN = 0.15,    NU_LT = 0.396,
              G_TN = 13000.,     G_LN = 7000.,   G_LT = 10500.,
              ALPHA_L=1.E-3,    ALPHA_T = 1.5E-3,  ALPHA_N=2.E-3) )

CHMATOR2=AFFE_MATERIAU(  MAILLAGE=MA,
           AFFE=_F(  TOUT = 'OUI',   MATER = MATORTH2) )

CHT0=CREA_CHAMP( OPERATION='AFFE', TYPE_CHAM='NOEU_TEMP_R',
                   MAILLAGE=MA,
                   AFFE=_F( TOUT='OUI',
                            NOM_CMP='TEMP',
                            VALE=  0.0 , ), )

CHT1=CREA_CHAMP( OPERATION='AFFE', TYPE_CHAM='NOEU_TEMP_R', 
                  MAILLAGE=MA,
                      AFFE=_F(  TOUT = 'OUI',
                             NOM_CMP = 'TEMP',
                                VALE = 100.))

TEMPE=CREA_RESU(  OPERATION='AFFE', TYPE_RESU='EVOL_THER',
                       NOM_CHAM='TEMP',
                       AFFE=( _F(  INST = 0.,  CHAM_GD = CHT0),
                              _F(  INST = 1.,  CHAM_GD = CHT1))
                  )

CHAR3D2=AFFE_CHAR_MECA(  MODELE=MOD3D,TEMP_CALCULEE=TEMPE,DDL_IMPO=(
              _F( NOEUD = 'A',   DX = 0.,       DY = 0.,     DZ = 0.),
              _F( NOEUD = 'B',   DX = 9.,       DY = 14.,    DZ = 18.),
              _F( NOEUD = 'C',   DX = 13.,      DY = 21.,    DZ = 26.),
              _F( NOEUD = 'D',   DX = 5.,      DY = 8.,    DZ = 11.)))

CHAR3D3=AFFE_CHAR_MECA(  MODELE=MOD3D,TEMP_CALCULEE=CHT1,DDL_IMPO=(
              _F( NOEUD = 'A',   DX = 0.,       DY = 0.,     DZ = 0.),
              _F( NOEUD = 'B',   DX = 9.,       DY = 14.,    DZ = 18.),
              _F( NOEUD = 'C',   DX = 13.,      DY = 21.,    DZ = 26.),
              _F( NOEUD = 'D',   DX = 5.,      DY = 8.,    DZ = 11.)))

MEST3=STAT_NON_LINE(MODELE=MOD3D,
                    CHAM_MATER=CHMATOR2,
                    CARA_ELEM=CAREL3D,
                    EXCIT=_F( CHARGE = CHAR3D2),
                    COMP_INCR=_F(RELATION='ELAS'),
                    INCREMENT=_F(LIST_INST=LISTE2),);

MEST3=CALC_ELEM( reuse= MEST3 ,RESULTAT= MEST3 ,            
           OPTION=('EPSI_ELGA_DEPL',)  )

TEST_RESU(RESU=(
     # DEPLACEMENTS
       _F(  RESULTAT = MEST3,  NOM_CHAM = 'DEPL', NUME_ORDRE = 1,
        CRITERE = 'RELATIF',   PRECISION = 1.E-7,
         NOEUD = 'C',       NOM_CMP = 'DY',REFERENCE='ANALYTIQUE',    VALE = 21.),
     # DEFORMATIONS
       _F(  RESULTAT = MEST3,  NOM_CHAM = 'EPSI_ELGA_DEPL', NUME_ORDRE = 1,
        CRITERE = 'RELATIF',   PRECISION = 1.E-7,  MAILLE = 'TET1',
         POINT = 1,       NOM_CMP = 'EPXY',REFERENCE='ANALYTIQUE',    VALE = 3.),
       _F(  RESULTAT = MEST3,  NOM_CHAM = 'EPSI_ELGA_DEPL', NUME_ORDRE = 1,
        CRITERE = 'RELATIF',   PRECISION = 1.E-7,  MAILLE = 'TET1',
         POINT = 1,       NOM_CMP = 'EPXZ',REFERENCE='ANALYTIQUE',    VALE = 4.),
       _F(  RESULTAT = MEST3,  NOM_CHAM = 'EPSI_ELGA_DEPL', NUME_ORDRE = 1,
        CRITERE = 'RELATIF',   PRECISION = 1.E-7,  MAILLE = 'TET1',
         POINT = 1,       NOM_CMP = 'EPYZ', REFERENCE='ANALYTIQUE',   VALE = 6.),
     # CONTRAINTES  (1) :
       _F(  RESULTAT = MEST3,  NOM_CHAM = 'SIEF_ELGA', NUME_ORDRE = 1,
        CRITERE = 'RELATIF',   PRECISION = 1.E-7,  MAILLE = 'TET1',
         POINT = 1,       NOM_CMP = 'SIXX', REFERENCE='ANALYTIQUE',   VALE = -1226.20136558),
       _F(  RESULTAT = MEST3,  NOM_CHAM = 'SIEF_ELGA', NUME_ORDRE = 1,
        CRITERE = 'RELATIF',   PRECISION = 1.E-7,  MAILLE = 'TET1',
         POINT = 1,       NOM_CMP = 'SIYY', REFERENCE='ANALYTIQUE',   VALE = 78597.0638365),
       _F(  RESULTAT = MEST3,  NOM_CHAM = 'SIEF_ELGA', NUME_ORDRE = 1,
        CRITERE = 'RELATIF',   PRECISION = 1.E-7,  MAILLE = 'TET1',
         POINT = 1,       NOM_CMP = 'SIZZ', REFERENCE='ANALYTIQUE',   VALE = 76585.7922281),
       _F(  RESULTAT = MEST3,  NOM_CHAM = 'SIEF_ELGA', NUME_ORDRE = 1,
        CRITERE = 'RELATIF',   PRECISION = 1.E-7,  MAILLE = 'TET1',
         POINT = 1,       NOM_CMP = 'SIXY', REFERENCE='ANALYTIQUE',   VALE = 83710.9069281),
       _F(  RESULTAT = MEST3,  NOM_CHAM = 'SIEF_ELGA', NUME_ORDRE = 1,
        CRITERE = 'RELATIF',   PRECISION = 1.E-7,  MAILLE = 'TET1',
         POINT = 1,       NOM_CMP = 'SIXZ', REFERENCE='ANALYTIQUE',   VALE = 17255.7029869),
       _F(  RESULTAT = MEST3,  NOM_CHAM = 'SIEF_ELGA', NUME_ORDRE = 1,
        CRITERE = 'RELATIF',   PRECISION = 1.E-7,  MAILLE = 'TET1',
         POINT = 1,       NOM_CMP = 'SIYZ',REFERENCE='ANALYTIQUE',    VALE = 126657.366971),),
            );
MEST4=MECA_STATIQUE(MODELE=MOD3D,
                    CHAM_MATER=CHMATOR2,
                    CARA_ELEM=CAREL3D,
                    EXCIT=_F( CHARGE = CHAR3D3),);

MEST4=CALC_ELEM( reuse= MEST4 ,RESULTAT= MEST4 ,            
           OPTION=('EPSI_ELGA_DEPL',)  )

TEST_RESU(RESU=(
     # DEPLACEMENTS
       _F(  RESULTAT = MEST4,  NOM_CHAM = 'DEPL', NUME_ORDRE = 1,
        CRITERE = 'RELATIF',   PRECISION = 1.E-7,
         NOEUD = 'C',       NOM_CMP = 'DY', REFERENCE='ANALYTIQUE',   VALE = 21.),
     # DEFORMATIONS
       _F(  RESULTAT = MEST4,  NOM_CHAM = 'EPSI_ELGA_DEPL', NUME_ORDRE = 1,
        CRITERE = 'RELATIF',   PRECISION = 1.E-7,  MAILLE = 'TET1',
         POINT = 1,       NOM_CMP = 'EPXY',REFERENCE='ANALYTIQUE',    VALE = 3.),
       _F(  RESULTAT = MEST4,  NOM_CHAM = 'EPSI_ELGA_DEPL', NUME_ORDRE = 1,
        CRITERE = 'RELATIF',   PRECISION = 1.E-7,  MAILLE = 'TET1',
         POINT = 1,       NOM_CMP = 'EPXZ',REFERENCE='ANALYTIQUE',    VALE = 4.),
       _F(  RESULTAT = MEST4,  NOM_CHAM = 'EPSI_ELGA_DEPL', NUME_ORDRE = 1,
        CRITERE = 'RELATIF',   PRECISION = 1.E-7,  MAILLE = 'TET1',
         POINT = 1,       NOM_CMP = 'EPYZ',REFERENCE='ANALYTIQUE',    VALE = 6.),
     # CONTRAINTES  (1) :
       _F(  RESULTAT = MEST4,  NOM_CHAM = 'SIEF_ELGA_DEPL', NUME_ORDRE = 1,
        CRITERE = 'RELATIF',   PRECISION = 1.E-7,  MAILLE = 'TET1',
         POINT = 1,       NOM_CMP = 'SIXX', REFERENCE='ANALYTIQUE',   VALE = -1226.20136558),
       _F(  RESULTAT = MEST4,  NOM_CHAM = 'SIEF_ELGA_DEPL', NUME_ORDRE = 1,
        CRITERE = 'RELATIF',   PRECISION = 1.E-7,  MAILLE = 'TET1',
         POINT = 1,       NOM_CMP = 'SIYY', REFERENCE='ANALYTIQUE',   VALE = 78597.0638365),
       _F(  RESULTAT = MEST4,  NOM_CHAM = 'SIEF_ELGA_DEPL', NUME_ORDRE = 1,
        CRITERE = 'RELATIF',   PRECISION = 1.E-7,  MAILLE = 'TET1',
         POINT = 1,       NOM_CMP = 'SIZZ', REFERENCE='ANALYTIQUE',   VALE = 76585.7922281),
       _F(  RESULTAT = MEST4,  NOM_CHAM = 'SIEF_ELGA_DEPL', NUME_ORDRE = 1,
        CRITERE = 'RELATIF',   PRECISION = 1.E-7,  MAILLE = 'TET1',
         POINT = 1,       NOM_CMP = 'SIXY', REFERENCE='ANALYTIQUE',   VALE = 83710.9069281),
       _F(  RESULTAT = MEST4,  NOM_CHAM = 'SIEF_ELGA_DEPL', NUME_ORDRE = 1,
        CRITERE = 'RELATIF',   PRECISION = 1.E-7,  MAILLE = 'TET1',
         POINT = 1,       NOM_CMP = 'SIXZ', REFERENCE='ANALYTIQUE',   VALE = 17255.7029869),
       _F(  RESULTAT = MEST4,  NOM_CHAM = 'SIEF_ELGA_DEPL', NUME_ORDRE = 1,
        CRITERE = 'RELATIF',   PRECISION = 1.E-7,  MAILLE = 'TET1',
         POINT = 1,       NOM_CMP = 'SIYZ',REFERENCE='ANALYTIQUE',    VALE = 126657.366971),),
            );

FIN()
#
