# MODIF  DATE 26/11/2012   AUTEUR LADIER A.LADIER 
# TITRE FISSURATION A PROPAGATION IMPOSEE AVEC XFEM
# sslv316f.para = tps_job 250 mem_job 512Mo liste_test S
#            CONFIGURATION MANAGEMENT OF EDF VERSION
# ======================================================================
# COPYRIGHT (C) 1991 - 2012  EDF R&D                  WWW.CODE-ASTER.ORG
# THIS PROGRAM IS FREE SOFTWARE; YOU CAN REDISTRIBUTE IT AND/OR MODIFY  
# IT UNDER THE TERMS OF THE GNU GENERAL PUBLIC LICENSE AS PUBLISHED BY  
# THE FREE SOFTWARE FOUNDATION; EITHER VERSION 2 OF THE LICENSE, OR     
# (AT YOUR OPTION) ANY LATER VERSION.                                                    
#                                                                       
# THIS PROGRAM IS DISTRIBUTED IN THE HOPE THAT IT WILL BE USEFUL, BUT   
# WITHOUT ANY WARRANTY; WITHOUT EVEN THE IMPLIED WARRANTY OF            
# MERCHANTABILITY OR FITNESS FOR A PARTICULAR PURPOSE. SEE THE GNU      
# GENERAL PUBLIC LICENSE FOR MORE DETAILS.                              
#                                                                       
# YOU SHOULD HAVE RECEIVED A COPY OF THE GNU GENERAL PUBLIC LICENSE     
# ALONG WITH THIS PROGRAM; IF NOT, WRITE TO EDF R&D CODE_ASTER,         
#    1 AVENUE DU GENERAL DE GAULLE, 92141 CLAMART CEDEX, FRANCE.        
# ======================================================================
# RESPONSABLE COLOMBO D.COLOMBO

DEBUT(CODE=_F(NOM='SSLV316F', NIV_PUB_WEB='INTERNET',VISU_EFICAS='NON'),DEBUG=_F(SDVERI='OUI'),);

#----------------------------------------------
#                 MAILLAGE
#----------------------------------------------

nbcalc = 4

MAILLAG1=LIRE_MAILLAGE(INFO=1,FORMAT='MED');

MAILLAG1=DEFI_GROUP(reuse =MAILLAG1,
                    MAILLAGE=MAILLAG1,
                    CREA_GROUP_NO=_F(GROUP_MA=('VOL','SURFINF','LIG1','LIG5'),),);


#----------------------------------------------
#                   MODELE
#----------------------------------------------


MODELE=AFFE_MODELE(MAILLAGE=MAILLAG1,
                      AFFE=(_F(GROUP_MA=('VOL',),
                               PHENOMENE='MECANIQUE',
                               MODELISATION='3D',),
                            _F(GROUP_MA=('SURFINF','SURFSUP',),
                               PHENOMENE='MECANIQUE',
                               MODELISATION='3D',),),);

MAILLAG1=MODI_MAILLAGE(reuse =MAILLAG1,
                       MAILLAGE=MAILLAG1,
                       ORIE_PEAU_3D=_F(GROUP_MA=('SURFSUP','SURFINF',),),
                       );

#----------------------------------------------
#                   MATERIAU
#----------------------------------------------

E=205000.0E6
nu=0.
rho=7800.
ACIER=DEFI_MATERIAU(ELAS=_F(E=E,NU=nu,RHO=rho,),);

CHAMPMA1=AFFE_MATERIAU(MAILLAGE=MAILLAG1,
                       MODELE=MODELE,
                       AFFE=_F(TOUT = 'OUI',
                                MATER=ACIER,
                                ),
                             );

#----------------------------------------------
#              GRILLE AUXILIAIRE
#----------------------------------------------

MaiGril=LIRE_MAILLAGE(FORMAT='MED', UNITE=41,
                      INFO_MED=1,);

Grille=DEFI_GRILLE(MAILLAGE=MaiGril);

ModGri=AFFE_MODELE(GRILLE=Grille,
                   AFFE=_F(GROUP_MA=('VOL',),
                           PHENOMENE='MECANIQUE',
                           MODELISATION='3D',),
                   );

#----------------------------------------------
#              FISSURE INITIALE
#----------------------------------------------

FISS = [None]*nbcalc

FISS[0]=DEFI_FISS_XFEM(MODELE=MODELE,
                       MODELE_GRILLE=ModGri,
                       DEFI_FISS=_F(
                                 FORM_FISS = 'DEMI_PLAN',
                                 PFON      =(0. , 2. ,9.),
                                 NORMALE   =(0. , 0 , 1.),
                                 DTAN      =(0. , 1. , 0.)),
                       );

#----------------------------------------------
#                   CHARGEMENTS
#----------------------------------------------

PRES=-1.E6
CH=AFFE_CHAR_MECA(MODELE=MODELE,
                   PRES_REP=_F(GROUP_MA=('SURFSUP',),PRES=PRES,),
                   DDL_IMPO=(_F(GROUP_NO='SURFINF',DZ=0.0,),
                             _F(GROUP_NO=('LIG1','LIG5'),DX=0.0,),
                             _F(GROUP_NO='P4',DY=0.0,),),);
#----------------------------------------------
#         PROPAGATION SUR 3 PAS DE TEMPS
#----------------------------------------------

MODELX = [None]*nbcalc
CHXFEM = [None]*nbcalc
RESU = [None]*nbcalc
SIF = [None]*nbcalc
SIF1 = [None]*nbcalc
LSN = [None]*nbcalc
LST = [None]*nbcalc

# AVANCE IMPOSEE
da=0.4

# ANGLE DE PROPAGATION IMPOSE
beta=30.0/180.0*3.1415

# FUNCTION POUR IMPOSER L'ANGLE DE PROPAGATION CI-DESSUS
# DANS LA TABLE ISSUE PAR CALC_G
ZERO=FORMULE(NOM_PARA='G',
             VALE='0.0*G+beta',);

L_INS1=DEFI_LIST_REEL(DEBUT=0.0,INTERVALLE=_F(JUSQU_A=3.0,NOMBRE=3,),);
RI = 0.2
RS = 0.8

VAL_CALC = [-4.0136417592262E-09,
            -4.0136421269876E-09,
            6.6062516801579E-05 ,
            6.6062516801399E-05 ,               
            -6.5419522021518E-04,
            -6.5419522021594E-04,
            -1.3052763748307E-03,
            -1.305276374832E-03 ,
            0.014633932365494   ,
            0.014631973198177   ,
            -1.2786460795874E-03,
            -1.2949163485884E-03 ]
            
for i in range(nbcalc) :

   MODELX[i]=MODI_MODELE_XFEM(MODELE_IN=MODELE,FISSURE=FISS[i],INFO=1,);


   RESU[i]=MECA_STATIQUE(MODELE=MODELX[i],
                         CHAM_MATER=CHAMPMA1,
                         EXCIT=(
                                _F(CHARGE=CH,),),
                         INFO=1,);

   SIF[i]=CALC_G        (RESULTAT=RESU[i],
                         OPTION='CALC_K_G',
                         THETA=_F( FISSURE=FISS[i],
                                   R_INF=RI,
                                   R_SUP=RS,),
                         LISSAGE=_F( DEGRE=0,),);

#  ON MODIFIE LA TABLE DES SIF POUR IMPOSER L'ANGLE VOULU
   SIF1[i] = CALC_TABLE(TABLE=SIF[i],
                   ACTION=(_F(OPERATION='EXTR',
                             NOM_PARA=('NUME_ORDRE','NUM_PT',
                                       'ABSC_CURV','K1','K2',
                                       'K3','G','G_IRWIN','NUME_FOND',),
                             ),
                          _F(OPERATION='OPER',
                             FORMULE=ZERO,
                             NOM_PARA='BETA',),
                          ),
                        );

   IMPR_TABLE(TABLE=SIF1[i],);

   if ( i != (nbcalc-1) ) :
      FISS[i+1] = CO('FISS_%d'%(i+1))
      PROPA_FISS(MODELE=MODELX[i],
                 FISSURE=_F(FISS_ACTUELLE=FISS[i],
                            FISS_PROPAGEE=FISS[i+1],
                            TABLE=SIF1[i],
                           ),
                 METHODE_PROPA='UPWIND',
                 DA_MAX=da,
                 LOI_PROPA=_F(LOI='PARIS',
                              C=1.,
                              M=1.,
                              N=0.,
                              MATER=ACIER),
                 RAYON=RS,
                 ZONE_MAJ='TOUT',
                 COMP_LINE=_F(COEF_MULT_MINI=0.,
                              COEF_MULT_MAXI=1.,),
                 INFO=0,);

#----------------------------------------------
#         POST TRAITEMENT
#----------------------------------------------

# POSITION INITIALE DU FOND DE FISSURE
y=2.0
z=9.0

# TOLERANCE: 15% LONGUEUR MAXIMALE DES ARETES DES ELEMENTS
tol=0.15*0.33

CHLN=[None]*nbcalc
CHLT=[None]*nbcalc
FOND=[None]*nbcalc
TABLSN=[None]*nbcalc
TABLST=[None]*nbcalc


# VERIFICATION DE LA POSITION DU CHAQUE FOND DE FISSURE CALCULE
for i in range(1,nbcalc) :

#   CALCUL DE LA POSITION CORRECTE
    y=y+da*cos(i*beta)
    z=z+da*sin(i*beta)
    

#   EXTRACTION DES LEVEL SETS POUR LES POINTS D'INTERSECTION
#   ENTRE L'ARETE DONNANT LA POSITION CORRECTE DU FOND ET
#   LES FACES DES ELEMENTS DU MAILLAGE
    CHLN[i]=CREA_CHAMP(TYPE_CHAM='NOEU_NEUT_R',
                     OPERATION='EXTR',
                     NOM_CHAM='LNNO',
                     FISSURE=FISS[i],);

    CHLT[i]=CREA_CHAMP(TYPE_CHAM='NOEU_NEUT_R',
                     OPERATION='EXTR',
                     NOM_CHAM='LTNO',
                     FISSURE=FISS[i],);

    FOND[i]=INTE_MAIL_3D(MAILLAGE=MAILLAG1,
                         DEFI_SEGMENT=_F(
                         ORIGINE=(0,y,z),
                         EXTREMITE=(1,y,z),
                                         ),
                         );

    TABLSN[i]= POST_RELEVE_T(ACTION=_F(INTITULE='Test LSN',
                                       CHEMIN=FOND[i],
                                       CHAM_GD=CHLN[i],
                                       TOUT_CMP='OUI',
                                       OPERATION='EXTRACTION',),);
    TABLST[i]= POST_RELEVE_T(ACTION=_F(INTITULE='Test LST',
                                       CHEMIN=FOND[i],
                                       CHAM_GD=CHLT[i],
                                       TOUT_CMP='OUI',
                                       OPERATION='EXTRACTION',),); 

    IMPR_TABLE(TABLE=TABLSN[i],);
    IMPR_TABLE(TABLE=TABLST[i],);

#   VERIFICATION DES VALEURS DES LEVEL SETS. POUR LES POINTS
#   SELECTIONNES, LES LEVEL SETS DOIVENT ETRE EGAL A ZERO.
    TEST_TABLE(TABLE=TABLSN[i],
               REFERENCE='ANALYTIQUE',
               NOM_PARA='X1',
               PRECISION=tol,
               TOLE_MACHINE=2.E-6,
               
               TYPE_TEST='MAX',
               CRITERE='ABSOLU',
               VALE_CALC=VAL_CALC[(i-1)*4+0],
               VALE_REFE=0.0  )

    TEST_TABLE(TABLE=TABLSN[i],
               REFERENCE='ANALYTIQUE',
               NOM_PARA='X1',
               PRECISION=tol,
               
               TYPE_TEST='MIN',
               CRITERE='ABSOLU',
               VALE_CALC=VAL_CALC[(i-1)*4+1],
               VALE_REFE=0.0  )

    TEST_TABLE(TABLE=TABLST[i],
               REFERENCE='ANALYTIQUE',
               NOM_PARA='X1',
               PRECISION=tol,
               TOLE_MACHINE=1.7E-5,
               
               TYPE_TEST='MAX',
               CRITERE='ABSOLU',
               VALE_CALC=VAL_CALC[(i-1)*4+2],
               VALE_REFE=0.0  )

    TEST_TABLE(TABLE=TABLST[i],
               REFERENCE='ANALYTIQUE',
               NOM_PARA='X1',
               PRECISION=tol,
               
               TYPE_TEST='MIN',
               CRITERE='ABSOLU',
               VALE_CALC=VAL_CALC[(i-1)*4+3],
               VALE_REFE=0.0  )

FIN();
