# MODIF  DATE 10/10/2012   AUTEUR COURTOIS M.COURTOIS 
# TITRE CYLINDRE EN INCOMPRESSIBLE (PENTA15)
# sslv130e.para = tps_job 60 mem_job 512Mo ncpus 1 liste_test S
#            CONFIGURATION MANAGEMENT OF EDF VERSION
# ======================================================================
# COPYRIGHT (C) 1991 - 2012  EDF R&D                  WWW.CODE-ASTER.ORG
# THIS PROGRAM IS FREE SOFTWARE; YOU CAN REDISTRIBUTE IT AND/OR MODIFY
# IT UNDER THE TERMS OF THE GNU GENERAL PUBLIC LICENSE AS PUBLISHED BY
# THE FREE SOFTWARE FOUNDATION; EITHER VERSION 2 OF THE LICENSE, OR
# (AT YOUR OPTION) ANY LATER VERSION.
#
# THIS PROGRAM IS DISTRIBUTED IN THE HOPE THAT IT WILL BE USEFUL, BUT
# WITHOUT ANY WARRANTY; WITHOUT EVEN THE IMPLIED WARRANTY OF
# MERCHANTABILITY OR FITNESS FOR A PARTICULAR PURPOSE. SEE THE GNU    e
# GENERAL PUBLIC LICENSE FOR MORE DETAILS.
#
# YOU SHOULD HAVE RECEIVED A COPY OF THE GNU GENERAL PUBLIC LICENSE
# ALONG WITH THIS PROGRAM; IF NOT, WRITE TO EDF R&D CODE_ASTER,
#    1 AVENUE DU GENERAL DE GAULLE, 92141 CLAMART CEDEX, FRANCE.
# ======================================================================
# sslv130e.para = tps_job 60 mem_job 512Mo ncpus 1 liste_test S
#            CONFIGURATION MANAGEMENT OF EDF VERSION
# CAS_TEST__: SSLV130E
#
# ----------------------------------------------------------------------
#
# CYLINDRE CREUX EN INCOMPRESSIBLE (NU=0.4999)
# SOUS PRESSION INTERNE (60 MPA)
#
# MODELISATION : ELEMENTS MECANIQUE 3D INCOMP.(PENTA15)
# MAILLAGE     : GIBI
# ----------------------------------------------------------------------
# GROUPES DE NOEUDS ET MAILLES :
# GRNO: A B C D E F  NOEUMI
# GRMA: FACEEF     FACEAE   FACEAB   FACSUP   FACINF VOLUME
# ----------------------------------------------------------------------

DEBUT(CODE=_F(NOM='SSLV130E',
              NIV_PUB_WEB='INTERNET',),
      DEBUG=_F(SDVERI='OUI',),);

M=LIRE_MAILLAGE(FORMAT='MED',);

MO=AFFE_MODELE(MAILLAGE=M,
               VERIF='MAILLE',
               AFFE=_F(GROUP_MA=('VOLUME','FACEEF','FACEAE','FACEAB','FACSUP','FACINF',),
                       PHENOMENE='MECANIQUE',
                       MODELISATION='3D_INCO',),);

M=MODI_MAILLAGE(reuse =M,
                MAILLAGE=M,
                ORIE_PEAU_3D=_F(GROUP_MA=('FACEEF','FACEAE',),),);

MA=DEFI_MATERIAU(ELAS=_F(E=200000.,
                         NU=0.4999,
                         ALPHA=0.,),);

CM=AFFE_MATERIAU(MAILLAGE=M,
                 AFFE=_F(TOUT='OUI',
                         MATER=MA,),);

CH=AFFE_CHAR_MECA(MODELE=MO,
                  DDL_IMPO=(_F(GROUP_MA='FACEAB',
                               DX=0.,),
                            _F(GROUP_MA='FACSUP',
                               DZ=0.,),
                            _F(GROUP_MA='FACINF',
                               DZ=0.,),),
                  FACE_IMPO=_F(GROUP_MA='FACEEF',
                               DNOR=0.,),
                  PRES_REP=_F(GROUP_MA='FACEAE',
                              PRES=60.,),);

INSTANTS=DEFI_LIST_REEL(DEBUT=0.,
                        INTERVALLE=_F(JUSQU_A=1.,
                                      NOMBRE=1,),);

RAMPE=DEFI_FONCTION(NOM_PARA='INST',VALE=(0.,0.,
                          1.,1.,
                          ),);

EVOL=STAT_NON_LINE(MODELE=MO,
                   CHAM_MATER=CM,
                   EXCIT=_F(CHARGE=CH,
                            FONC_MULT=RAMPE,),
                   COMP_INCR=_F(RELATION='ELAS',),
                   INCREMENT=_F(LIST_INST=INSTANTS,),
                   NEWTON=_F(REAC_ITER=1,),
                   SOLVEUR=_F(RENUM='MD',),);

EVOL=CALC_CHAMP(reuse=EVOL,RESULTAT=EVOL,CRITERES=('SIEQ_ELNO','EPEQ_ELNO'),DEFORMATION=('EPSI_ELNO'),CONTRAINTE=('SIGM_ELNO'))


EVOL=CALC_CHAMP(reuse =EVOL,
             RESULTAT=EVOL,
             DEFORMATION='EPSI_NOEU',CONTRAINTE='SIGM_NOEU',CRITERES=('EPEQ_NOEU','SIEQ_NOEU'));

#--------------------------------------------------------------
#       COMPARAISON DES RESULTATS A LA SOLUTION ANALYTIQUE
#        POUR UN  SOLIDE INCOMPRESSIBLE NU = 0.5
#---------------------------------------------------------------

TEST_RESU(RESU=(_F(GROUP_NO='A',
                   INST=1.0,
                   REFERENCE='ANALYTIQUE',
                   RESULTAT=EVOL,
                   NOM_CHAM='DEPL',
                   NOM_CMP='DX',
                   VALE_CALC=-1.73707929E-22,
                   VALE_REFE=0.0,
                   CRITERE='ABSOLU',
                   PRECISION=1.0000000000000001E-05,),
                _F(GROUP_NO='A',
                   INST=1.0,
                   REFERENCE='ANALYTIQUE',
                   RESULTAT=EVOL,
                   NOM_CHAM='DEPL',
                   NOM_CMP='DY',
                   VALE_CALC= 5.99999499E-05,
                   VALE_REFE=6.0000000000000002E-05,
                   CRITERE='RELATIF',
                   PRECISION=1.E-3,),
                _F(GROUP_NO='F',
                   INST=1.0,
                   REFERENCE='ANALYTIQUE',
                   RESULTAT=EVOL,
                   NOM_CHAM='DEPL',
                   NOM_CMP='DX',
                   VALE_CALC=-2.12154519E-05,
                   VALE_REFE=-2.1213203E-05,
                   CRITERE='RELATIF',
                   PRECISION=1.E-3,),
                _F(GROUP_NO='F',
                   INST=1.0,
                   REFERENCE='ANALYTIQUE',
                   RESULTAT=EVOL,
                   NOM_CHAM='DEPL',
                   NOM_CMP='DY',
                   VALE_CALC= 2.12154519E-05,
                   VALE_REFE=2.1213203E-05,
                   CRITERE='RELATIF',
                   PRECISION=1.E-3,),
                ),
          )

TEST_RESU(RESU=(_F(GROUP_NO='A',
                   INST=1.0,
                   REFERENCE='ANALYTIQUE',
                   RESULTAT=EVOL,
                   NOM_CHAM='EPSI_NOEU',
                   NOM_CMP='EPXX',
                   VALE_CALC= 5.99096554E-04,
                   VALE_REFE=5.9999999999999995E-4,
                   CRITERE='RELATIF',
                   PRECISION=5.0000000000000001E-3,),
                _F(GROUP_NO='A',
                   INST=1.0,
                   REFERENCE='ANALYTIQUE',
                   RESULTAT=EVOL,
                   NOM_CHAM='EPSI_NOEU',
                   NOM_CMP='EPYY',
                   VALE_CALC=-5.99122439E-04,
                   VALE_REFE=-5.9999999999999995E-4,
                   CRITERE='RELATIF',
                   PRECISION=5.0000000000000001E-3,),
                _F(GROUP_NO='A',
                   INST=1.0,
                   REFERENCE='ANALYTIQUE',
                   RESULTAT=EVOL,
                   NOM_CHAM='EPSI_NOEU',
                   NOM_CMP='EPZZ',
                   VALE_CALC= 4.87234314E-15,
                   VALE_REFE=0.0,
                   CRITERE='ABSOLU',
                   PRECISION=1.0000000000000001E-05,),
                _F(GROUP_NO='A',
                   INST=1.0,
                   REFERENCE='ANALYTIQUE',
                   RESULTAT=EVOL,
                   NOM_CHAM='EPSI_NOEU',
                   NOM_CMP='EPXY',
                   VALE_CALC= 3.80075356E-06,
                   VALE_REFE=0.0,
                   CRITERE='ABSOLU',
                   PRECISION=1.0000000000000001E-05,),
                _F(GROUP_NO='F',
                   INST=1.0,
                   REFERENCE='ANALYTIQUE',
                   RESULTAT=EVOL,
                   NOM_CHAM='EPSI_NOEU',
                   NOM_CMP='EPXX',
                   VALE_CALC=-2.78896417E-07,
                   VALE_REFE=0.0,
                   CRITERE='ABSOLU',
                   PRECISION=1.0000000000000001E-05,),
                _F(GROUP_NO='F',
                   INST=1.0,
                   REFERENCE='ANALYTIQUE',
                   RESULTAT=EVOL,
                   NOM_CHAM='EPSI_NOEU',
                   NOM_CMP='EPYY',
                   VALE_CALC= 3.16585503E-07,
                   VALE_REFE=0.0,
                   CRITERE='ABSOLU',
                   PRECISION=1.0000000000000001E-05,),
                _F(GROUP_NO='F',
                   INST=1.0,
                   REFERENCE='ANALYTIQUE',
                   RESULTAT=EVOL,
                   NOM_CHAM='EPSI_NOEU',
                   NOM_CMP='EPXY',
                   VALE_CALC= 1.50295664E-04,
                   VALE_REFE=1.4999999999999999E-4,
                   CRITERE='RELATIF',
                   PRECISION=5.0000000000000001E-3,),
                ),
          )

TEST_RESU(RESU=(_F(GROUP_NO='A',
                   INST=1.0,
                   REFERENCE='ANALYTIQUE',
                   RESULTAT=EVOL,
                   NOM_CHAM='SIGM_NOEU',
                   NOM_CMP='SIXX',
                   VALE_CALC=99.800319992,
                   VALE_REFE=100.0,
                   CRITERE='RELATIF',
                   PRECISION=5.0000000000000001E-3,),
                _F(GROUP_NO='A',
                   INST=1.0,
                   REFERENCE='ANALYTIQUE',
                   RESULTAT=EVOL,
                   NOM_CHAM='SIGM_NOEU',
                   NOM_CMP='SIYY',
                   VALE_CALC=-59.972863853,
                   VALE_REFE=-60.0,
                   CRITERE='RELATIF',
                   PRECISION=5.0000000000000001E-3,),
                _F(GROUP_NO='A',
                   INST=1.0,
                   REFERENCE='ANALYTIQUE',
                   RESULTAT=EVOL,
                   NOM_CHAM='SIGM_NOEU',
                   NOM_CMP='SIZZ',
                   VALE_CALC=19.915453836,
                   VALE_REFE=20.0,
                   CRITERE='RELATIF',
                   PRECISION=5.0000000000000001E-3,),
                _F(GROUP_NO='A',
                   INST=1.0,
                   REFERENCE='ANALYTIQUE',
                   RESULTAT=EVOL,
                   NOM_CHAM='SIGM_NOEU',
                   NOM_CMP='SIXY',
                   VALE_CALC=0.506800928,
                   VALE_REFE=0.0,
                   CRITERE='ABSOLU',
                   PRECISION=0.59999999999999998,),
                _F(GROUP_NO='F',
                   INST=1.0,
                   REFERENCE='ANALYTIQUE',
                   RESULTAT=EVOL,
                   NOM_CHAM='SIGM_NOEU',
                   NOM_CMP='SIXX',
                   VALE_CALC=19.989875544,
                   VALE_REFE=20.0,
                   CRITERE='RELATIF',
                   PRECISION=5.0000000000000001E-3,),
                _F(GROUP_NO='F',
                   INST=1.0,
                   REFERENCE='ANALYTIQUE',
                   RESULTAT=EVOL,
                   NOM_CHAM='SIGM_NOEU',
                   NOM_CMP='SIYY',
                   VALE_CALC=20.069278427,
                   VALE_REFE=20.0,
                   CRITERE='RELATIF',
                   PRECISION=5.0000000000000001E-3,),
                _F(GROUP_NO='F',
                   INST=1.0,
                   REFERENCE='ANALYTIQUE',
                   RESULTAT=EVOL,
                   NOM_CHAM='SIGM_NOEU',
                   NOM_CMP='SIZZ',
                   VALE_CALC=20.027064212,
                   VALE_REFE=20.0,
                   CRITERE='RELATIF',
                   PRECISION=5.0000000000000001E-3,),
                _F(GROUP_NO='F',
                   INST=1.0,
                   REFERENCE='ANALYTIQUE',
                   RESULTAT=EVOL,
                   NOM_CHAM='SIGM_NOEU',
                   NOM_CMP='SIXY',
                   VALE_CALC=20.040757947,
                   VALE_REFE=20.0,
                   CRITERE='RELATIF',
                   PRECISION=5.0000000000000001E-3,),
                ),
          )

TEST_RESU(RESU=(_F(GROUP_NO='A',
                   INST=1.0,
                   REFERENCE='ANALYTIQUE',
                   RESULTAT=EVOL,
                   NOM_CHAM='EPEQ_NOEU',
                   NOM_CMP='INVA_2',
                   VALE_CALC= 6.91806540E-04,
                   VALE_REFE=6.9282000000000002E-4,
                   CRITERE='RELATIF',
                   PRECISION=5.0000000000000001E-3,
                   MAILLE='M1',),
                _F(GROUP_NO='A',
                   INST=1.0,
                   REFERENCE='ANALYTIQUE',
                   RESULTAT=EVOL,
                   NOM_CHAM='EPEQ_NOEU',
                   NOM_CMP='PRIN_1',
                   VALE_CALC=-5.99134903E-04,
                   VALE_REFE=-5.9999999999999995E-4,
                   CRITERE='RELATIF',
                   PRECISION=5.0000000000000001E-3,
                   MAILLE='M1',),
                _F(GROUP_NO='A',
                   INST=1.0,
                   REFERENCE='ANALYTIQUE',
                   RESULTAT=EVOL,
                   NOM_CHAM='EPEQ_NOEU',
                   NOM_CMP='PRIN_2',
                   VALE_CALC= 4.87234314E-15,
                   VALE_REFE=0.0,
                   CRITERE='ABSOLU',
                   PRECISION=1.0000000000000001E-05,
                   MAILLE='M1',),
                _F(GROUP_NO='A',
                   INST=1.0,
                   REFERENCE='ANALYTIQUE',
                   RESULTAT=EVOL,
                   NOM_CHAM='EPEQ_NOEU',
                   NOM_CMP='PRIN_3',
                   VALE_CALC= 5.99109019E-04,
                   VALE_REFE=5.9999999999999995E-4,
                   CRITERE='RELATIF',
                   PRECISION=5.0000000000000001E-3,
                   MAILLE='M1',),
                ),
          )

TEST_RESU(RESU=(_F(GROUP_NO='A',
                   INST=1.0,
                   REFERENCE='ANALYTIQUE',
                   RESULTAT=EVOL,
                   NOM_CHAM='SIEQ_NOEU',
                   NOM_CMP='VMIS',
                   VALE_CALC=138.370532664,
                   VALE_REFE=138.5641,
                   CRITERE='RELATIF',
                   PRECISION=5.0000000000000001E-3,
                   MAILLE='M1',),
                _F(GROUP_NO='A',
                   INST=1.0,
                   REFERENCE='ANALYTIQUE',
                   RESULTAT=EVOL,
                   NOM_CHAM='SIEQ_NOEU',
                   NOM_CMP='TRESCA',
                   VALE_CALC=159.776508044,
                   VALE_REFE=160.0,
                   CRITERE='RELATIF',
                   PRECISION=5.0000000000000001E-3,
                   MAILLE='M1',),
                _F(GROUP_NO='A',
                   INST=1.0,
                   REFERENCE='ANALYTIQUE',
                   RESULTAT=EVOL,
                   NOM_CHAM='SIEQ_NOEU',
                   NOM_CMP='PRIN_1',
                   VALE_CALC=-59.974525953,
                   VALE_REFE=-60.0,
                   CRITERE='RELATIF',
                   PRECISION=5.0000000000000001E-3,
                   MAILLE='M1',),
                _F(GROUP_NO='A',
                   INST=1.0,
                   REFERENCE='ANALYTIQUE',
                   RESULTAT=EVOL,
                   NOM_CHAM='SIEQ_NOEU',
                   NOM_CMP='PRIN_2',
                   VALE_CALC=19.915453836,
                   VALE_REFE=20.0,
                   CRITERE='RELATIF',
                   PRECISION=5.0000000000000001E-3,
                   MAILLE='M1',),
                _F(GROUP_NO='A',
                   INST=1.0,
                   REFERENCE='ANALYTIQUE',
                   RESULTAT=EVOL,
                   NOM_CHAM='SIEQ_NOEU',
                   NOM_CMP='PRIN_3',
                   VALE_CALC=99.801982092,
                   VALE_REFE=100.0,
                   CRITERE='RELATIF',
                   PRECISION=5.0000000000000001E-3,
                   MAILLE='M1',),
                _F(GROUP_NO='A',
                   INST=1.0,
                   REFERENCE='ANALYTIQUE',
                   RESULTAT=EVOL,
                   NOM_CHAM='SIEQ_NOEU',
                   NOM_CMP='VMIS_SG',
                   VALE_CALC=138.370532664,
                   VALE_REFE=138.5641,
                   CRITERE='RELATIF',
                   PRECISION=5.0000000000000001E-3,
                   MAILLE='M1',),
                ),
          )

#-----------------------------------------------------------------
#  TEST IDENTIQUE EN IMPOSANT LA CONDITION TR(EPS)=0
#------------------------------------------------------------------

M=DEFI_GROUP(reuse =M,
             MAILLAGE=M,
             CREA_GROUP_NO=_F(GROUP_MA='VOLUME',
                              NOM='MSOMMET',
                              CRIT_NOEUD='SOMMET',),);

CH2=AFFE_CHAR_MECA(MODELE=MO,
                   DDL_IMPO=(_F(GROUP_MA='FACEAB',
                                DX=0.,),
                             _F(GROUP_MA='FACSUP',
                                DZ=0.,),
                             _F(GROUP_MA='FACINF',
                                DZ=0.,),
                             _F(GROUP_NO='MSOMMET',
                                GONF=0.,),),
                   FACE_IMPO=_F(GROUP_MA='FACEEF',
                                DNOR=0.,),
                   PRES_REP=_F(GROUP_MA='FACEAE',
                               PRES=60.,),);

EVOL2=STAT_NON_LINE(MODELE=MO,
                    CHAM_MATER=CM,
                    EXCIT=_F(CHARGE=CH2,
                             FONC_MULT=RAMPE,),
                    COMP_INCR=_F(RELATION='ELAS',),
                    INCREMENT=_F(LIST_INST=INSTANTS,),
                    NEWTON=_F(REAC_ITER=1,),
                    SOLVEUR=_F(RENUM='MD',),);

EVOL2=CALC_CHAMP(reuse=EVOL2,RESULTAT=EVOL2,CRITERES=('SIEQ_ELNO','EPEQ_ELNO'),DEFORMATION=('EPSI_ELNO'),CONTRAINTE=('SIGM_ELNO'))


EVOL2=CALC_CHAMP(reuse =EVOL2,
              RESULTAT=EVOL2,
              DEFORMATION='EPSI_NOEU',CONTRAINTE='SIGM_NOEU',CRITERES=('EPEQ_NOEU','SIEQ_NOEU'));

TEST_RESU(RESU=(_F(GROUP_NO='A',
                   INST=1.0,
                   REFERENCE='ANALYTIQUE',
                   RESULTAT=EVOL2,
                   NOM_CHAM='DEPL',
                   NOM_CMP='DX',
                   VALE_CALC=-4.38405725E-22,
                   VALE_REFE=0.0,
                   CRITERE='ABSOLU',
                   PRECISION=1.0000000000000001E-05,),
                _F(GROUP_NO='A',
                   INST=1.0,
                   REFERENCE='ANALYTIQUE',
                   RESULTAT=EVOL2,
                   NOM_CHAM='DEPL',
                   NOM_CMP='DY',
                   VALE_CALC= 5.99969499E-05,
                   VALE_REFE=6.0000000000000002E-05,
                   CRITERE='RELATIF',
                   PRECISION=1.E-3,),
                _F(GROUP_NO='F',
                   INST=1.0,
                   REFERENCE='ANALYTIQUE',
                   RESULTAT=EVOL2,
                   NOM_CHAM='DEPL',
                   NOM_CMP='DX',
                   VALE_CALC=-2.12112094E-05,
                   VALE_REFE=-2.1213203E-05,
                   CRITERE='RELATIF',
                   PRECISION=1.E-3,),
                _F(GROUP_NO='F',
                   INST=1.0,
                   REFERENCE='ANALYTIQUE',
                   RESULTAT=EVOL2,
                   NOM_CHAM='DEPL',
                   NOM_CMP='DY',
                   VALE_CALC= 2.12112094E-05,
                   VALE_REFE=2.1213203E-05,
                   CRITERE='RELATIF',
                   PRECISION=1.E-3,),
                ),
          )

TEST_RESU(RESU=(_F(GROUP_NO='A',
                   INST=1.0,
                   REFERENCE='ANALYTIQUE',
                   RESULTAT=EVOL2,
                   NOM_CHAM='EPSI_NOEU',
                   NOM_CMP='EPXX',
                   VALE_CALC= 5.99066563E-04,
                   VALE_REFE=5.9999999999999995E-4,
                   CRITERE='RELATIF',
                   PRECISION=5.0000000000000001E-3,),
                _F(GROUP_NO='A',
                   INST=1.0,
                   REFERENCE='ANALYTIQUE',
                   RESULTAT=EVOL2,
                   NOM_CHAM='EPSI_NOEU',
                   NOM_CMP='EPYY',
                   VALE_CALC=-5.99152193E-04,
                   VALE_REFE=-5.9999999999999995E-4,
                   CRITERE='RELATIF',
                   PRECISION=5.0000000000000001E-3,),
                _F(GROUP_NO='A',
                   INST=1.0,
                   REFERENCE='ANALYTIQUE',
                   RESULTAT=EVOL2,
                   NOM_CHAM='EPSI_NOEU',
                   NOM_CMP='EPZZ',
                   VALE_CALC= 4.86146252E-15,
                   VALE_REFE=0.0,
                   CRITERE='ABSOLU',
                   PRECISION=1.0000000000000001E-05,),
                _F(GROUP_NO='A',
                   INST=1.0,
                   REFERENCE='ANALYTIQUE',
                   RESULTAT=EVOL2,
                   NOM_CHAM='EPSI_NOEU',
                   NOM_CMP='EPXY',
                   VALE_CALC= 3.80081201E-06,
                   VALE_REFE=0.0,
                   CRITERE='ABSOLU',
                   PRECISION=1.0000000000000001E-05,),
                _F(GROUP_NO='F',
                   INST=1.0,
                   REFERENCE='ANALYTIQUE',
                   RESULTAT=EVOL2,
                   NOM_CHAM='EPSI_NOEU',
                   NOM_CMP='EPXX',
                   VALE_CALC=-3.08956320E-07,
                   VALE_REFE=0.0,
                   CRITERE='ABSOLU',
                   PRECISION=1.0000000000000001E-05,),
                _F(GROUP_NO='F',
                   INST=1.0,
                   REFERENCE='ANALYTIQUE',
                   RESULTAT=EVOL2,
                   NOM_CHAM='EPSI_NOEU',
                   NOM_CMP='EPYY',
                   VALE_CALC= 2.86553194E-07,
                   VALE_REFE=0.0,
                   CRITERE='ABSOLU',
                   PRECISION=1.0000000000000001E-05,),
                _F(GROUP_NO='F',
                   INST=1.0,
                   REFERENCE='ANALYTIQUE',
                   RESULTAT=EVOL2,
                   NOM_CHAM='EPSI_NOEU',
                   NOM_CMP='EPXY',
                   VALE_CALC= 1.50295695E-04,
                   VALE_REFE=1.4999999999999999E-4,
                   CRITERE='RELATIF',
                   PRECISION=5.0000000000000001E-3,),
                ),
          )

TEST_RESU(RESU=(_F(GROUP_NO='A',
                   INST=1.0,
                   REFERENCE='ANALYTIQUE',
                   RESULTAT=EVOL2,
                   NOM_CHAM='SIGM_NOEU',
                   NOM_CMP='SIXX',
                   VALE_CALC=99.800290359,
                   VALE_REFE=100.0,
                   CRITERE='RELATIF',
                   PRECISION=5.0000000000000001E-3,),
                _F(GROUP_NO='A',
                   INST=1.0,
                   REFERENCE='ANALYTIQUE',
                   RESULTAT=EVOL2,
                   NOM_CHAM='SIGM_NOEU',
                   NOM_CMP='SIYY',
                   VALE_CALC=-59.972862052,
                   VALE_REFE=-60.0,
                   CRITERE='RELATIF',
                   PRECISION=5.0000000000000001E-3,),
                _F(GROUP_NO='A',
                   INST=1.0,
                   REFERENCE='ANALYTIQUE',
                   RESULTAT=EVOL2,
                   NOM_CHAM='SIGM_NOEU',
                   NOM_CMP='SIZZ',
                   VALE_CALC=19.919423174,
                   VALE_REFE=20.0,
                   CRITERE='RELATIF',
                   PRECISION=5.0000000000000001E-3,),
                _F(GROUP_NO='A',
                   INST=1.0,
                   REFERENCE='ANALYTIQUE',
                   RESULTAT=EVOL2,
                   NOM_CHAM='SIGM_NOEU',
                   NOM_CMP='SIXY',
                   VALE_CALC=0.506808721,
                   VALE_REFE=0.0,
                   CRITERE='ABSOLU',
                   PRECISION=0.59999999999999998,),
                _F(GROUP_NO='F',
                   INST=1.0,
                   REFERENCE='ANALYTIQUE',
                   RESULTAT=EVOL2,
                   NOM_CHAM='SIGM_NOEU',
                   NOM_CMP='SIXX',
                   VALE_CALC=19.989878728,
                   VALE_REFE=20.0,
                   CRITERE='RELATIF',
                   PRECISION=5.0000000000000001E-3,),
                _F(GROUP_NO='F',
                   INST=1.0,
                   REFERENCE='ANALYTIQUE',
                   RESULTAT=EVOL2,
                   NOM_CHAM='SIGM_NOEU',
                   NOM_CMP='SIYY',
                   VALE_CALC=20.069285290,
                   VALE_REFE=20.0,
                   CRITERE='RELATIF',
                   PRECISION=5.0000000000000001E-3,),
                _F(GROUP_NO='F',
                   INST=1.0,
                   REFERENCE='ANALYTIQUE',
                   RESULTAT=EVOL2,
                   NOM_CHAM='SIGM_NOEU',
                   NOM_CMP='SIZZ',
                   VALE_CALC=20.031075650,
                   VALE_REFE=20.0,
                   CRITERE='RELATIF',
                   PRECISION=5.0000000000000001E-3,),
                _F(GROUP_NO='F',
                   INST=1.0,
                   REFERENCE='ANALYTIQUE',
                   RESULTAT=EVOL2,
                   NOM_CHAM='SIGM_NOEU',
                   NOM_CMP='SIXY',
                   VALE_CALC=20.040762058,
                   VALE_REFE=20.0,
                   CRITERE='RELATIF',
                   PRECISION=5.0000000000000001E-3,),
                ),
          )

TEST_RESU(RESU=(_F(GROUP_NO='A',
                   INST=1.0,
                   REFERENCE='ANALYTIQUE',
                   RESULTAT=EVOL2,
                   NOM_CHAM='EPEQ_NOEU',
                   NOM_CMP='INVA_2',
                   VALE_CALC= 6.91806405E-04,
                   VALE_REFE=6.9282000000000002E-4,
                   CRITERE='RELATIF',
                   PRECISION=5.0000000000000001E-3,
                   MAILLE='M1',),
                _F(GROUP_NO='A',
                   INST=1.0,
                   REFERENCE='ANALYTIQUE',
                   RESULTAT=EVOL2,
                   NOM_CHAM='EPEQ_NOEU',
                   NOM_CMP='PRIN_1',
                   VALE_CALC=-5.99164658E-04,
                   VALE_REFE=-5.9999999999999995E-4,
                   CRITERE='RELATIF',
                   PRECISION=5.0000000000000001E-3,
                   MAILLE='M1',),
                _F(GROUP_NO='A',
                   INST=1.0,
                   REFERENCE='ANALYTIQUE',
                   RESULTAT=EVOL2,
                   NOM_CHAM='EPEQ_NOEU',
                   NOM_CMP='PRIN_2',
                   VALE_CALC= 4.86146252E-15,
                   VALE_REFE=0.0,
                   CRITERE='ABSOLU',
                   PRECISION=1.0000000000000001E-05,
                   MAILLE='M1',),
                _F(GROUP_NO='A',
                   INST=1.0,
                   REFERENCE='ANALYTIQUE',
                   RESULTAT=EVOL2,
                   NOM_CHAM='EPEQ_NOEU',
                   NOM_CMP='PRIN_3',
                   VALE_CALC= 5.99079029E-04,
                   VALE_REFE=5.9999999999999995E-4,
                   CRITERE='RELATIF',
                   PRECISION=5.0000000000000001E-3,
                   MAILLE='M1',),
                ),
          )

TEST_RESU(RESU=(_F(GROUP_NO='A',
                   INST=1.0,
                   REFERENCE='ANALYTIQUE',
                   RESULTAT=EVOL2,
                   NOM_CHAM='SIEQ_NOEU',
                   NOM_CMP='VMIS',
                   VALE_CALC=138.370505644,
                   VALE_REFE=138.5641,
                   CRITERE='RELATIF',
                   PRECISION=5.0000000000000001E-3,
                   MAILLE='M1',),
                _F(GROUP_NO='A',
                   INST=1.0,
                   REFERENCE='ANALYTIQUE',
                   RESULTAT=EVOL2,
                   NOM_CHAM='SIEQ_NOEU',
                   NOM_CMP='TRESCA',
                   VALE_CALC=159.776476711,
                   VALE_REFE=160.0,
                   CRITERE='RELATIF',
                   PRECISION=5.0000000000000001E-3,
                   MAILLE='M1',),
                _F(GROUP_NO='A',
                   INST=1.0,
                   REFERENCE='ANALYTIQUE',
                   RESULTAT=EVOL2,
                   NOM_CHAM='SIEQ_NOEU',
                   NOM_CMP='PRIN_1',
                   VALE_CALC=-59.974524202,
                   VALE_REFE=-60.0,
                   CRITERE='RELATIF',
                   PRECISION=5.0000000000000001E-3,
                   MAILLE='M1',),
                _F(GROUP_NO='A',
                   INST=1.0,
                   REFERENCE='ANALYTIQUE',
                   RESULTAT=EVOL2,
                   NOM_CHAM='SIEQ_NOEU',
                   NOM_CMP='PRIN_2',
                   VALE_CALC=19.919423174,
                   VALE_REFE=20.0,
                   CRITERE='RELATIF',
                   PRECISION=5.0000000000000001E-3,
                   MAILLE='M1',),
                _F(GROUP_NO='A',
                   INST=1.0,
                   REFERENCE='ANALYTIQUE',
                   RESULTAT=EVOL2,
                   NOM_CHAM='SIEQ_NOEU',
                   NOM_CMP='PRIN_3',
                   VALE_CALC=99.801952509,
                   VALE_REFE=100.0,
                   CRITERE='RELATIF',
                   PRECISION=5.0000000000000001E-3,
                   MAILLE='M1',),
                _F(GROUP_NO='A',
                   INST=1.0,
                   REFERENCE='ANALYTIQUE',
                   RESULTAT=EVOL2,
                   NOM_CHAM='SIEQ_NOEU',
                   NOM_CMP='VMIS_SG',
                   VALE_CALC=138.370505644,
                   VALE_REFE=138.5641,
                   CRITERE='RELATIF',
                   PRECISION=5.0000000000000001E-3,
                   MAILLE='M1',),
                ),
          )

#--------------------------------------------------------------------------------
#  TEST SUR UN NOEUD SITUE EN MILIEU DE MAILLE POUR TESTER LE PASSAGE AUX NOEUDS MILIEUX
#  NOEUMI = A + (0 0 1/2 pas )

TEST_RESU(RESU=(_F(GROUP_NO='NOEUMI',
                   INST=1.0,
                   REFERENCE='ANALYTIQUE',
                   RESULTAT=EVOL,
                   NOM_CHAM='EPSI_NOEU',
                   NOM_CMP='EPXX',
                   VALE_CALC= 5.99096554E-04,
                   VALE_REFE=5.9999999999999995E-4,
                   CRITERE='RELATIF',
                   PRECISION=5.0000000000000001E-3,),
                _F(GROUP_NO='NOEUMI',
                   INST=1.0,
                   REFERENCE='ANALYTIQUE',
                   RESULTAT=EVOL,
                   NOM_CHAM='EPSI_NOEU',
                   NOM_CMP='EPYY',
                   VALE_CALC=-5.99122439E-04,
                   VALE_REFE=-5.9999999999999995E-4,
                   CRITERE='RELATIF',
                   PRECISION=5.0000000000000001E-3,),
                _F(GROUP_NO='NOEUMI',
                   INST=1.0,
                   REFERENCE='ANALYTIQUE',
                   RESULTAT=EVOL,
                   NOM_CHAM='SIGM_NOEU',
                   NOM_CMP='SIXX',
                   VALE_CALC=99.800319993,
                   VALE_REFE=100.0,
                   CRITERE='RELATIF',
                   PRECISION=5.0000000000000001E-3,),
                _F(GROUP_NO='NOEUMI',
                   INST=1.0,
                   REFERENCE='ANALYTIQUE',
                   RESULTAT=EVOL,
                   NOM_CHAM='SIGM_NOEU',
                   NOM_CMP='SIYY',
                   VALE_CALC=-59.972863853,
                   VALE_REFE=-60.0,
                   CRITERE='RELATIF',
                   PRECISION=5.0000000000000001E-3,),
                _F(GROUP_NO='NOEUMI',
                   INST=1.0,
                   REFERENCE='ANALYTIQUE',
                   RESULTAT=EVOL,
                   NOM_CHAM='SIGM_NOEU',
                   NOM_CMP='SIZZ',
                   VALE_CALC=19.915453835,
                   VALE_REFE=20.0,
                   CRITERE='RELATIF',
                   PRECISION=5.0000000000000001E-3,),
                ),
          )

#--------------------------------------------------------------------------------

MOUP=AFFE_MODELE(MAILLAGE=M,
                 VERIF='MAILLE',
                 AFFE=_F(GROUP_MA=('VOLUME','FACEEF','FACEAE','FACEAB','FACSUP','FACINF',),
                         PHENOMENE='MECANIQUE',
                         MODELISATION='3D_INCO',),);

CHUP=AFFE_CHAR_MECA(MODELE=MOUP,
                    DDL_IMPO=(_F(GROUP_MA='FACEAB',
                                 DX=0.,),
                              _F(GROUP_MA='FACSUP',
                                 DZ=0.,),
                              _F(GROUP_MA='FACINF',
                                 DZ=0.,),),
                    FACE_IMPO=_F(GROUP_MA='FACEEF',
                                 DNOR=0.,),
                    PRES_REP=_F(GROUP_MA='FACEAE',
                                PRES=60.,),);

EVOLUP=STAT_NON_LINE(MODELE=MOUP,
                     CHAM_MATER=CM,
                     EXCIT=_F(CHARGE=CHUP,
                              FONC_MULT=RAMPE,),
                     COMP_INCR=_F(RELATION='ELAS',),
                     INCREMENT=_F(LIST_INST=INSTANTS,),
                     NEWTON=_F(REAC_ITER=1,),
                     SOLVEUR=_F(RENUM='MD',),);

EVOLUP=CALC_CHAMP(reuse=EVOLUP,RESULTAT=EVOLUP,CRITERES=('SIEQ_ELNO','EPEQ_ELNO'),DEFORMATION=('EPSI_ELNO'),CONTRAINTE=('SIGM_ELNO'))


EVOLUP=CALC_CHAMP(reuse =EVOLUP,
               RESULTAT=EVOLUP,
               DEFORMATION='EPSI_NOEU',CONTRAINTE='SIGM_NOEU',CRITERES=('EPEQ_NOEU','SIEQ_NOEU'));

#--------------------------------------------------------------
#       COMPARAISON DES RESULTATS A LA SOLUTION ANALYTIQUE
#       POUR UN  SOLIDE INCOMPRESSIBLE NU = 0.5
#       3D_INCO_UP ET PENTA15
#---------------------------------------------------------------

TEST_RESU(RESU=(_F(GROUP_NO='A',
                   INST=1.0,
                   REFERENCE='ANALYTIQUE',
                   RESULTAT=EVOLUP,
                   NOM_CHAM='DEPL',
                   NOM_CMP='DX',
                   VALE_CALC=-1.73707929E-22,
                   VALE_REFE=0.0,
                   CRITERE='ABSOLU',
                   PRECISION=1.0000000000000001E-05,),
                _F(GROUP_NO='A',
                   INST=1.0,
                   REFERENCE='ANALYTIQUE',
                   RESULTAT=EVOLUP,
                   NOM_CHAM='DEPL',
                   NOM_CMP='DY',
                   VALE_CALC= 5.99999499E-05,
                   VALE_REFE=6.0000000000000002E-05,
                   CRITERE='RELATIF',
                   PRECISION=1.E-3,),
                _F(GROUP_NO='F',
                   INST=1.0,
                   REFERENCE='ANALYTIQUE',
                   RESULTAT=EVOLUP,
                   NOM_CHAM='DEPL',
                   NOM_CMP='DX',
                   VALE_CALC=-2.12154519E-05,
                   VALE_REFE=-2.1213203E-05,
                   CRITERE='RELATIF',
                   PRECISION=1.E-3,),
                _F(GROUP_NO='F',
                   INST=1.0,
                   REFERENCE='ANALYTIQUE',
                   RESULTAT=EVOLUP,
                   NOM_CHAM='DEPL',
                   NOM_CMP='DY',
                   VALE_CALC= 2.12154519E-05,
                   VALE_REFE=2.1213203E-05,
                   CRITERE='RELATIF',
                   PRECISION=1.E-3,),
                ),
          )

TEST_RESU(RESU=(_F(GROUP_NO='A',
                   INST=1.0,
                   REFERENCE='ANALYTIQUE',
                   RESULTAT=EVOLUP,
                   NOM_CHAM='EPSI_NOEU',
                   NOM_CMP='EPXX',
                   VALE_CALC= 5.99096554E-04,
                   VALE_REFE=5.9999999999999995E-4,
                   CRITERE='RELATIF',
                   PRECISION=5.0000000000000001E-3,),
                _F(GROUP_NO='A',
                   INST=1.0,
                   REFERENCE='ANALYTIQUE',
                   RESULTAT=EVOLUP,
                   NOM_CHAM='EPSI_NOEU',
                   NOM_CMP='EPYY',
                   VALE_CALC=-5.99122439E-04,
                   VALE_REFE=-5.9999999999999995E-4,
                   CRITERE='RELATIF',
                   PRECISION=5.0000000000000001E-3,),
                _F(GROUP_NO='A',
                   INST=1.0,
                   REFERENCE='ANALYTIQUE',
                   RESULTAT=EVOLUP,
                   NOM_CHAM='EPSI_NOEU',
                   NOM_CMP='EPZZ',
                   VALE_CALC= 4.87234314E-15,
                   VALE_REFE=0.0,
                   CRITERE='ABSOLU',
                   PRECISION=1.0000000000000001E-05,),
                _F(GROUP_NO='A',
                   INST=1.0,
                   REFERENCE='ANALYTIQUE',
                   RESULTAT=EVOLUP,
                   NOM_CHAM='EPSI_NOEU',
                   NOM_CMP='EPXY',
                   VALE_CALC= 3.80075356E-06,
                   VALE_REFE=0.0,
                   CRITERE='ABSOLU',
                   PRECISION=1.0000000000000001E-05,),
                _F(GROUP_NO='F',
                   INST=1.0,
                   REFERENCE='ANALYTIQUE',
                   RESULTAT=EVOLUP,
                   NOM_CHAM='EPSI_NOEU',
                   NOM_CMP='EPXX',
                   VALE_CALC=-2.78896417E-07,
                   VALE_REFE=0.0,
                   CRITERE='ABSOLU',
                   PRECISION=1.0000000000000001E-05,),
                _F(GROUP_NO='F',
                   INST=1.0,
                   REFERENCE='ANALYTIQUE',
                   RESULTAT=EVOLUP,
                   NOM_CHAM='EPSI_NOEU',
                   NOM_CMP='EPYY',
                   VALE_CALC= 3.16585503E-07,
                   VALE_REFE=0.0,
                   CRITERE='ABSOLU',
                   PRECISION=1.0000000000000001E-05,),
                _F(GROUP_NO='F',
                   INST=1.0,
                   REFERENCE='ANALYTIQUE',
                   RESULTAT=EVOLUP,
                   NOM_CHAM='EPSI_NOEU',
                   NOM_CMP='EPXY',
                   VALE_CALC= 1.50295664E-04,
                   VALE_REFE=1.4999999999999999E-4,
                   CRITERE='RELATIF',
                   PRECISION=5.0000000000000001E-3,),
                ),
          )

TEST_RESU(RESU=(_F(GROUP_NO='A',
                   INST=1.0,
                   REFERENCE='ANALYTIQUE',
                   RESULTAT=EVOLUP,
                   NOM_CHAM='SIGM_NOEU',
                   NOM_CMP='SIXX',
                   VALE_CALC=99.800319992,
                   VALE_REFE=100.0,
                   CRITERE='RELATIF',
                   PRECISION=5.0000000000000001E-3,),
                _F(GROUP_NO='A',
                   INST=1.0,
                   REFERENCE='ANALYTIQUE',
                   RESULTAT=EVOLUP,
                   NOM_CHAM='SIGM_NOEU',
                   NOM_CMP='SIYY',
                   VALE_CALC=-59.972863853,
                   VALE_REFE=-60.0,
                   CRITERE='RELATIF',
                   PRECISION=5.0000000000000001E-3,),
                _F(GROUP_NO='A',
                   INST=1.0,
                   REFERENCE='ANALYTIQUE',
                   RESULTAT=EVOLUP,
                   NOM_CHAM='SIGM_NOEU',
                   NOM_CMP='SIZZ',
                   VALE_CALC=19.915453836,
                   VALE_REFE=20.0,
                   CRITERE='RELATIF',
                   PRECISION=5.0000000000000001E-3,),
                _F(GROUP_NO='A',
                   INST=1.0,
                   REFERENCE='ANALYTIQUE',
                   RESULTAT=EVOLUP,
                   NOM_CHAM='SIGM_NOEU',
                   NOM_CMP='SIXY',
                   VALE_CALC=0.506800928,
                   VALE_REFE=0.0,
                   CRITERE='ABSOLU',
                   PRECISION=0.59999999999999998,),
                _F(GROUP_NO='F',
                   INST=1.0,
                   REFERENCE='ANALYTIQUE',
                   RESULTAT=EVOLUP,
                   NOM_CHAM='SIGM_NOEU',
                   NOM_CMP='SIXX',
                   VALE_CALC=19.989875544,
                   VALE_REFE=20.0,
                   CRITERE='RELATIF',
                   PRECISION=5.0000000000000001E-3,),
                _F(GROUP_NO='F',
                   INST=1.0,
                   REFERENCE='ANALYTIQUE',
                   RESULTAT=EVOLUP,
                   NOM_CHAM='SIGM_NOEU',
                   NOM_CMP='SIYY',
                   VALE_CALC=20.069278427,
                   VALE_REFE=20.0,
                   CRITERE='RELATIF',
                   PRECISION=5.0000000000000001E-3,),
                _F(GROUP_NO='F',
                   INST=1.0,
                   REFERENCE='ANALYTIQUE',
                   RESULTAT=EVOLUP,
                   NOM_CHAM='SIGM_NOEU',
                   NOM_CMP='SIZZ',
                   VALE_CALC=20.027064212,
                   VALE_REFE=20.0,
                   CRITERE='RELATIF',
                   PRECISION=5.0000000000000001E-3,),
                _F(GROUP_NO='F',
                   INST=1.0,
                   REFERENCE='ANALYTIQUE',
                   RESULTAT=EVOLUP,
                   NOM_CHAM='SIGM_NOEU',
                   NOM_CMP='SIXY',
                   VALE_CALC=20.040757947,
                   VALE_REFE=20.0,
                   CRITERE='RELATIF',
                   PRECISION=5.0000000000000001E-3,),
                ),
          )

TEST_RESU(RESU=(_F(GROUP_NO='A',
                   INST=1.0,
                   REFERENCE='ANALYTIQUE',
                   RESULTAT=EVOLUP,
                   NOM_CHAM='EPEQ_NOEU',
                   NOM_CMP='INVA_2',
                   VALE_CALC= 6.91806540E-04,
                   VALE_REFE=6.9282000000000002E-4,
                   CRITERE='RELATIF',
                   PRECISION=5.0000000000000001E-3,
                   MAILLE='M1',),
                _F(GROUP_NO='A',
                   INST=1.0,
                   REFERENCE='ANALYTIQUE',
                   RESULTAT=EVOLUP,
                   NOM_CHAM='EPEQ_NOEU',
                   NOM_CMP='PRIN_1',
                   VALE_CALC=-5.99134903E-04,
                   VALE_REFE=-5.9999999999999995E-4,
                   CRITERE='RELATIF',
                   PRECISION=5.0000000000000001E-3,
                   MAILLE='M1',),
                _F(GROUP_NO='A',
                   INST=1.0,
                   REFERENCE='ANALYTIQUE',
                   RESULTAT=EVOLUP,
                   NOM_CHAM='EPEQ_NOEU',
                   NOM_CMP='PRIN_2',
                   VALE_CALC= 4.87234314E-15,
                   VALE_REFE=0.0,
                   CRITERE='ABSOLU',
                   PRECISION=1.0000000000000001E-05,
                   MAILLE='M1',),
                _F(GROUP_NO='A',
                   INST=1.0,
                   REFERENCE='ANALYTIQUE',
                   RESULTAT=EVOLUP,
                   NOM_CHAM='EPEQ_NOEU',
                   NOM_CMP='PRIN_3',
                   VALE_CALC= 5.99109019E-04,
                   VALE_REFE=5.9999999999999995E-4,
                   CRITERE='RELATIF',
                   PRECISION=5.0000000000000001E-3,
                   MAILLE='M1',),
                ),
          )

TEST_RESU(RESU=(_F(GROUP_NO='A',
                   INST=1.0,
                   REFERENCE='ANALYTIQUE',
                   RESULTAT=EVOLUP,
                   NOM_CHAM='SIEQ_NOEU',
                   NOM_CMP='VMIS',
                   VALE_CALC=138.370532664,
                   VALE_REFE=138.5641,
                   CRITERE='RELATIF',
                   PRECISION=5.0000000000000001E-3,
                   MAILLE='M1',),
                _F(GROUP_NO='A',
                   INST=1.0,
                   REFERENCE='ANALYTIQUE',
                   RESULTAT=EVOLUP,
                   NOM_CHAM='SIEQ_NOEU',
                   NOM_CMP='TRESCA',
                   VALE_CALC=159.776508044,
                   VALE_REFE=160.0,
                   CRITERE='RELATIF',
                   PRECISION=5.0000000000000001E-3,
                   MAILLE='M1',),
                _F(GROUP_NO='A',
                   INST=1.0,
                   REFERENCE='ANALYTIQUE',
                   RESULTAT=EVOLUP,
                   NOM_CHAM='SIEQ_NOEU',
                   NOM_CMP='PRIN_1',
                   VALE_CALC=-59.974525953,
                   VALE_REFE=-60.0,
                   CRITERE='RELATIF',
                   PRECISION=5.0000000000000001E-3,
                   MAILLE='M1',),
                _F(GROUP_NO='A',
                   INST=1.0,
                   REFERENCE='ANALYTIQUE',
                   RESULTAT=EVOLUP,
                   NOM_CHAM='SIEQ_NOEU',
                   NOM_CMP='PRIN_2',
                   VALE_CALC=19.915453836,
                   VALE_REFE=20.0,
                   CRITERE='RELATIF',
                   PRECISION=5.0000000000000001E-3,
                   MAILLE='M1',),
                _F(GROUP_NO='A',
                   INST=1.0,
                   REFERENCE='ANALYTIQUE',
                   RESULTAT=EVOLUP,
                   NOM_CHAM='SIEQ_NOEU',
                   NOM_CMP='PRIN_3',
                   VALE_CALC=99.801982092,
                   VALE_REFE=100.0,
                   CRITERE='RELATIF',
                   PRECISION=5.0000000000000001E-3,
                   MAILLE='M1',),
                _F(GROUP_NO='A',
                   INST=1.0,
                   REFERENCE='ANALYTIQUE',
                   RESULTAT=EVOLUP,
                   NOM_CHAM='SIEQ_NOEU',
                   NOM_CMP='VMIS_SG',
                   VALE_CALC=138.370532664,
                   VALE_REFE=138.5641,
                   CRITERE='RELATIF',
                   PRECISION=5.0000000000000001E-3,
                   MAILLE='M1',),
                ),
          )

M0=CREA_MAILLAGE(MAILLAGE=M,
                 QUAD_LINE=_F(TOUT='OUI',),);

MOOS=AFFE_MODELE(MAILLAGE=M0,
                 VERIF='MAILLE',
                 AFFE=_F(GROUP_MA=('VOLUME','FACEEF','FACEAE','FACEAB','FACSUP','FACINF',),
                         PHENOMENE='MECANIQUE',
                         MODELISATION='3D_INCO_OSGS',),);

CHOS=AFFE_CHAR_MECA(MODELE=MOOS,
                    DDL_IMPO=(_F(GROUP_MA='FACEAB',
                                 DX=0.,),
                              _F(GROUP_MA='FACSUP',
                                 DZ=0.,),
                              _F(GROUP_MA='FACINF',
                                 DZ=0.,),),
                    FACE_IMPO=_F(GROUP_MA='FACEEF',
                                 DNOR=0.,),
                    PRES_REP=_F(GROUP_MA='FACEAE',
                                PRES=60.,),);

CM0=AFFE_MATERIAU(MAILLAGE=M0,
                  AFFE=_F(TOUT='OUI',
                          MATER=MA,),);

EVOLOS=STAT_NON_LINE(MODELE=MOOS,
                     CHAM_MATER=CM0,
                     EXCIT=_F(CHARGE=CHOS,
                              FONC_MULT=RAMPE,),
                     COMP_INCR=_F(RELATION='ELAS',),
                     INCREMENT=_F(LIST_INST=INSTANTS,),
                     NEWTON=_F(REAC_ITER=1,),
                     SOLVEUR=_F(RENUM='MD',),);

EVOLOS=CALC_CHAMP(reuse=EVOLOS,RESULTAT=EVOLOS,CRITERES=('SIEQ_ELNO','EPEQ_ELNO'),DEFORMATION=('EPSI_ELNO'),CONTRAINTE=('SIGM_ELNO'))


EVOLOS=CALC_CHAMP(reuse =EVOLOS,
               RESULTAT=EVOLOS,
               DEFORMATION='EPSI_NOEU',CONTRAINTE='SIGM_NOEU',CRITERES=('EPEQ_NOEU','SIEQ_NOEU'));

#--------------------------------------------------------------
#       COMPARAISON DES RESULTATS A LA SOLUTION ANALYTIQUE
#       POUR UN  SOLIDE INCOMPRESSIBLE NU = 0.5
#       3D_INCO_UP ET PENTA15
#---------------------------------------------------------------

TEST_RESU(RESU=(_F(GROUP_NO='A',
                   INST=1.0,
                   REFERENCE='ANALYTIQUE',
                   RESULTAT=EVOLOS,
                   NOM_CHAM='DEPL',
                   NOM_CMP='DX',
                   VALE_CALC= 3.83811804E-22,
                   VALE_REFE=0.0,
                   CRITERE='ABSOLU',
                   PRECISION=1.0000000000000001E-05,),
                _F(GROUP_NO='A',
                   INST=1.0,
                   REFERENCE='ANALYTIQUE',
                   RESULTAT=EVOLOS,
                   NOM_CHAM='DEPL',
                   NOM_CMP='DY',
                   VALE_CALC= 5.97687084E-05,
                   VALE_REFE=6.0000000000000002E-05,
                   CRITERE='RELATIF',
                   PRECISION=5.0000000000000001E-3,),
                _F(GROUP_NO='F',
                   INST=1.0,
                   REFERENCE='ANALYTIQUE',
                   RESULTAT=EVOLOS,
                   NOM_CHAM='DEPL',
                   NOM_CMP='DX',
                   VALE_CALC=-2.11596137E-05,
                   VALE_REFE=-2.1213203E-05,
                   CRITERE='RELATIF',
                   PRECISION=3.0000000000000001E-3,),
                _F(GROUP_NO='F',
                   INST=1.0,
                   REFERENCE='ANALYTIQUE',
                   RESULTAT=EVOLOS,
                   NOM_CHAM='DEPL',
                   NOM_CMP='DY',
                   VALE_CALC= 2.11596137E-05,
                   VALE_REFE=2.1213203E-05,
                   CRITERE='RELATIF',
                   PRECISION=3.0000000000000001E-3,),
                ),
          )

TEST_RESU(RESU=(_F(GROUP_NO='A',
                   INST=1.0,
                   REFERENCE='ANALYTIQUE',
                   RESULTAT=EVOLOS,
                   NOM_CHAM='EPSI_NOEU',
                   NOM_CMP='EPXX',
                   VALE_CALC= 5.52985531E-04,
                   VALE_REFE=5.9999999999999995E-4,
                   CRITERE='RELATIF',
                   PRECISION=0.10000000000000001,),
                _F(GROUP_NO='A',
                   INST=1.0,
                   REFERENCE='ANALYTIQUE',
                   RESULTAT=EVOLOS,
                   NOM_CHAM='EPSI_NOEU',
                   NOM_CMP='EPYY',
                   VALE_CALC=-5.50451892E-04,
                   VALE_REFE=-5.9999999999999995E-4,
                   CRITERE='RELATIF',
                   PRECISION=0.10000000000000001,),
                _F(GROUP_NO='A',
                   INST=1.0,
                   REFERENCE='ANALYTIQUE',
                   RESULTAT=EVOLOS,
                   NOM_CHAM='EPSI_NOEU',
                   NOM_CMP='EPZZ',
                   VALE_CALC=-4.09946777E-16,
                   VALE_REFE=0.0,
                   CRITERE='ABSOLU',
                   PRECISION=1.0000000000000001E-05,),
                _F(GROUP_NO='A',
                   INST=1.0,
                   REFERENCE='ANALYTIQUE',
                   RESULTAT=EVOLOS,
                   NOM_CHAM='EPSI_NOEU',
                   NOM_CMP='EPXY',
                   VALE_CALC= 4.42021591E-05,
                   VALE_REFE=0.0,
                   CRITERE='ABSOLU',
                   PRECISION=5.0000000000000002E-05,),
                _F(GROUP_NO='F',
                   INST=1.0,
                   REFERENCE='ANALYTIQUE',
                   RESULTAT=EVOLOS,
                   NOM_CHAM='EPSI_NOEU',
                   NOM_CMP='EPXX',
                   VALE_CALC= 4.27565444E-06,
                   VALE_REFE=0.0,
                   CRITERE='ABSOLU',
                   PRECISION=1.0000000000000001E-05,),
                _F(GROUP_NO='F',
                   INST=1.0,
                   REFERENCE='ANALYTIQUE',
                   RESULTAT=EVOLOS,
                   NOM_CHAM='EPSI_NOEU',
                   NOM_CMP='EPYY',
                   VALE_CALC=-8.04532460E-06,
                   VALE_REFE=0.0,
                   CRITERE='ABSOLU',
                   PRECISION=1.0000000000000001E-05,),
                _F(GROUP_NO='F',
                   INST=1.0,
                   REFERENCE='ANALYTIQUE',
                   RESULTAT=EVOLOS,
                   NOM_CHAM='EPSI_NOEU',
                   NOM_CMP='EPXY',
                   VALE_CALC= 1.51570477E-04,
                   VALE_REFE=1.4999999999999999E-4,
                   CRITERE='RELATIF',
                   PRECISION=0.014999999999999999,),
                ),
          )

TEST_RESU(RESU=(_F(GROUP_NO='A',
                   INST=1.0,
                   REFERENCE='ANALYTIQUE',
                   RESULTAT=EVOLOS,
                   NOM_CHAM='SIGM_NOEU',
                   NOM_CMP='SIXX',
                   VALE_CALC=94.405772479,
                   VALE_REFE=100.0,
                   CRITERE='RELATIF',
                   PRECISION=0.059999999999999998,),
                _F(GROUP_NO='A',
                   INST=1.0,
                   REFERENCE='ANALYTIQUE',
                   RESULTAT=EVOLOS,
                   NOM_CHAM='SIGM_NOEU',
                   NOM_CMP='SIYY',
                   VALE_CALC=-52.729026193,
                   VALE_REFE=-60.0,
                   CRITERE='RELATIF',
                   PRECISION=0.14999999999999999,),
                _F(GROUP_NO='A',
                   INST=1.0,
                   REFERENCE='ANALYTIQUE',
                   RESULTAT=EVOLOS,
                   NOM_CHAM='SIGM_NOEU',
                   NOM_CMP='SIZZ',
                   VALE_CALC=20.669452600,
                   VALE_REFE=20.0,
                   CRITERE='RELATIF',
                   PRECISION=0.050000000000000003,),
                _F(NUME_ORDRE=1,
                   GROUP_NO='A',
                   REFERENCE='ANALYTIQUE',
                   RESULTAT=EVOLOS,
                   NOM_CHAM='SIGM_NOEU',
                   NOM_CMP='SIXY',
                   VALE_CALC=5.894014148,
                   VALE_REFE=0.0,
                   CRITERE='ABSOLU',
                   PRECISION=6.0,),
                _F(GROUP_NO='F',
                   INST=1.0,
                   REFERENCE='ANALYTIQUE',
                   RESULTAT=EVOLOS,
                   NOM_CHAM='SIGM_NOEU',
                   NOM_CMP='SIXX',
                   VALE_CALC=20.605873178,
                   VALE_REFE=20.0,
                   CRITERE='RELATIF',
                   PRECISION=0.5,),
                _F(GROUP_NO='F',
                   INST=1.0,
                   REFERENCE='ANALYTIQUE',
                   RESULTAT=EVOLOS,
                   NOM_CHAM='SIGM_NOEU',
                   NOM_CMP='SIYY',
                   VALE_CALC=18.962966446,
                   VALE_REFE=20.0,
                   CRITERE='RELATIF',
                   PRECISION=0.059999999999999998,),
                _F(GROUP_NO='F',
                   INST=1.0,
                   REFERENCE='ANALYTIQUE',
                   RESULTAT=EVOLOS,
                   NOM_CHAM='SIGM_NOEU',
                   NOM_CMP='SIZZ',
                   VALE_CALC=20.035747912,
                   VALE_REFE=20.0,
                   CRITERE='RELATIF',
                   PRECISION=5.0000000000000001E-3,),
                _F(GROUP_NO='F',
                   INST=1.0,
                   REFERENCE='ANALYTIQUE',
                   RESULTAT=EVOLOS,
                   NOM_CHAM='SIGM_NOEU',
                   NOM_CMP='SIXY',
                   VALE_CALC=20.210744382,
                   VALE_REFE=20.0,
                   CRITERE='RELATIF',
                   PRECISION=0.014999999999999999,),
                ),
          )

TEST_RESU(RESU=(_F(GROUP_NO='A',
                   INST=1.0,
                   REFERENCE='ANALYTIQUE',
                   RESULTAT=EVOLOS,
                   NOM_CHAM='EPEQ_NOEU',
                   NOM_CMP='INVA_2',
                   VALE_CALC= 6.39669450E-04,
                   VALE_REFE=6.9282000000000002E-4,
                   CRITERE='RELATIF',
                   PRECISION=0.080000000000000002,
                   MAILLE='M1',),
                _F(GROUP_NO='A',
                   INST=1.0,
                   REFERENCE='ANALYTIQUE',
                   RESULTAT=EVOLOS,
                   NOM_CHAM='EPEQ_NOEU',
                   NOM_CMP='PRIN_1',
                   VALE_CALC=-5.52578253E-04,
                   VALE_REFE=-5.9999999999999995E-4,
                   CRITERE='RELATIF',
                   PRECISION=0.080000000000000002,
                   MAILLE='M1',),
                _F(GROUP_NO='A',
                   INST=1.0,
                   REFERENCE='ANALYTIQUE',
                   RESULTAT=EVOLOS,
                   NOM_CHAM='EPEQ_NOEU',
                   NOM_CMP='PRIN_2',
                   VALE_CALC=-4.09946777E-16,
                   VALE_REFE=0.0,
                   CRITERE='ABSOLU',
                   PRECISION=1.0000000000000001E-05,
                   MAILLE='M1',),
                _F(GROUP_NO='A',
                   INST=1.0,
                   REFERENCE='ANALYTIQUE',
                   RESULTAT=EVOLOS,
                   NOM_CHAM='EPEQ_NOEU',
                   NOM_CMP='PRIN_3',
                   VALE_CALC= 5.55111892E-04,
                   VALE_REFE=5.9999999999999995E-4,
                   CRITERE='RELATIF',
                   PRECISION=0.080000000000000002,
                   MAILLE='M1',),
                ),
          )

TEST_RESU(RESU=(_F(GROUP_NO='A',
                   INST=1.0,
                   REFERENCE='ANALYTIQUE',
                   RESULTAT=EVOLOS,
                   NOM_CHAM='SIEQ_NOEU',
                   NOM_CMP='VMIS',
                   VALE_CALC=127.942419555,
                   VALE_REFE=138.5641,
                   CRITERE='RELATIF',
                   PRECISION=0.10000000000000001,
                   MAILLE='M1',),
                _F(GROUP_NO='A',
                   INST=1.0,
                   REFERENCE='ANALYTIQUE',
                   RESULTAT=EVOLOS,
                   NOM_CHAM='SIEQ_NOEU',
                   NOM_CMP='TRESCA',
                   VALE_CALC=147.701866079,
                   VALE_REFE=160.0,
                   CRITERE='RELATIF',
                   PRECISION=0.10000000000000001,
                   MAILLE='M1',),
                _F(GROUP_NO='A',
                   INST=1.0,
                   REFERENCE='ANALYTIQUE',
                   RESULTAT=EVOLOS,
                   NOM_CHAM='SIEQ_NOEU',
                   NOM_CMP='PRIN_1',
                   VALE_CALC=-53.012559896,
                   VALE_REFE=-60.0,
                   CRITERE='RELATIF',
                   PRECISION=0.12,
                   MAILLE='M1',),
                _F(GROUP_NO='A',
                   INST=1.0,
                   REFERENCE='ANALYTIQUE',
                   RESULTAT=EVOLOS,
                   NOM_CHAM='SIEQ_NOEU',
                   NOM_CMP='PRIN_2',
                   VALE_CALC=20.669452600,
                   VALE_REFE=20.0,
                   CRITERE='RELATIF',
                   PRECISION=0.050000000000000003,
                   MAILLE='M1',),
                _F(GROUP_NO='A',
                   INST=1.0,
                   REFERENCE='ANALYTIQUE',
                   RESULTAT=EVOLOS,
                   NOM_CHAM='SIEQ_NOEU',
                   NOM_CMP='PRIN_3',
                   VALE_CALC=94.689306183,
                   VALE_REFE=100.0,
                   CRITERE='RELATIF',
                   PRECISION=0.059999999999999998,
                   MAILLE='M1',),
                _F(GROUP_NO='A',
                   INST=1.0,
                   REFERENCE='ANALYTIQUE',
                   RESULTAT=EVOLOS,
                   NOM_CHAM='SIEQ_NOEU',
                   NOM_CMP='VMIS_SG',
                   VALE_CALC=127.942419555,
                   VALE_REFE=138.5641,
                   CRITERE='RELATIF',
                   PRECISION=0.10000000000000001,
                   MAILLE='M1',),
                ),
          )

FIN();

#
