# ======================================================================
# COPYRIGHT (C) 1991 - 2016  EDF R&D                  WWW.CODE-ASTER.ORG
# THIS PROGRAM IS FREE SOFTWARE; YOU CAN REDISTRIBUTE IT AND/OR MODIFY
# IT UNDER THE TERMS OF THE GNU GENERAL PUBLIC LICENSE AS PUBLISHED BY
# THE FREE SOFTWARE FOUNDATION; EITHER VERSION 2 OF THE LICENSE, OR
# (AT YOUR OPTION) ANY LATER VERSION.
#
# THIS PROGRAM IS DISTRIBUTED IN THE HOPE THAT IT WILL BE USEFUL, BUT
# WITHOUT ANY WARRANTY; WITHOUT EVEN THE IMPLIED WARRANTY OF
# MERCHANTABILITY OR FITNESS FOR A PARTICULAR PURPOSE. SEE THE GNU
# GENERAL PUBLIC LICENSE FOR MORE DETAILS.
#
# YOU SHOULD HAVE RECEIVED A COPY OF THE GNU GENERAL PUBLIC LICENSE
# ALONG WITH THIS PROGRAM; IF NOT, WRITE TO EDF R&D CODE_ASTER,
#    1 AVENUE DU GENERAL DE GAULLE, 92141 CLAMART CEDEX, FRANCE.
# ======================================================================
# CAS TEST SSLV109D
# ----------------------------------------------------------------------
# CYLINDRE EN FLEXION FOURIER HARMONIQUE 1
#
# MODELISATION : ELEMENTS MECANIQUE AXIS_FOURIER(1920 QUAD4,2169 NOEUDS)
#
# MAILLAGE     : ALIBABA ==> ASTER
#
# ----------------------------------------------------------------------
# GROUPE DE MAILLES: PRES_REP : GRMA7
# GROUPE DE NOEUDS : DDL_IMPO : GRNM5
# ----------------------------------------------------------------------
#

DEBUT(CODE=_F(NIV_PUB_WEB='INTERNET'),DEBUG=_F(SDVERI='OUI'))

M=LIRE_MAILLAGE(FORMAT='MED',   )

MO=AFFE_MODELE(        MAILLAGE=M,
                                AFFE=_F(  TOUT = 'OUI',
                                       PHENOMENE = 'MECANIQUE',
                                       MODELISATION = 'AXIS_FOURIER'))

MA=DEFI_MATERIAU(          ELAS=_F(  E = 72.,
                                       NU = 0.3,
                                       RHO = 0.))

P=DEFI_FONCTION(      NOM_PARA='X',
                          VALE=(0.,0., .5,  .5, 1.,  1.,) )

U0=DEFI_CONSTANTE(    VALE=0. )

CM=AFFE_MATERIAU(      MAILLAGE=M,
                                AFFE=_F(  TOUT = 'OUI',
                                       MATER = MA))

BLOQU=AFFE_CHAR_MECA_F(       MODELE=MO,DDL_IMPO=(

                        _F(  NOEUD = 'N1',   DX = U0,  DY = U0,  DZ = U0),
                        _F(  GROUP_NO = 'GRNM5',   DY = U0)),)

CH=AFFE_CHAR_MECA_F(  MODELE=MO,PRES_REP=_F(  GROUP_MA = 'GRMA7', PRES = P))

RESU=MACRO_ELAS_MULT(      MODELE=MO,
                             CHAM_MATER=CM,
                           CHAR_MECA_GLOBAL=BLOQU,
                           CAS_CHARGE=_F(
                                 MODE_FOURIER = 1,
                                 TYPE_MODE = 'SYME',
                                 CHAR_MECA = CH,
                                 SOUS_TITRE = 'MODE FOURIER 1 SYME'
                                 )
                          )

RESU=CALC_CHAMP(reuse=RESU,RESULTAT=RESU,CONTRAINTE=('SIGM_ELNO'))



TEST_RESU(RESU=(_F(NUME_MODE=1,
                   RESULTAT=RESU,
                   NOM_CHAM='DEPL',
                   NOEUD='N1129',
                   NOM_CMP='DX',
                   VALE_CALC=2.0921676784836E-03,
                   VALE_REFE=2.0833333330000001E-3,
                   CRITERE='RELATIF',
                   REFERENCE = 'ANALYTIQUE',
                   PRECISION=1.E-2,),
                _F(NUME_MODE=1,
                   RESULTAT=RESU,
                   NOM_CHAM='DEPL',
                   NOEUD='N1129',
                   NOM_CMP='DY',
                   VALE_CALC=-4.5316262678105E-20,
                   VALE_REFE=0.0,
                   REFERENCE = 'ANALYTIQUE',
                   PRECISION=1.E-3,
                   CRITERE='ABSOLU',
                   ),
                _F(NUME_MODE=1,
                   RESULTAT=RESU,
                   NOM_CHAM='DEPL',
                   NOEUD='N1129',
                   NOM_CMP='DZ',
                   VALE_CALC=-2.0675796347341E-03,
                   VALE_REFE=-2.0833333330000001E-3,
                   CRITERE='RELATIF',
                   REFERENCE = 'ANALYTIQUE',
                   PRECISION=1.E-2,),
                _F(NUME_MODE=1,
                   RESULTAT=RESU,
                   NOM_CHAM='DEPL',
                   NOEUD='N141',
                   NOM_CMP='DX',
                   VALE_CALC=0.24983373181602,
                   VALE_REFE=0.25,
                   REFERENCE = 'ANALYTIQUE',
                   PRECISION=1.E-3,
                   CRITERE='RELATIF',
                   ),
                _F(NUME_MODE=1,
                   RESULTAT=RESU,
                   NOM_CHAM='DEPL',
                   NOEUD='N141',
                   NOM_CMP='DY',
                   VALE_CALC=4.0956402787458E-10,
                   VALE_REFE=0.0,
                   REFERENCE = 'ANALYTIQUE',
                   PRECISION=1.E-3,
                   CRITERE='ABSOLU',
                   ),
                _F(NUME_MODE=1,
                   RESULTAT=RESU,
                   NOM_CHAM='DEPL',
                   NOEUD='N141',
                   NOM_CMP='DZ',
                   VALE_CALC=0.24984691394389,
                   VALE_REFE=0.25,
                   REFERENCE = 'ANALYTIQUE',
                   PRECISION=1.E-3,
                   CRITERE='RELATIF',
                   ),
                _F(NUME_MODE=1,
                   RESULTAT=RESU,
                   NOM_CHAM='DEPL',
                   NOEUD='N705',
                   NOM_CMP='DX',
                   VALE_CALC=0.25036846870936,
                   VALE_REFE=0.25052083333300001,
                   REFERENCE = 'ANALYTIQUE',
                   PRECISION=1.E-3,
                   CRITERE='RELATIF',
                   ),
                _F(NUME_MODE=1,
                   RESULTAT=RESU,
                   NOM_CHAM='DEPL',
                   NOEUD='N705',
                   NOM_CMP='DY',
                   VALE_CALC=-0.041639694460116,
                   VALE_REFE=-0.041666666666000003,
                   REFERENCE = 'ANALYTIQUE',
                   PRECISION=1.E-3,
                   CRITERE='RELATIF',
                   ),
                _F(NUME_MODE=1,
                   RESULTAT=RESU,
                   NOM_CHAM='DEPL',
                   NOEUD='N705',
                   NOM_CMP='DZ',
                   VALE_CALC=0.24933862048076,
                   VALE_REFE=0.24947916666600001,
                   REFERENCE = 'ANALYTIQUE',
                   PRECISION=1.E-3,
                   CRITERE='RELATIF',
                   ),
                _F(NUME_MODE=1,
                   RESULTAT=RESU,
                   NOM_CHAM='DEPL',
                   NOEUD='N1269',
                   NOM_CMP='DX',
                   VALE_CALC=0.25193242452953,
                   VALE_REFE=0.25208333333299998,
                   REFERENCE = 'ANALYTIQUE',
                   PRECISION=1.E-3,
                   CRITERE='RELATIF',
                   ),
                _F(NUME_MODE=1,
                   RESULTAT=RESU,
                   NOM_CHAM='DEPL',
                   NOEUD='N1269',
                   NOM_CMP='DY',
                   VALE_CALC=-0.083280950703146,
                   VALE_REFE=-0.083333333332999998,
                   REFERENCE = 'ANALYTIQUE',
                   PRECISION=1.E-3,
                   CRITERE='RELATIF',
                   ),
                _F(NUME_MODE=1,
                   RESULTAT=RESU,
                   NOM_CHAM='DEPL',
                   NOEUD='N1269',
                   NOM_CMP='DZ',
                   VALE_CALC=0.24777314506904,
                   VALE_REFE=0.24791666666600001,
                   REFERENCE = 'ANALYTIQUE',
                   PRECISION=1.E-3,
                   CRITERE='RELATIF',
                   ),
                _F(NUME_MODE=1,
                   RESULTAT=RESU,
                   NOM_CHAM='DEPL',
                   NOEUD='N1369',
                   NOM_CMP='DX',
                   VALE_CALC=0.99929914264081,
                   VALE_REFE=1.0,
                   REFERENCE = 'ANALYTIQUE',
                   PRECISION=1.E-3,
                   CRITERE='RELATIF',
                   ),
                _F(NUME_MODE=1,
                   RESULTAT=RESU,
                   NOM_CHAM='DEPL',
                   NOEUD='N1369',
                   NOM_CMP='DY',
                   VALE_CALC=-2.2905551887247E-07,
                   VALE_REFE=0.0,
                   REFERENCE = 'ANALYTIQUE',
                   PRECISION=1.E-3,
                   CRITERE='ABSOLU',
                   ),
                _F(NUME_MODE=1,
                   RESULTAT=RESU,
                   NOM_CHAM='DEPL',
                   NOEUD='N1369',
                   NOM_CMP='DZ',
                   VALE_CALC=0.99931225539006,
                   VALE_REFE=1.0,
                   REFERENCE = 'ANALYTIQUE',
                   PRECISION=1.E-3,
                   CRITERE='RELATIF',
                   ),
                _F(NUME_MODE=1,
                   RESULTAT=RESU,
                   NOM_CHAM='DEPL',
                   NOEUD='N2169',
                   NOM_CMP='DX',
                   VALE_CALC=1.001384940937,
                   VALE_REFE=1.0020833333332999,
                   REFERENCE = 'ANALYTIQUE',
                   PRECISION=1.E-3,
                   CRITERE='RELATIF',
                   ),
                _F(NUME_MODE=1,
                   RESULTAT=RESU,
                   NOM_CHAM='DEPL',
                   NOEUD='N2169',
                   NOM_CMP='DY',
                   VALE_CALC=-0.16652382741993,
                   VALE_REFE=-0.16666666666659999,
                   REFERENCE = 'ANALYTIQUE',
                   PRECISION=1.E-3,
                   CRITERE='RELATIF',
                   ),
                _F(NUME_MODE=1,
                   RESULTAT=RESU,
                   NOM_CHAM='DEPL',
                   NOEUD='N2169',
                   NOM_CMP='DZ',
                   VALE_CALC=0.99723701327747,
                   VALE_REFE=0.99779166666660002,
                   REFERENCE = 'ANALYTIQUE',
                   PRECISION=1.E-3,
                   CRITERE='RELATIF',
                   ),
                _F(NUME_MODE=1,
                   RESULTAT=RESU,
                   NOM_CHAM='SIGM_ELNO',
                   NOEUD='N1129',
                   NOM_CMP='SIYY',
                   VALE_CALC=-1.00974353545,
                   VALE_REFE=-1.0,
                   CRITERE='RELATIF',
                   REFERENCE = 'ANALYTIQUE',
                   PRECISION=1.E-2,
                   MAILLE='M981',),
                _F(NUME_MODE=1,
                   RESULTAT=RESU,
                   NOM_CHAM='SIGM_ELNO',
                   NOEUD='N141',
                   NOM_CMP='SIYY',
                   VALE_CALC=9.0437721660827E-03,
                   VALE_REFE=0.0,
                   CRITERE='ABSOLU',
                   REFERENCE = 'ANALYTIQUE',
                   PRECISION=1.E-2,
                   MAILLE='M140',),
                _F(NUME_MODE=1,
                   RESULTAT=RESU,
                   NOM_CHAM='SIGM_ELNO',
                   NOEUD='N705',
                   NOM_CMP='SIYY',
                   VALE_CALC=-0.51005084423834,
                   VALE_REFE=-0.5,
                   CRITERE='RELATIF',
                   REFERENCE = 'ANALYTIQUE',
                   PRECISION=0.029999999999999999,
                   MAILLE='M560',),
                _F(NUME_MODE=1,
                   RESULTAT=RESU,
                   NOM_CHAM='SIGM_ELNO',
                   NOEUD='N1269',
                   NOM_CMP='SIYY',
                   VALE_CALC=-1.010342794294,
                   VALE_REFE=-1.0,
                   CRITERE='RELATIF',
                   REFERENCE = 'ANALYTIQUE',
                   PRECISION=0.029999999999999999,
                   MAILLE='M1120',),
                _F(NUME_MODE=1,
                   RESULTAT=RESU,
                   NOM_CHAM='SIGM_ELNO',
                   NOEUD='N1369',
                   NOM_CMP='SIYY',
                   VALE_CALC=8.8501582786895E-03,
                   VALE_REFE=0.0,
                   CRITERE='ABSOLU',
                   REFERENCE = 'ANALYTIQUE',
                   PRECISION=1.E-2,
                   MAILLE='M1220',),
                _F(NUME_MODE=1,
                   RESULTAT=RESU,
                   NOM_CHAM='SIGM_ELNO',
                   NOEUD='N2169',
                   NOM_CMP='SIYY',
                   VALE_CALC=-1.0027391779831,
                   VALE_REFE=-1.0,
                   CRITERE='RELATIF',
                   REFERENCE = 'ANALYTIQUE',
                   PRECISION=1.E-2,
                   MAILLE='M1920',),
                ),
          )

FIN()
#
