# MODIF  DATE 10/10/2012   AUTEUR COURTOIS M.COURTOIS 
# TITRE POUTRE EN ROTATION EN 2D
# sslv104d.para = tps_job 60 mem_job 256Mo ncpus 1 liste_test S
#            CONFIGURATION MANAGEMENT OF EDF VERSION
# ======================================================================
# COPYRIGHT (C) 1991 - 2012  EDF R&D                  WWW.CODE-ASTER.ORG
# THIS PROGRAM IS FREE SOFTWARE; YOU CAN REDISTRIBUTE IT AND/OR MODIFY  
# IT UNDER THE TERMS OF THE GNU GENERAL PUBLIC LICENSE AS PUBLISHED BY  
# THE FREE SOFTWARE FOUNDATION; EITHER VERSION 2 OF THE LICENSE, OR     
# (AT YOUR OPTION) ANY LATER VERSION.                                                    
#                                                                       
# THIS PROGRAM IS DISTRIBUTED IN THE HOPE THAT IT WILL BE USEFUL, BUT   
# WITHOUT ANY WARRANTY; WITHOUT EVEN THE IMPLIED WARRANTY OF            
# MERCHANTABILITY OR FITNESS FOR A PARTICULAR PURPOSE. SEE THE GNU      
# GENERAL PUBLIC LICENSE FOR MORE DETAILS.                              
#                                                                       
# YOU SHOULD HAVE RECEIVED A COPY OF THE GNU GENERAL PUBLIC LICENSE     
# ALONG WITH THIS PROGRAM; IF NOT, WRITE TO EDF R&D CODE_ASTER,         
#    1 AVENUE DU GENERAL DE GAULLE, 92141 CLAMART CEDEX, FRANCE.        
# ======================================================================
DEBUT(CODE=_F(NOM='SSLV104D',NIV_PUB_WEB='INTERNET'),DEBUG=_F(SDVERI='OUI'))

MAILET=LIRE_MAILLAGE(FORMAT='MED',UNITE=20,);

MAILET=DEFI_GROUP(reuse =MAILET,
                  MAILLAGE=MAILET,
                  CREA_GROUP_NO=_F(GROUP_MA='AB',
                                   NOM='AB',),);

#

MODELE=AFFE_MODELE(MAILLAGE=MAILET,
                   AFFE=_F(TOUT='OUI',
                           PHENOMENE='MECANIQUE',
                           MODELISATION='D_PLAN',),);

#

MATER=DEFI_MATERIAU(ELAS=_F(E=2.0E11,
                            NU=0.0,
                            RHO=7800.0,),);

#

CHAMPMAT=AFFE_MATERIAU(MAILLAGE=MAILET,
                       AFFE=_F(TOUT='OUI',
                               MATER=MATER,),);

#

CHARGE=AFFE_CHAR_MECA(MODELE=MODELE,
                      ROTATION=_F(VITESSE = 3000.,
                                  AXE= (0.,0.,1.,),
                                  CENTRE=(10.,10.,0.),),
                      DDL_IMPO=_F(GROUP_NO='AB',
                                  DX=0.,
                                  DY=0.,),);

#

RIGIELEM=CALC_MATR_ELEM(OPTION='RIGI_MECA',
                        MODELE=MODELE,
                        CHAM_MATER=CHAMPMAT,
                        CHARGE=CHARGE,);

#

INELEM=CALC_VECT_ELEM(OPTION='CHAR_MECA',
                      CHARGE=CHARGE,
                      CHAM_MATER=CHAMPMAT,);

#

NUMEROTA=NUME_DDL(MATR_RIGI=RIGIELEM,);

#

ELAS=ASSE_MATRICE(MATR_ELEM=RIGIELEM,
                  NUME_DDL=NUMEROTA,);

#

INERTIE=ASSE_VECTEUR(VECT_ELEM=INELEM,
                     NUME_DDL=NUMEROTA,);

#

ELAS=FACTORISER(reuse =ELAS,
                MATR_ASSE=ELAS,);

#

DEP1=RESOUDRE(MATR=ELAS,
              CHAM_NO=INERTIE,);

#

TEST_RESU(CHAM_NO=(_F(REFERENCE='ANALYTIQUE',
                      NOM_CMP='DX',
                      GROUP_NO='P',
                      PRECISION=1.E-3,
                      
                      CHAM_GD=DEP1,
                      VALE_CALC=0.010341436,
                      VALE_REFE=0.010341446000000001,),
                   _F(REFERENCE='ANALYTIQUE',
                      NOM_CMP='DY',
                      GROUP_NO='P',
                      PRECISION=1.E-3,
                      
                      CHAM_GD=DEP1,
                      VALE_CALC=0.010341436,
                      VALE_REFE=0.010341446000000001,),
                   ),
          )

FIN();

#
