# MODIF  DATE 14/12/2010   AUTEUR PROIX J-M.PROIX 
# TITRE ETIREMENT D'UN PARALLELEPIPEDE ORTHOTROPE SOUS SON PROPRE POIDS
# sslv120a.para = tps_job 60 mem_job 128Mo ncpus 1 liste_test R
#            CONFIGURATION MANAGEMENT OF EDF VERSION
# ======================================================================
# COPYRIGHT (C) 1991 - 2010  EDF R&D                  WWW.CODE-ASTER.ORG
# THIS PROGRAM IS FREE SOFTWARE; YOU CAN REDISTRIBUTE IT AND/OR MODIFY
# IT UNDER THE TERMS OF THE GNU GENERAL PUBLIC LICENSE AS PUBLISHED BY
# THE FREE SOFTWARE FOUNDATION; EITHER VERSION 2 OF THE LICENSE, OR
# (AT YOUR OPTION) ANY LATER VERSION.
#
# THIS PROGRAM IS DISTRIBUTED IN THE HOPE THAT IT WILL BE USEFUL, BUT
# WITHOUT ANY WARRANTY; WITHOUT EVEN THE IMPLIED WARRANTY OF
# MERCHANTABILITY OR FITNESS FOR A PARTICULAR PURPOSE. SEE THE GNU
# GENERAL PUBLIC LICENSE FOR MORE DETAILS.
#
# YOU SHOULD HAVE RECEIVED A COPY OF THE GNU GENERAL PUBLIC LICENSE
# ALONG WITH THIS PROGRAM; IF NOT, WRITE TO EDF R&D CODE_ASTER,
#    1 AVENUE DU GENERAL DE GAULLE, 92141 CLAMART CEDEX, FRANCE.
# ======================================================================

DEBUT(   CODE=_F(  NOM = 'SSLV120A',NIV_PUB_WEB='INTERNET'),DEBUG=_F(SDVERI='OUI'))

MA=LIRE_MAILLAGE(  )

MO=AFFE_MODELE(  MAILLAGE=MA,
       AFFE=_F(  TOUT = 'OUI',PHENOMENE = 'MECANIQUE',MODELISATION = '3D') )

MAT1=DEFI_MATERIAU( ELAS=_F(  E = 2.0E+11,  NU = 0.3,  RHO = 7800.,
                            ALPHA = 0.)  )

MAT=DEFI_MATERIAU( ELAS_ORTH=_F(  E_L = 5.0E+11,
                                E_T = 5.0E+11,
                                E_N = 2.0E+11,
                                NU_LT = 0.1,
                                NU_LN = 0.3,
                               NU_TN = 0.1,
                               G_LT = 76923.1E+6,
                            G_LN = 76923.1E+6,
                            G_TN = 76923.1E+6,
                            RHO = 7800.,
                            ALPHA_L = 0.,
                            ALPHA_N = 0.,
                            ALPHA_T = 0.)  )


CHMAT=AFFE_MATERIAU(  MAILLAGE=MA,
                       AFFE=_F(  TOUT = 'OUI',  MATER = MAT) )

# ------------------------------------------------------------------
#    --- STRUCTURE SUSPENDUE //Z EN A + PAS DE ROTATION

CH=AFFE_CHAR_MECA(  MODELE=MO,
       PESANTEUR=_F(GRAVITE=9.81,
                    DIRECTION=(0.,  0.,   -1., ),),
#      PRES_REP:( GROUP_MA: FACESUP       PRES: -229553.   )
       FORCE_FACE=_F(  GROUP_MA = 'FACESUP',       FZ = 229553.),DDL_IMPO=(
       _F(  GROUP_NO = 'A',   DX = 0.,   DY = 0.,   DZ = 0.),
                _F(  GROUP_NO = 'D',             DY = 0.),
                _F(  GROUP_NO = 'ABSANSA',      DX = 0.,   DY = 0.)) )

# ------------------------------------------------------------------

RESU=MECA_STATIQUE(MODELE=MO,
                   CHAM_MATER=CHMAT,
                   EXCIT=_F(CHARGE=CH,),
                   );




RESU=CALC_ELEM( reuse= RESU ,RESULTAT= RESU ,
               OPTION=('SIGM_ELNO_DEPL'),
                )

TEST_RESU(RESU=(
     # B
            _F(  RESULTAT = RESU, NUME_ORDRE=1, NOM_CHAM='DEPL',
              CRITERE = 'ABSOLU',   PRECISION = 1.E-10,
              NOEUD = 'N53',      NOM_CMP = 'DX',           REFERENCE='ANALYTIQUE', VALE = 0.),
            _F(  RESULTAT = RESU, NUME_ORDRE=1, NOM_CHAM='DEPL',
              CRITERE = 'ABSOLU',   PRECISION = 1.E-10,
              NOEUD = 'N53',      NOM_CMP = 'DY',           REFERENCE='ANALYTIQUE', VALE = 0.),
            _F(  RESULTAT = RESU, NUME_ORDRE=1, NOM_CHAM='DEPL',
              CRITERE = 'RELATIF',  PRECISION = 1.E-3,
              NOEUD = 'N53',      NOM_CMP = 'DZ',          REFERENCE='ANALYTIQUE', VALE = -1.721655E-6),
     # C
            _F(  RESULTAT = RESU, NUME_ORDRE=1, NOM_CHAM='DEPL',
              CRITERE = 'ABSOLU',   PRECISION = 1.E-10,
              NOEUD = 'N12',      NOM_CMP = 'DX',           REFERENCE='ANALYTIQUE', VALE = 0.),
            _F(  RESULTAT = RESU, NUME_ORDRE=1, NOM_CHAM='DEPL',
              CRITERE = 'ABSOLU',   PRECISION = 1.E-10,
              NOEUD = 'N12',      NOM_CMP = 'DY',           REFERENCE='ANALYTIQUE', VALE = 0.),
            _F(  RESULTAT = RESU, NUME_ORDRE=1, NOM_CHAM='DEPL',
              CRITERE = 'RELATIF',  PRECISION = 1.E-3,
              NOEUD = 'N12',      NOM_CMP = 'DZ',           REFERENCE='ANALYTIQUE', VALE = -1.715916E-6),
     # D
            _F(  RESULTAT = RESU, NUME_ORDRE=1, NOM_CHAM='DEPL',
              CRITERE = 'RELATIF',  PRECISION = 1.E-3,
              NOEUD = 'N18',      NOM_CMP = 'DX',           REFERENCE='ANALYTIQUE', VALE = -6.88662E-8),
            _F(  RESULTAT = RESU, NUME_ORDRE=1, NOM_CHAM='DEPL',
              CRITERE = 'ABSOLU',   PRECISION = 1.E-10,
              NOEUD = 'N18',      NOM_CMP = 'DY',           REFERENCE='ANALYTIQUE', VALE = 0.),
            _F(  RESULTAT = RESU, NUME_ORDRE=1, NOM_CHAM='DEPL',
              CRITERE = 'RELATIF',  PRECISION = 5.E-3,
              NOEUD = 'N18',      NOM_CMP = 'DZ',           REFERENCE='ANALYTIQUE', VALE = 5.73885E-9),
     # E
            _F(  RESULTAT = RESU, NUME_ORDRE=1, NOM_CHAM='DEPL',
              CRITERE = 'ABSOLU',   PRECISION = 1.E-10,
              NOEUD = 'N56',      NOM_CMP = 'DX',           REFERENCE='ANALYTIQUE', VALE = 0.),
            _F(  RESULTAT = RESU, NUME_ORDRE=1, NOM_CHAM='DEPL',
              CRITERE = 'ABSOLU',   PRECISION = 1.E-10,
              NOEUD = 'N56',      NOM_CMP = 'DY',           REFERENCE='ANALYTIQUE', VALE = 0.),
            _F(  RESULTAT = RESU, NUME_ORDRE=1, NOM_CHAM='DEPL',
              CRITERE = 'RELATIF',  PRECISION = 1.E-3,
              NOEUD = 'N56',      NOM_CMP = 'DZ',           REFERENCE='ANALYTIQUE', VALE = -1.29124125E-6),
     # X
            _F(  RESULTAT = RESU, NUME_ORDRE=1, NOM_CHAM='DEPL',
              CRITERE = 'ABSOLU',   PRECISION = 1.E-10,
              NOEUD = 'N70',      NOM_CMP = 'DX',           REFERENCE='ANALYTIQUE', VALE = 0.),
            _F(  RESULTAT = RESU, NUME_ORDRE=1, NOM_CHAM='DEPL',
              CRITERE = 'ABSOLU',   PRECISION = 1.E-10,
              NOEUD = 'N70',      NOM_CMP = 'DY',           REFERENCE='ANALYTIQUE', VALE = -2.29554E-8),
            _F(  RESULTAT = RESU, NUME_ORDRE=1, NOM_CHAM='DEPL',
              CRITERE = 'RELATIF',  PRECISION = 1.5E-2,
              NOEUD = 'N70',      NOM_CMP = 'DZ',           REFERENCE='ANALYTIQUE', VALE = 1.91295E-9),
     # CONTRAINTES EN A , E ET X

            _F(  RESULTAT = RESU, NUME_ORDRE=1, NOM_CHAM='SIGM_ELNO_DEPL',
              CRITERE = 'RELATIF',  PRECISION = 1.E-3, MAILLE = 'HEX3',
              NOEUD = 'N59',   NOM_CMP = 'SIZZ', REFERENCE='ANALYTIQUE', VALE = 2.29554E5),

            _F(  RESULTAT = RESU, NUME_ORDRE=1, NOM_CHAM='SIGM_ELNO_DEPL',
              CRITERE = 'RELATIF',   PRECISION = 1.E-3, MAILLE = 'HEX2',
              NOEUD = 'N56',   NOM_CMP = 'SIZZ',          REFERENCE='ANALYTIQUE', VALE = 1.14777E5),

            _F(  RESULTAT = RESU, NUME_ORDRE=1, NOM_CHAM='SIGM_ELNO_DEPL',
              CRITERE = 'RELATIF',   PRECISION = 1.E-3, MAILLE = 'HEX6',
              NOEUD = 'N70',   NOM_CMP = 'SIZZ',          REFERENCE='ANALYTIQUE', VALE = 2.29554E5))
              )


#################################################################
# stat_non_line ELAS, angle 0
#################################################################

LINST=DEFI_LIST_REEL(DEBUT=0.0,
                     INTERVALLE=(_F(JUSQU_A=1,
                                    NOMBRE=1,),),);


COEF=DEFI_FONCTION(NOM_PARA='INST',
                   VALE=(0.0,0.0,1.0,1.0,),
                   PROL_DROITE='LINEAIRE',
                   PROL_GAUCHE='LINEAIRE',);

RESUNL0=STAT_NON_LINE(MODELE=MO,
                     CHAM_MATER=CHMAT,
                     EXCIT=_F(CHARGE=CH,
                               FONC_MULT=COEF,
                     ),
                     COMP_INCR=(_F(RELATION='ELAS',
                                   TOUT='OUI',),),
                     INCREMENT=(_F(LIST_INST=LINST,),),
                                     );

RESUNL0=CALC_ELEM( reuse= RESUNL0 ,RESULTAT= RESUNL0 ,
               OPTION=('SIEF_ELNO_ELGA',),
                )

#
#---------------------------------------------------------------------

TEST_RESU(RESU=(
     # B
            _F(  RESULTAT = RESUNL0, NUME_ORDRE=1, NOM_CHAM='DEPL',
              CRITERE = 'ABSOLU',   PRECISION = 1.E-10,
              NOEUD = 'N53',      NOM_CMP = 'DX',           REFERENCE='ANALYTIQUE', VALE = 0.),
            _F(  RESULTAT = RESUNL0, NUME_ORDRE=1, NOM_CHAM='DEPL',
              CRITERE = 'ABSOLU',   PRECISION = 1.E-10,
              NOEUD = 'N53',      NOM_CMP = 'DY',           REFERENCE='ANALYTIQUE', VALE = 0.),
            _F(  RESULTAT = RESUNL0, NUME_ORDRE=1, NOM_CHAM='DEPL',
              CRITERE = 'RELATIF',  PRECISION = 1.E-3,
              NOEUD = 'N53',      NOM_CMP = 'DZ',          REFERENCE='ANALYTIQUE', VALE = -1.721655E-6),
     # C
            _F(  RESULTAT = RESUNL0, NUME_ORDRE=1, NOM_CHAM='DEPL',
              CRITERE = 'ABSOLU',   PRECISION = 1.E-10,
              NOEUD = 'N12',      NOM_CMP = 'DX',           REFERENCE='ANALYTIQUE', VALE = 0.),
            _F(  RESULTAT = RESUNL0, NUME_ORDRE=1, NOM_CHAM='DEPL',
              CRITERE = 'ABSOLU',   PRECISION = 1.E-10,
              NOEUD = 'N12',      NOM_CMP = 'DY',           REFERENCE='ANALYTIQUE', VALE = 0.),
            _F(  RESULTAT = RESUNL0, NUME_ORDRE=1, NOM_CHAM='DEPL',
              CRITERE = 'RELATIF',  PRECISION = 1.E-3,
              NOEUD = 'N12',      NOM_CMP = 'DZ',           REFERENCE='ANALYTIQUE', VALE = -1.715916E-6),
     # D
            _F(  RESULTAT = RESUNL0, NUME_ORDRE=1, NOM_CHAM='DEPL',
              CRITERE = 'RELATIF',  PRECISION = 1.E-3,
              NOEUD = 'N18',      NOM_CMP = 'DX',           REFERENCE='ANALYTIQUE', VALE = -6.88662E-8),
            _F(  RESULTAT = RESUNL0, NUME_ORDRE=1, NOM_CHAM='DEPL',
              CRITERE = 'ABSOLU',   PRECISION = 1.E-10,
              NOEUD = 'N18',      NOM_CMP = 'DY',           REFERENCE='ANALYTIQUE', VALE = 0.),
            _F(  RESULTAT = RESUNL0, NUME_ORDRE=1, NOM_CHAM='DEPL',
              CRITERE = 'RELATIF',  PRECISION = 7.E-3,
              NOEUD = 'N18',      NOM_CMP = 'DZ',           REFERENCE='ANALYTIQUE', VALE = 5.73885E-9),
     # E
            _F(  RESULTAT = RESUNL0, NUME_ORDRE=1, NOM_CHAM='DEPL',
              CRITERE = 'ABSOLU',   PRECISION = 1.E-10,
              NOEUD = 'N56',      NOM_CMP = 'DX',           REFERENCE='ANALYTIQUE', VALE = 0.),
            _F(  RESULTAT = RESUNL0, NUME_ORDRE=1, NOM_CHAM='DEPL',
              CRITERE = 'ABSOLU',   PRECISION = 1.E-10,
              NOEUD = 'N56',      NOM_CMP = 'DY',           REFERENCE='ANALYTIQUE', VALE = 0.),
            _F(  RESULTAT = RESUNL0, NUME_ORDRE=1, NOM_CHAM='DEPL',
              CRITERE = 'RELATIF',  PRECISION = 1.E-3,
              NOEUD = 'N56',      NOM_CMP = 'DZ',           REFERENCE='ANALYTIQUE', VALE = -1.29124125E-6),
     # X
            _F(  RESULTAT = RESUNL0, NUME_ORDRE=1, NOM_CHAM='DEPL',
              CRITERE = 'ABSOLU',   PRECISION = 1.E-10,
              NOEUD = 'N70',      NOM_CMP = 'DX',           REFERENCE='ANALYTIQUE', VALE = 0.),
            _F(  RESULTAT = RESUNL0, NUME_ORDRE=1, NOM_CHAM='DEPL',
              CRITERE = 'ABSOLU',   PRECISION = 1.E-10,
              NOEUD = 'N70',      NOM_CMP = 'DY',           REFERENCE='ANALYTIQUE', VALE = -2.29554E-8),
            _F(  RESULTAT = RESUNL0, NUME_ORDRE=1, NOM_CHAM='DEPL',
              CRITERE = 'RELATIF',  PRECISION = 2E-2,
              NOEUD = 'N70',      NOM_CMP = 'DZ',           REFERENCE='ANALYTIQUE', VALE = 1.91295E-9),
     # CONTRAINTES EN A , E ET X

            _F(  RESULTAT = RESUNL0, NUME_ORDRE=1, NOM_CHAM='SIEF_ELNO_ELGA',
              CRITERE = 'RELATIF',  PRECISION = 1.E-3, MAILLE = 'HEX3',
              NOEUD = 'N59',   NOM_CMP = 'SIZZ', REFERENCE='ANALYTIQUE', VALE = 2.29554E5),

            _F(  RESULTAT = RESUNL0, NUME_ORDRE=1, NOM_CHAM='SIEF_ELNO_ELGA',
              CRITERE = 'RELATIF',   PRECISION = 1.E-3, MAILLE = 'HEX2',
              NOEUD = 'N56',   NOM_CMP = 'SIZZ',          REFERENCE='ANALYTIQUE', VALE = 1.14777E5),

            _F(  RESULTAT = RESUNL0, NUME_ORDRE=1, NOM_CHAM='SIEF_ELNO_ELGA',
              CRITERE = 'RELATIF',   PRECISION = 1.E-3, MAILLE = 'HEX6',
              NOEUD = 'N70',   NOM_CMP = 'SIZZ',          REFERENCE='ANALYTIQUE', VALE = 2.29554E5))
              )



#################################################################
# monocristal implicite angle 0
#################################################################

MAT2B=DEFI_MATERIAU( ELAS_ORTH=_F(  E_L = 5.0E+11,
                                E_T = 5.0E+11,
                                E_N = 2.0E+11,
                                NU_LT = 0.1,
                                NU_LN = 0.3,
                                NU_TN = 0.1,
                                G_LT = 76923.1E+6,
                                G_LN = 76923.1E+6,
                                G_TN = 76923.1E+6,
                                RHO = 7800.,
                                ALPHA_L = 0.,
                                ALPHA_N = 0.,
                                ALPHA_T = 0.) ,

                    MONO_VISC1=_F(N=0.0,
                                  K=1.E11,
                                  C=0.0,
                                  ),

                    MONO_ISOT1=_F(R_0=1.E11,
                                  Q=0.,
                                  B=0.,
                                  H=0.0,),

                    MONO_CINE1=_F(D=0.,),

                                  );


CHMAT2B=AFFE_MATERIAU(  MAILLAGE=MA,
                       AFFE=_F(  TOUT = 'OUI',
                        MATER = MAT2B
                        ) )

MAT2=DEFI_MATERIAU( MATER=MAT,

                    MONO_VISC1=_F(N=10.0,
                                  K=100.,
                                  C=0.0,
                                  ),

                    MONO_ISOT1=_F(R_0=1.E10,
                                  Q=0.,
                                  B=1.,
                                  H=0.0,),

                    MONO_CINE1=_F(D=0.,),

                                  );


CHMAT2=AFFE_MATERIAU(  MAILLAGE=MA,
                       AFFE=_F(  TOUT = 'OUI',
                        MATER = MAT2
                        ) )
                        
COMPOR2=DEFI_COMPOR(MONOCRISTAL=(_F(
                                    MATER=MAT2,
                                    ECOULEMENT='MONO_VISC1',
                                    ECRO_ISOT='MONO_ISOT1',
                                    ECRO_CINE='MONO_CINE1',
                                    ELAS='ELAS_ORTH',
                                    FAMI_SYST_GLIS='UNIAXIAL',
                                    ),),);
RESUMM0=STAT_NON_LINE(MODELE=MO,
                     CHAM_MATER=CHMAT2,
                     EXCIT=_F(CHARGE=CH,
                               FONC_MULT=COEF,
                     ),
                     COMP_INCR=(_F(RELATION='MONOCRISTAL',
                                   COMPOR=COMPOR2,
                                   TOUT='OUI',),),
                     INCREMENT=(_F(LIST_INST=LINST,),),
                                     );

RESUMM0=CALC_ELEM( reuse= RESUMM0 ,RESULTAT= RESUMM0 ,
               OPTION=('SIEF_ELNO_ELGA',),
                )

#
#---------------------------------------------------------------------

TEST_RESU(RESU=(
     # B
            _F(  RESULTAT = RESUMM0, NUME_ORDRE=1, NOM_CHAM='DEPL',
              CRITERE = 'ABSOLU',   PRECISION = 1.E-10,
              NOEUD = 'N53',      NOM_CMP = 'DX',           REFERENCE='ANALYTIQUE', VALE = 0.),
            _F(  RESULTAT = RESUMM0, NUME_ORDRE=1, NOM_CHAM='DEPL',
              CRITERE = 'ABSOLU',   PRECISION = 1.E-10,
              NOEUD = 'N53',      NOM_CMP = 'DY',           REFERENCE='ANALYTIQUE', VALE = 0.),
            _F(  RESULTAT = RESUMM0, NUME_ORDRE=1, NOM_CHAM='DEPL',
              CRITERE = 'RELATIF',  PRECISION = 1.E-3,
              NOEUD = 'N53',      NOM_CMP = 'DZ',          REFERENCE='ANALYTIQUE', VALE = -1.721655E-6),
     # C
            _F(  RESULTAT = RESUMM0, NUME_ORDRE=1, NOM_CHAM='DEPL',
              CRITERE = 'ABSOLU',   PRECISION = 1.E-10,
              NOEUD = 'N12',      NOM_CMP = 'DX',           REFERENCE='ANALYTIQUE', VALE = 0.),
            _F(  RESULTAT = RESUMM0, NUME_ORDRE=1, NOM_CHAM='DEPL',
              CRITERE = 'ABSOLU',   PRECISION = 1.E-10,
              NOEUD = 'N12',      NOM_CMP = 'DY',           REFERENCE='ANALYTIQUE', VALE = 0.),
            _F(  RESULTAT = RESUMM0, NUME_ORDRE=1, NOM_CHAM='DEPL',
              CRITERE = 'RELATIF',  PRECISION = 1.E-3,
              NOEUD = 'N12',      NOM_CMP = 'DZ',           REFERENCE='ANALYTIQUE', VALE = -1.715916E-6),
     # D
            _F(  RESULTAT = RESUMM0, NUME_ORDRE=1, NOM_CHAM='DEPL',
              CRITERE = 'RELATIF',  PRECISION = 1.E-3,
              NOEUD = 'N18',      NOM_CMP = 'DX',           REFERENCE='ANALYTIQUE', VALE = -6.88662E-8),
            _F(  RESULTAT = RESUMM0, NUME_ORDRE=1, NOM_CHAM='DEPL',
              CRITERE = 'ABSOLU',   PRECISION = 1.E-10,
              NOEUD = 'N18',      NOM_CMP = 'DY',           REFERENCE='ANALYTIQUE', VALE = 0.),
            _F(  RESULTAT = RESUMM0, NUME_ORDRE=1, NOM_CHAM='DEPL',
              CRITERE = 'RELATIF',  PRECISION = 7.E-3,
              NOEUD = 'N18',      NOM_CMP = 'DZ',           REFERENCE='ANALYTIQUE', VALE = 5.73885E-9),
     # E
            _F(  RESULTAT = RESUMM0, NUME_ORDRE=1, NOM_CHAM='DEPL',
              CRITERE = 'ABSOLU',   PRECISION = 1.E-10,
              NOEUD = 'N56',      NOM_CMP = 'DX',           REFERENCE='ANALYTIQUE', VALE = 0.),
            _F(  RESULTAT = RESUMM0, NUME_ORDRE=1, NOM_CHAM='DEPL',
              CRITERE = 'ABSOLU',   PRECISION = 1.E-10,
              NOEUD = 'N56',      NOM_CMP = 'DY',           REFERENCE='ANALYTIQUE', VALE = 0.),
            _F(  RESULTAT = RESUMM0, NUME_ORDRE=1, NOM_CHAM='DEPL',
              CRITERE = 'RELATIF',  PRECISION = 1.E-3,
              NOEUD = 'N56',      NOM_CMP = 'DZ',           REFERENCE='ANALYTIQUE', VALE = -1.29124125E-6),
     # X
            _F(  RESULTAT = RESUMM0, NUME_ORDRE=1, NOM_CHAM='DEPL',
              CRITERE = 'ABSOLU',   PRECISION = 1.E-10,
              NOEUD = 'N70',      NOM_CMP = 'DX',           REFERENCE='ANALYTIQUE', VALE = 0.),
            _F(  RESULTAT = RESUMM0, NUME_ORDRE=1, NOM_CHAM='DEPL',
              CRITERE = 'ABSOLU',   PRECISION = 1.E-10,
              NOEUD = 'N70',      NOM_CMP = 'DY',           REFERENCE='ANALYTIQUE', VALE = -2.29554E-8),
            _F(  RESULTAT = RESUMM0, NUME_ORDRE=1, NOM_CHAM='DEPL',
              CRITERE = 'RELATIF',  PRECISION = 2E-2,
              NOEUD = 'N70',      NOM_CMP = 'DZ',           REFERENCE='ANALYTIQUE', VALE = 1.91295E-9),
     # CONTRAINTES EN A , E ET X

            _F(  RESULTAT = RESUMM0, NUME_ORDRE=1, NOM_CHAM='SIEF_ELNO_ELGA',
              CRITERE = 'RELATIF',  PRECISION = 1.E-3, MAILLE = 'HEX3',
              NOEUD = 'N59',   NOM_CMP = 'SIZZ', REFERENCE='ANALYTIQUE', VALE = 2.29554E5),

            _F(  RESULTAT = RESUMM0, NUME_ORDRE=1, NOM_CHAM='SIEF_ELNO_ELGA',
              CRITERE = 'RELATIF',   PRECISION = 1.E-3, MAILLE = 'HEX2',
              NOEUD = 'N56',   NOM_CMP = 'SIZZ',          REFERENCE='ANALYTIQUE', VALE = 1.14777E5),

            _F(  RESULTAT = RESUMM0, NUME_ORDRE=1, NOM_CHAM='SIEF_ELNO_ELGA',
              CRITERE = 'RELATIF',   PRECISION = 1.E-3, MAILLE = 'HEX6',
              NOEUD = 'N70',   NOM_CMP = 'SIZZ',          REFERENCE='ANALYTIQUE', VALE = 2.29554E5))
              )




#################################################################
# angles differenets de zero : test de non regressison et inter_comparaison.
# meca_statique
#################################################################



DEFI_GROUP( reuse=MA,MAILLAGE=MA,
  CREA_GROUP_MA=_F(  NOM = 'TOUT', TOUT = 'OUI'))
  
  
ORIEN=AFFE_CARA_ELEM(MODELE=MO,
                     MASSIF=_F(GROUP_MA='TOUT',
                               ANGL_REP=(30.0,50.0,70.0,),),);


RESUEL1=MECA_STATIQUE(MODELE=MO,
                    CARA_ELEM=ORIEN,
                   CHAM_MATER=CHMAT,
                   EXCIT=_F(CHARGE=CH,),
                   );

RESUEL1=CALC_ELEM( reuse= RESUEL1 ,RESULTAT= RESUEL1 ,
               OPTION=('SIEF_ELNO_ELGA',),
                )

#
#---------------------------------------------------------------------

TEST_RESU(RESU=(
     # B
            _F(  RESULTAT = RESUEL1, NUME_ORDRE=1, NOM_CHAM='DEPL',
              CRITERE = 'ABSOLU',   PRECISION = 1.E-10,
              NOEUD = 'N53',      NOM_CMP = 'DX',           REFERENCE='NON_REGRESSION', VALE = 0.),
            _F(  RESULTAT = RESUEL1, NUME_ORDRE=1, NOM_CHAM='DEPL',
              CRITERE = 'ABSOLU',   PRECISION = 1.E-10,
              NOEUD = 'N53',      NOM_CMP = 'DY',           REFERENCE='NON_REGRESSION', VALE = 0.),
            _F(  RESULTAT = RESUEL1, NUME_ORDRE=1, NOM_CHAM='DEPL',
              NOEUD = 'N53',      NOM_CMP = 'DZ',          REFERENCE='NON_REGRESSION', VALE = -1.45348E-06),
     # C
            _F(  RESULTAT = RESUEL1, NUME_ORDRE=1, NOM_CHAM='DEPL',
              NOEUD = 'N12',      NOM_CMP = 'DX',           REFERENCE='NON_REGRESSION', VALE = 2.1298816E-08),
            _F(  RESULTAT = RESUEL1, NUME_ORDRE=1, NOM_CHAM='DEPL',
              NOEUD = 'N12',      NOM_CMP = 'DY',           REFERENCE='NON_REGRESSION', VALE = 9.0016976E-08),
            _F(  RESULTAT = RESUEL1, NUME_ORDRE=1, NOM_CHAM='DEPL',
              NOEUD = 'N12',      NOM_CMP = 'DZ',           REFERENCE='NON_REGRESSION', VALE = -1.4039682E-06),
     # D
            _F(  RESULTAT = RESUEL1, NUME_ORDRE=1, NOM_CHAM='DEPL',
              NOEUD = 'N18',      NOM_CMP = 'DX',           REFERENCE='NON_REGRESSION', VALE = -1.4805414E-07),
            _F(  RESULTAT = RESUEL1, NUME_ORDRE=1, NOM_CHAM='DEPL',
              CRITERE = 'ABSOLU',   PRECISION = 1.E-10,
              NOEUD = 'N18',      NOM_CMP = 'DY',           REFERENCE='NON_REGRESSION', VALE = 0.),
            _F(  RESULTAT = RESUEL1, NUME_ORDRE=1, NOM_CHAM='DEPL',
              NOEUD = 'N18',      NOM_CMP = 'DZ',           REFERENCE='NON_REGRESSION', VALE = 1.226902688E-07),
     # E
            _F(  RESULTAT = RESUEL1, NUME_ORDRE=1, NOM_CHAM='DEPL',
              CRITERE = 'ABSOLU',   PRECISION = 1.E-10,
              NOEUD = 'N56',      NOM_CMP = 'DX',           REFERENCE='NON_REGRESSION', VALE = 0.),
            _F(  RESULTAT = RESUEL1, NUME_ORDRE=1, NOM_CHAM='DEPL',
              CRITERE = 'ABSOLU',   PRECISION = 1.E-10,
              NOEUD = 'N56',      NOM_CMP = 'DY',           REFERENCE='NON_REGRESSION', VALE = 0.),
            _F(  RESULTAT = RESUEL1, NUME_ORDRE=1, NOM_CHAM='DEPL',
              CRITERE = 'RELATIF',  PRECISION = 1.E-3,
              NOEUD = 'N56',      NOM_CMP = 'DZ',           REFERENCE='NON_REGRESSION', VALE = -1.0881888E-6),
     # X
            _F(  RESULTAT = RESUEL1, NUME_ORDRE=1, NOM_CHAM='DEPL',
              NOEUD = 'N70',      NOM_CMP = 'DX',           REFERENCE='NON_REGRESSION', VALE = -1.5456629E-07),
            _F(  RESULTAT = RESUEL1, NUME_ORDRE=1, NOM_CHAM='DEPL',
              NOEUD = 'N70',      NOM_CMP = 'DY',           REFERENCE='NON_REGRESSION', VALE = -1.46741969E-07),
            _F(  RESULTAT = RESUEL1, NUME_ORDRE=1, NOM_CHAM='DEPL',
              NOEUD = 'N70',      NOM_CMP = 'DZ',           REFERENCE='NON_REGRESSION', VALE = 2.45141314E-08),
     # CONTRAINTES EN A , E ET X

            _F(  RESULTAT = RESUEL1, NUME_ORDRE=1, NOM_CHAM='SIEF_ELNO_ELGA',
              CRITERE = 'RELATIF',  PRECISION = 1.E-3, MAILLE = 'HEX3',
              NOEUD = 'N59',   NOM_CMP = 'SIZZ', REFERENCE='NON_REGRESSION', VALE = 2.3189837738E+05),

            _F(  RESULTAT = RESUEL1, NUME_ORDRE=1, NOM_CHAM='SIEF_ELNO_ELGA',
              CRITERE = 'RELATIF',   PRECISION = 1.E-3, MAILLE = 'HEX2',
              NOEUD = 'N56',   NOM_CMP = 'SIZZ',          REFERENCE='NON_REGRESSION', VALE = 1.143306879E+05),

            _F(  RESULTAT = RESUEL1, NUME_ORDRE=1, NOM_CHAM='SIEF_ELNO_ELGA',
              CRITERE = 'RELATIF',   PRECISION = 1.E-3, MAILLE = 'HEX6',
              NOEUD = 'N70',   NOM_CMP = 'SIZZ',          REFERENCE='NON_REGRESSION', VALE = 2.2569820E+05))
              )

#################################################################
# angles differenets de zero : test de non regressison et inter_comparaison.
# stat_non_line ELAS, angle 1
#################################################################



RESUNL1=STAT_NON_LINE(MODELE=MO,
                     CHAM_MATER=CHMAT,
                    CARA_ELEM=ORIEN,
                     EXCIT=_F(CHARGE=CH,
                               FONC_MULT=COEF,
                     ),
                     COMP_INCR=(_F(RELATION='ELAS',
                                   TOUT='OUI',),),
                     INCREMENT=(_F(LIST_INST=LINST,),),
                                     );

RESUNL1=CALC_ELEM( reuse= RESUNL1 ,RESULTAT= RESUNL1 ,
               OPTION=('SIEF_ELNO_ELGA',),
                )

#
#---------------------------------------------------------------------

TEST_RESU(RESU=(
     # B
            _F(  RESULTAT = RESUNL1, NUME_ORDRE=1, NOM_CHAM='DEPL',
              CRITERE = 'ABSOLU',   PRECISION = 1.E-10,
              NOEUD = 'N53',      NOM_CMP = 'DX',           REFERENCE='AUTRE_ASTER', VALE = 0.),
            _F(  RESULTAT = RESUNL1, NUME_ORDRE=1, NOM_CHAM='DEPL',
              CRITERE = 'ABSOLU',   PRECISION = 1.E-10,
              NOEUD = 'N53',      NOM_CMP = 'DY',           REFERENCE='AUTRE_ASTER', VALE = 0.),
            _F(  RESULTAT = RESUNL1, NUME_ORDRE=1, NOM_CHAM='DEPL',
              NOEUD = 'N53',      NOM_CMP = 'DZ',          REFERENCE='AUTRE_ASTER', VALE = -1.45348E-06),
     # C
            _F(  RESULTAT = RESUNL1, NUME_ORDRE=1, NOM_CHAM='DEPL',
              NOEUD = 'N12',      NOM_CMP = 'DX',           REFERENCE='AUTRE_ASTER', VALE = 2.1298816E-08),
            _F(  RESULTAT = RESUNL1, NUME_ORDRE=1, NOM_CHAM='DEPL',
              NOEUD = 'N12',      NOM_CMP = 'DY',           REFERENCE='AUTRE_ASTER', VALE = 9.0016976E-08),
            _F(  RESULTAT = RESUNL1, NUME_ORDRE=1, NOM_CHAM='DEPL',
              NOEUD = 'N12',      NOM_CMP = 'DZ',           REFERENCE='AUTRE_ASTER', VALE = -1.4039682E-06),
     # D
            _F(  RESULTAT = RESUNL1, NUME_ORDRE=1, NOM_CHAM='DEPL',
              NOEUD = 'N18',      NOM_CMP = 'DX',           REFERENCE='AUTRE_ASTER', VALE = -1.4805414E-07),
            _F(  RESULTAT = RESUNL1, NUME_ORDRE=1, NOM_CHAM='DEPL',
              CRITERE = 'ABSOLU',   PRECISION = 1.E-10,
              NOEUD = 'N18',      NOM_CMP = 'DY',           REFERENCE='AUTRE_ASTER', VALE = 0.),
            _F(  RESULTAT = RESUNL1, NUME_ORDRE=1, NOM_CHAM='DEPL',
              NOEUD = 'N18',      NOM_CMP = 'DZ',           REFERENCE='AUTRE_ASTER', VALE = 1.226902688E-07),
     # E
            _F(  RESULTAT = RESUNL1, NUME_ORDRE=1, NOM_CHAM='DEPL',
              CRITERE = 'ABSOLU',   PRECISION = 1.E-10,
              NOEUD = 'N56',      NOM_CMP = 'DX',           REFERENCE='AUTRE_ASTER', VALE = 0.),
            _F(  RESULTAT = RESUNL1, NUME_ORDRE=1, NOM_CHAM='DEPL',
              CRITERE = 'ABSOLU',   PRECISION = 1.E-10,
              NOEUD = 'N56',      NOM_CMP = 'DY',           REFERENCE='AUTRE_ASTER', VALE = 0.),
            _F(  RESULTAT = RESUNL1, NUME_ORDRE=1, NOM_CHAM='DEPL',
              CRITERE = 'RELATIF',  PRECISION = 1.E-3,
              NOEUD = 'N56',      NOM_CMP = 'DZ',           REFERENCE='AUTRE_ASTER', VALE = -1.0881888E-6),
     # X
            _F(  RESULTAT = RESUNL1, NUME_ORDRE=1, NOM_CHAM='DEPL',
              NOEUD = 'N70',      NOM_CMP = 'DX',           REFERENCE='AUTRE_ASTER', VALE = -1.5456629E-07),
            _F(  RESULTAT = RESUNL1, NUME_ORDRE=1, NOM_CHAM='DEPL',
              NOEUD = 'N70',      NOM_CMP = 'DY',           REFERENCE='AUTRE_ASTER', VALE = -1.46741969E-07),
            _F(  RESULTAT = RESUNL1, NUME_ORDRE=1, NOM_CHAM='DEPL',
              NOEUD = 'N70',      NOM_CMP = 'DZ',           REFERENCE='AUTRE_ASTER', VALE = 2.45141314E-08),
     # CONTRAINTES EN A , E ET X

            _F(  RESULTAT = RESUNL1, NUME_ORDRE=1, NOM_CHAM='SIEF_ELNO_ELGA',
              CRITERE = 'RELATIF',  PRECISION = 1.E-3, MAILLE = 'HEX3',
              NOEUD = 'N59',   NOM_CMP = 'SIZZ', REFERENCE='AUTRE_ASTER', VALE = 2.3189837738E+05),

            _F(  RESULTAT = RESUNL1, NUME_ORDRE=1, NOM_CHAM='SIEF_ELNO_ELGA',
              CRITERE = 'RELATIF',   PRECISION = 1.E-3, MAILLE = 'HEX2',
              NOEUD = 'N56',   NOM_CMP = 'SIZZ',          REFERENCE='AUTRE_ASTER', VALE = 1.143306879E+05),

            _F(  RESULTAT = RESUNL1, NUME_ORDRE=1, NOM_CHAM='SIEF_ELNO_ELGA',
              CRITERE = 'RELATIF',   PRECISION = 1.E-3, MAILLE = 'HEX6',
              NOEUD = 'N70',   NOM_CMP = 'SIZZ',          REFERENCE='AUTRE_ASTER', VALE = 2.2569820E+05))
              )


#################################################################
# angles differenets de zero : test de non regressison et inter_comparaison.
# stat_non_line MONOCRISTAL , angle 1
#################################################################


RESUMI1=STAT_NON_LINE(MODELE=MO,
                     CHAM_MATER=CHMAT2,
                    CARA_ELEM=ORIEN,
                     EXCIT=_F(CHARGE=CH,
                               FONC_MULT=COEF,
                     ),
                     COMP_INCR=(_F(RELATION='MONOCRISTAL',
                                   COMPOR=COMPOR2,
                                   DEFORMATION='PETIT',
                                   RESI_INTE_RELA=1e-06,
                                   ITER_INTE_MAXI=10,
                                   ITER_INTE_PAS=-10,
                                   ALGO_INTE='NEWTON',
                                  # ALGO_INTE='RUNGE_KUTTA',
                                   TOUT='OUI',),),
                     INCREMENT=(_F(LIST_INST=LINST,),),
                     NEWTON=_F(
                               # PREDICTION='EXTRAPOL',
                               MATRICE='ELASTIQUE',
                               #REAC_ITER=1,
                               ),
                     ARCHIVAGE=_F(LIST_INST=LINST,),
                     CONVERGENCE=_F(RESI_GLOB_RELA=1e-06,
                                  #ARRET='NON',
                                  #ITER_GLOB_MAXI=0,
                                  #   ITER_GLOB_MAXI=10,
                                     ),
                                     );

RESUMI1=CALC_ELEM( reuse= RESUMI1 ,RESULTAT= RESUMI1 ,
               OPTION=('SIEF_ELNO_ELGA',),
                )

#
#---------------------------------------------------------------------

TEST_RESU(RESU=(
     # B
            _F(  RESULTAT = RESUMI1, NUME_ORDRE=1, NOM_CHAM='DEPL',
              CRITERE = 'ABSOLU',   PRECISION = 1.E-10,
              NOEUD = 'N53',      NOM_CMP = 'DX',           REFERENCE='AUTRE_ASTER', VALE = 0.),
            _F(  RESULTAT = RESUMI1, NUME_ORDRE=1, NOM_CHAM='DEPL',
              CRITERE = 'ABSOLU',   PRECISION = 1.E-10,
              NOEUD = 'N53',      NOM_CMP = 'DY',           REFERENCE='AUTRE_ASTER', VALE = 0.),
            _F(  RESULTAT = RESUMI1, NUME_ORDRE=1, NOM_CHAM='DEPL',
              NOEUD = 'N53',      NOM_CMP = 'DZ',          REFERENCE='AUTRE_ASTER', VALE = -1.45348E-06),
     # C
            _F(  RESULTAT = RESUMI1, NUME_ORDRE=1, NOM_CHAM='DEPL',
              NOEUD = 'N12',      NOM_CMP = 'DX',           REFERENCE='AUTRE_ASTER', VALE = 2.1298816E-08),
            _F(  RESULTAT = RESUMI1, NUME_ORDRE=1, NOM_CHAM='DEPL',
              NOEUD = 'N12',      NOM_CMP = 'DY',           REFERENCE='AUTRE_ASTER', VALE = 9.0016976E-08),
            _F(  RESULTAT = RESUMI1, NUME_ORDRE=1, NOM_CHAM='DEPL',
              NOEUD = 'N12',      NOM_CMP = 'DZ',           REFERENCE='AUTRE_ASTER', VALE = -1.4039682E-06),
     # D
            _F(  RESULTAT = RESUMI1, NUME_ORDRE=1, NOM_CHAM='DEPL',
              NOEUD = 'N18',      NOM_CMP = 'DX',           REFERENCE='AUTRE_ASTER', VALE = -1.4805414E-07),
            _F(  RESULTAT = RESUMI1, NUME_ORDRE=1, NOM_CHAM='DEPL',
              CRITERE = 'ABSOLU',   PRECISION = 1.E-10,
              NOEUD = 'N18',      NOM_CMP = 'DY',           REFERENCE='AUTRE_ASTER', VALE = 0.),
            _F(  RESULTAT = RESUMI1, NUME_ORDRE=1, NOM_CHAM='DEPL',
              NOEUD = 'N18',      NOM_CMP = 'DZ',           REFERENCE='AUTRE_ASTER', VALE = 1.226902688E-07),
     # E
            _F(  RESULTAT = RESUMI1, NUME_ORDRE=1, NOM_CHAM='DEPL',
              CRITERE = 'ABSOLU',   PRECISION = 1.E-10,
              NOEUD = 'N56',      NOM_CMP = 'DX',           REFERENCE='AUTRE_ASTER', VALE = 0.),
            _F(  RESULTAT = RESUMI1, NUME_ORDRE=1, NOM_CHAM='DEPL',
              CRITERE = 'ABSOLU',   PRECISION = 1.E-10,
              NOEUD = 'N56',      NOM_CMP = 'DY',           REFERENCE='AUTRE_ASTER', VALE = 0.),
            _F(  RESULTAT = RESUMI1, NUME_ORDRE=1, NOM_CHAM='DEPL',
              CRITERE = 'RELATIF',  PRECISION = 1.E-3,
              NOEUD = 'N56',      NOM_CMP = 'DZ',           REFERENCE='AUTRE_ASTER', VALE = -1.0881888E-6),
     # X
            _F(  RESULTAT = RESUMI1, NUME_ORDRE=1, NOM_CHAM='DEPL',
              NOEUD = 'N70',      NOM_CMP = 'DX',           REFERENCE='AUTRE_ASTER', VALE = -1.5456629E-07),
            _F(  RESULTAT = RESUMI1, NUME_ORDRE=1, NOM_CHAM='DEPL',
              NOEUD = 'N70',      NOM_CMP = 'DY',           REFERENCE='AUTRE_ASTER', VALE = -1.46741969E-07),
            _F(  RESULTAT = RESUMI1, NUME_ORDRE=1, NOM_CHAM='DEPL',
              NOEUD = 'N70',      NOM_CMP = 'DZ',           REFERENCE='AUTRE_ASTER', VALE = 2.45141314E-08),
     # CONTRAINTES EN A , E ET X

            _F(  RESULTAT = RESUMI1, NUME_ORDRE=1, NOM_CHAM='SIEF_ELNO_ELGA',
              CRITERE = 'RELATIF',  PRECISION = 1.E-3, MAILLE = 'HEX3',
              NOEUD = 'N59',   NOM_CMP = 'SIZZ', REFERENCE='AUTRE_ASTER', VALE = 2.3189837738E+05),

            _F(  RESULTAT = RESUMI1, NUME_ORDRE=1, NOM_CHAM='SIEF_ELNO_ELGA',
              CRITERE = 'RELATIF',   PRECISION = 1.E-3, MAILLE = 'HEX2',
              NOEUD = 'N56',   NOM_CMP = 'SIZZ',          REFERENCE='AUTRE_ASTER', VALE = 1.143306879E+05),

            _F(  RESULTAT = RESUMI1, NUME_ORDRE=1, NOM_CHAM='SIEF_ELNO_ELGA',
              CRITERE = 'RELATIF',   PRECISION = 1.E-3, MAILLE = 'HEX6',
              NOEUD = 'N70',   NOM_CMP = 'SIZZ',          REFERENCE='AUTRE_ASTER', VALE = 2.2569820E+05))
              )


#################################################################
# angles differenets de zero : test de non regressison et inter_comparaison.
# stat_non_line MONOCRISTAL EXPLICITE, angle 1
#################################################################



RESUMM1=STAT_NON_LINE(MODELE=MO,
                     CHAM_MATER=CHMAT2,
                    CARA_ELEM=ORIEN,
                     EXCIT=_F(CHARGE=CH,
                               FONC_MULT=COEF,
                     ),
                     COMP_INCR=(_F(RELATION='MONOCRISTAL',
                                   COMPOR=COMPOR2,
                                   ALGO_INTE='RUNGE_KUTTA',
                                   TOUT='OUI',),),
                     INCREMENT=(_F(LIST_INST=LINST,),),
                     NEWTON=_F(
                               MATRICE='ELASTIQUE',
                               ),
                                     );

RESUMM1=CALC_ELEM( reuse= RESUMM1 ,RESULTAT= RESUMM1 ,
               OPTION=('SIEF_ELNO_ELGA',),
                )

#
#---------------------------------------------------------------------

TEST_RESU(RESU=(
     # B
            _F(  RESULTAT = RESUMM1, NUME_ORDRE=1, NOM_CHAM='DEPL',
              CRITERE = 'ABSOLU',   PRECISION = 1.E-10,
              NOEUD = 'N53',      NOM_CMP = 'DX',           REFERENCE='AUTRE_ASTER', VALE = 0.),
            _F(  RESULTAT = RESUMM1, NUME_ORDRE=1, NOM_CHAM='DEPL',
              CRITERE = 'ABSOLU',   PRECISION = 1.E-10,
              NOEUD = 'N53',      NOM_CMP = 'DY',           REFERENCE='AUTRE_ASTER', VALE = 0.),
            _F(  RESULTAT = RESUMM1, NUME_ORDRE=1, NOM_CHAM='DEPL',
              NOEUD = 'N53',      NOM_CMP = 'DZ',          REFERENCE='AUTRE_ASTER', VALE = -1.45348E-06),
     # C
            _F(  RESULTAT = RESUMM1, NUME_ORDRE=1, NOM_CHAM='DEPL',
              NOEUD = 'N12',      NOM_CMP = 'DX',           REFERENCE='AUTRE_ASTER', VALE = 2.1298816E-08),
            _F(  RESULTAT = RESUMM1, NUME_ORDRE=1, NOM_CHAM='DEPL',
              NOEUD = 'N12',      NOM_CMP = 'DY',           REFERENCE='AUTRE_ASTER', VALE = 9.0016976E-08),
            _F(  RESULTAT = RESUMM1, NUME_ORDRE=1, NOM_CHAM='DEPL',
              NOEUD = 'N12',      NOM_CMP = 'DZ',           REFERENCE='AUTRE_ASTER', VALE = -1.4039682E-06),
     # D
            _F(  RESULTAT = RESUMM1, NUME_ORDRE=1, NOM_CHAM='DEPL',
              NOEUD = 'N18',      NOM_CMP = 'DX',           REFERENCE='AUTRE_ASTER', VALE = -1.4805414E-07),
            _F(  RESULTAT = RESUMM1, NUME_ORDRE=1, NOM_CHAM='DEPL',
              CRITERE = 'ABSOLU',   PRECISION = 1.E-10,
              NOEUD = 'N18',      NOM_CMP = 'DY',           REFERENCE='AUTRE_ASTER', VALE = 0.),
            _F(  RESULTAT = RESUMM1, NUME_ORDRE=1, NOM_CHAM='DEPL',
              NOEUD = 'N18',      NOM_CMP = 'DZ',           REFERENCE='AUTRE_ASTER', VALE = 1.226902688E-07),
     # E
            _F(  RESULTAT = RESUMM1, NUME_ORDRE=1, NOM_CHAM='DEPL',
              CRITERE = 'ABSOLU',   PRECISION = 1.E-10,
              NOEUD = 'N56',      NOM_CMP = 'DX',           REFERENCE='AUTRE_ASTER', VALE = 0.),
            _F(  RESULTAT = RESUMM1, NUME_ORDRE=1, NOM_CHAM='DEPL',
              CRITERE = 'ABSOLU',   PRECISION = 1.E-10,
              NOEUD = 'N56',      NOM_CMP = 'DY',           REFERENCE='AUTRE_ASTER', VALE = 0.),
            _F(  RESULTAT = RESUMM1, NUME_ORDRE=1, NOM_CHAM='DEPL',
              CRITERE = 'RELATIF',  PRECISION = 1.E-3,
              NOEUD = 'N56',      NOM_CMP = 'DZ',           REFERENCE='AUTRE_ASTER', VALE = -1.0881888E-6),
     # X
            _F(  RESULTAT = RESUMM1, NUME_ORDRE=1, NOM_CHAM='DEPL',
              NOEUD = 'N70',      NOM_CMP = 'DX',           REFERENCE='AUTRE_ASTER', VALE = -1.5456629E-07),
            _F(  RESULTAT = RESUMM1, NUME_ORDRE=1, NOM_CHAM='DEPL',
              NOEUD = 'N70',      NOM_CMP = 'DY',           REFERENCE='AUTRE_ASTER', VALE = -1.46741969E-07),
            _F(  RESULTAT = RESUMM1, NUME_ORDRE=1, NOM_CHAM='DEPL',
              NOEUD = 'N70',      NOM_CMP = 'DZ',           REFERENCE='AUTRE_ASTER', VALE = 2.45141314E-08),
     # CONTRAINTES EN A , E ET X

            _F(  RESULTAT = RESUMM1, NUME_ORDRE=1, NOM_CHAM='SIEF_ELNO_ELGA',
              CRITERE = 'RELATIF',  PRECISION = 1.E-3, MAILLE = 'HEX3',
              NOEUD = 'N59',   NOM_CMP = 'SIZZ', REFERENCE='AUTRE_ASTER', VALE = 2.3189837738E+05),

            _F(  RESULTAT = RESUMM1, NUME_ORDRE=1, NOM_CHAM='SIEF_ELNO_ELGA',
              CRITERE = 'RELATIF',   PRECISION = 1.E-3, MAILLE = 'HEX2',
              NOEUD = 'N56',   NOM_CMP = 'SIZZ',          REFERENCE='AUTRE_ASTER', VALE = 1.143306879E+05),

            _F(  RESULTAT = RESUMM1, NUME_ORDRE=1, NOM_CHAM='SIEF_ELNO_ELGA',
              CRITERE = 'RELATIF',   PRECISION = 1.E-3, MAILLE = 'HEX6',
              NOEUD = 'N70',   NOM_CMP = 'SIZZ',          REFERENCE='AUTRE_ASTER', VALE = 2.2569820E+05))
              )


#################################################################
# angles differents de zero : test de non regression et inter_comparaison.
# stat_non_line POLYCRISTAL 1 PHASE EXPLICITE, angle 1
#################################################################


COMPORP=DEFI_COMPOR(POLYCRISTAL=_F(ANGL_EULER=(0.,0.,0.),
MONOCRISTAL=COMPOR2,FRAC_VOL=1.),
LOCALISATION='BETA',DA=0.,DL=0.)

RESUMP1=STAT_NON_LINE(MODELE=MO,
                     CHAM_MATER=CHMAT2,
                    CARA_ELEM=ORIEN,
                     EXCIT=_F(CHARGE=CH,
                               FONC_MULT=COEF,
                     ),
                     COMP_INCR=(_F(RELATION='POLYCRISTAL',
                                   COMPOR=COMPORP,
                                   ALGO_INTE='RUNGE_KUTTA',
                                   TOUT='OUI',),),
                     INCREMENT=(_F(LIST_INST=LINST,),),
                     NEWTON=_F(
                               MATRICE='ELASTIQUE',
                               ),
                                     );

RESUMP1=CALC_ELEM( reuse= RESUMP1 ,RESULTAT= RESUMP1 ,
               OPTION=('SIEF_ELNO_ELGA',),
                )

#
#---------------------------------------------------------------------

TEST_RESU(RESU=(
     # B
            _F(  RESULTAT = RESUMP1, NUME_ORDRE=1, NOM_CHAM='DEPL',
              CRITERE = 'ABSOLU',   PRECISION = 1.E-10,
              NOEUD = 'N53',      NOM_CMP = 'DX',           REFERENCE='AUTRE_ASTER', VALE = 0.),
            _F(  RESULTAT = RESUMP1, NUME_ORDRE=1, NOM_CHAM='DEPL',
              CRITERE = 'ABSOLU',   PRECISION = 1.E-10,
              NOEUD = 'N53',      NOM_CMP = 'DY',           REFERENCE='AUTRE_ASTER', VALE = 0.),
            _F(  RESULTAT = RESUMP1, NUME_ORDRE=1, NOM_CHAM='DEPL',
              NOEUD = 'N53',      NOM_CMP = 'DZ',          REFERENCE='AUTRE_ASTER', VALE = -1.45348E-06),
     # C
            _F(  RESULTAT = RESUMP1, NUME_ORDRE=1, NOM_CHAM='DEPL',
              NOEUD = 'N12',      NOM_CMP = 'DX',           REFERENCE='AUTRE_ASTER', VALE = 2.1298816E-08),
            _F(  RESULTAT = RESUMP1, NUME_ORDRE=1, NOM_CHAM='DEPL',
              NOEUD = 'N12',      NOM_CMP = 'DY',           REFERENCE='AUTRE_ASTER', VALE = 9.0016976E-08),
            _F(  RESULTAT = RESUMP1, NUME_ORDRE=1, NOM_CHAM='DEPL',
              NOEUD = 'N12',      NOM_CMP = 'DZ',           REFERENCE='AUTRE_ASTER', VALE = -1.4039682E-06),
     # D
            _F(  RESULTAT = RESUMP1, NUME_ORDRE=1, NOM_CHAM='DEPL',
              NOEUD = 'N18',      NOM_CMP = 'DX',           REFERENCE='AUTRE_ASTER', VALE = -1.4805414E-07),
            _F(  RESULTAT = RESUMP1, NUME_ORDRE=1, NOM_CHAM='DEPL',
              CRITERE = 'ABSOLU',   PRECISION = 1.E-10,
              NOEUD = 'N18',      NOM_CMP = 'DY',           REFERENCE='AUTRE_ASTER', VALE = 0.),
            _F(  RESULTAT = RESUMP1, NUME_ORDRE=1, NOM_CHAM='DEPL',
              NOEUD = 'N18',      NOM_CMP = 'DZ',           REFERENCE='AUTRE_ASTER', VALE = 1.226902688E-07),
     # E
            _F(  RESULTAT = RESUMP1, NUME_ORDRE=1, NOM_CHAM='DEPL',
              CRITERE = 'ABSOLU',   PRECISION = 1.E-10,
              NOEUD = 'N56',      NOM_CMP = 'DX',           REFERENCE='AUTRE_ASTER', VALE = 0.),
            _F(  RESULTAT = RESUMP1, NUME_ORDRE=1, NOM_CHAM='DEPL',
              CRITERE = 'ABSOLU',   PRECISION = 1.E-10,
              NOEUD = 'N56',      NOM_CMP = 'DY',           REFERENCE='AUTRE_ASTER', VALE = 0.),
            _F(  RESULTAT = RESUMP1, NUME_ORDRE=1, NOM_CHAM='DEPL',
              CRITERE = 'RELATIF',  PRECISION = 1.E-3,
              NOEUD = 'N56',      NOM_CMP = 'DZ',           REFERENCE='AUTRE_ASTER', VALE = -1.0881888E-6),
     # X
            _F(  RESULTAT = RESUMP1, NUME_ORDRE=1, NOM_CHAM='DEPL',
              NOEUD = 'N70',      NOM_CMP = 'DX',           REFERENCE='AUTRE_ASTER', VALE = -1.5456629E-07),
            _F(  RESULTAT = RESUMP1, NUME_ORDRE=1, NOM_CHAM='DEPL',
              NOEUD = 'N70',      NOM_CMP = 'DY',           REFERENCE='AUTRE_ASTER', VALE = -1.46741969E-07),
            _F(  RESULTAT = RESUMP1, NUME_ORDRE=1, NOM_CHAM='DEPL',
              NOEUD = 'N70',      NOM_CMP = 'DZ',           REFERENCE='AUTRE_ASTER', VALE = 2.45141314E-08),
     # CONTRAINTES EN A , E ET X

            _F(  RESULTAT = RESUMP1, NUME_ORDRE=1, NOM_CHAM='SIEF_ELNO_ELGA',
              CRITERE = 'RELATIF',  PRECISION = 1.E-3, MAILLE = 'HEX3',
              NOEUD = 'N59',   NOM_CMP = 'SIZZ', REFERENCE='AUTRE_ASTER', VALE = 2.3189837738E+05),

            _F(  RESULTAT = RESUMP1, NUME_ORDRE=1, NOM_CHAM='SIEF_ELNO_ELGA',
              CRITERE = 'RELATIF',   PRECISION = 1.E-3, MAILLE = 'HEX2',
              NOEUD = 'N56',   NOM_CMP = 'SIZZ',          REFERENCE='AUTRE_ASTER', VALE = 1.143306879E+05),

            _F(  RESULTAT = RESUMP1, NUME_ORDRE=1, NOM_CHAM='SIEF_ELNO_ELGA',
              CRITERE = 'RELATIF',   PRECISION = 1.E-3, MAILLE = 'HEX6',
              NOEUD = 'N70',   NOM_CMP = 'SIZZ',          REFERENCE='AUTRE_ASTER', VALE = 2.2569820E+05))
              )



FIN()
#
