# MODIF  DATE 17/01/2012   AUTEUR SELLENET N.SELLENET 
# TITRE CYLINDRE EN C.P. (TRIA3 QUAD4) AXISYM
# sslv04h.para = tps_job 60 mem_job 64Mo ncpus 1 liste_test S
#            CONFIGURATION MANAGEMENT OF EDF VERSION
# ======================================================================
# COPYRIGHT (C) 1991 - 2012  EDF R&D                  WWW.CODE-ASTER.ORG
# THIS PROGRAM IS FREE SOFTWARE; YOU CAN REDISTRIBUTE IT AND/OR MODIFY
# IT UNDER THE TERMS OF THE GNU GENERAL PUBLIC LICENSE AS PUBLISHED BY
# THE FREE SOFTWARE FOUNDATION; EITHER VERSION 2 OF THE LICENSE, OR
# (AT YOUR OPTION) ANY LATER VERSION.
#
# THIS PROGRAM IS DISTRIBUTED IN THE HOPE THAT IT WILL BE USEFUL, BUT
# WITHOUT ANY WARRANTY; WITHOUT EVEN THE IMPLIED WARRANTY OF
# MERCHANTABILITY OR FITNESS FOR A PARTICULAR PURPOSE. SEE THE GNU
# GENERAL PUBLIC LICENSE FOR MORE DETAILS.
#
# YOU SHOULD HAVE RECEIVED A COPY OF THE GNU GENERAL PUBLIC LICENSE
# ALONG WITH THIS PROGRAM; IF NOT, WRITE TO EDF R&D CODE_ASTER,
#    1 AVENUE DU GENERAL DE GAULLE, 92141 CLAMART CEDEX, FRANCE.
# ======================================================================
#
# ----------------------------------------------------------------------
# SSLV04 H                  COMMANDES                           22/08/91
# CYLINDRE CREUX EN CONTRAINTES PLANES
#
# MODELISATION : ELEMENTS MECANIQUE C_PLAN (TRIA3 QUAD4)     AXIS
# MAILLAGE     : ALIBABA > ASTER
# ----------------------------------------------------------------------
# GROUPES DE NOEUDS ET MAILLES: A B C D E F
#              BORDAB=GRNM11    FACEEF=GRMA12    FACEAE=GRMA13
# ----------------------------------------------------------------------
#

DEBUT( CODE=_F( NOM = 'SSLV04H',NIV_PUB_WEB='INTERNET'),DEBUG=_F(SDVERI='OUI'))

M=LIRE_MAILLAGE(FORMAT='MED',   )

MO=AFFE_MODELE(            MAILLAGE=M,
                                   VERIF='MAILLE',
                                  AFFE=_F(  TOUT = 'OUI',
                                         PHENOMENE = 'MECANIQUE',
                                         MODELISATION = 'AXIS'))

MA=DEFI_MATERIAU(   ELAS=_F(  E     = 200000.,
                              NU    = 0.3,
                              ALPHA = 0.     ),
                    RCCM=_F(  M_KE  = 1.7,
                              N_KE  = 0.3,
                              SM    = 200.   ),
                )

CM=AFFE_MATERIAU(        MAILLAGE=M,
                                  AFFE=_F(  TOUT = 'OUI',
                                         MATER = MA))

CH=AFFE_CHAR_MECA(         MODELE=MO,
                              DDL_IMPO=_F(  GROUP_NO = 'F',       DY = 0.),
                              PRES_REP=_F(  GROUP_MA = 'GRMA13',  PRES = 60.))


RESU=MECA_STATIQUE(MODELE=MO,
                   CHAM_MATER=CM,
                   EXCIT=_F(CHARGE=CH,),
                   );

RESU=CALC_ELEM( reuse= RESU ,RESULTAT=RESU ,
                             NUME_ORDRE=1,

                             OPTION=('EPSI_ELNO',),
                )

RESU=CALC_ELEM( reuse= RESU ,RESULTAT=RESU ,
                             NUME_ORDRE=1,

                             OPTION=('SIGM_ELNO',),
                )

TEST_RESU(RESU=(
   # DEPLACEMENTS

         _F(  RESULTAT = RESU, NUME_ORDRE=1, NOM_CHAM='DEPL',
         CRITERE = 'RELATIF',  PRECISION = 1.E-3, REFERENCE = 'ANALYTIQUE',
         GROUP_NO = 'A',     NOM_CMP = 'DX',            VALE = 59.E-6),
         _F(  RESULTAT  = RESU, NUME_ORDRE=1, NOM_CHAM='DEPL',
         CRITERE = 'RELATIF',   PRECISION = 1.E-3, REFERENCE = 'ANALYTIQUE',
         GROUP_NO = 'B',     NOM_CMP = 'DX',            VALE = 40.E-6),
         _F(  RESULTAT = RESU, NUME_ORDRE=1, NOM_CHAM='DEPL',
         CRITERE = 'RELATIF',   PRECISION = 1.E-3, REFERENCE = 'ANALYTIQUE',
         GROUP_NO = 'E',     NOM_CMP = 'DX',            VALE = 59.E-6),
         _F(  RESULTAT = RESU, NUME_ORDRE=1, NOM_CHAM='DEPL',
         CRITERE = 'RELATIF',   PRECISION = 1.E-3, REFERENCE = 'ANALYTIQUE',
         GROUP_NO = 'F',     NOM_CMP = 'DX',            VALE = 40.E-6),

    # DEFORMATIONS


           _F(  RESULTAT = RESU, NUME_ORDRE=1, NOM_CHAM='EPSI_ELNO',
           CRITERE = 'RELATIF',    PRECISION = 0.03, REFERENCE = 'ANALYTIQUE',
 GROUP_NO = 'A',    MAILLE = 'M119',    NOM_CMP = 'EPXX',       VALE = -4.5E-4),
           _F(  RESULTAT = RESU, NUME_ORDRE=1, NOM_CHAM='EPSI_ELNO',
           CRITERE = 'ABSOLU',     PRECISION = 0.01, REFERENCE = 'ANALYTIQUE',
 GROUP_NO = 'A',    MAILLE = 'M119',    NOM_CMP = 'EPYY',       VALE = 0.),
           _F(  RESULTAT = RESU, NUME_ORDRE=1, NOM_CHAM='EPSI_ELNO',
           CRITERE = 'RELATIF',    PRECISION = 0.01, REFERENCE = 'ANALYTIQUE',
 GROUP_NO = 'A',    MAILLE = 'M119',    NOM_CMP = 'EPZZ',       VALE = 5.9E-4),
           _F(  RESULTAT = RESU, NUME_ORDRE=1, NOM_CHAM='EPSI_ELNO',
           CRITERE = 'ABSOLU',     PRECISION = 0.01, REFERENCE = 'ANALYTIQUE',
 GROUP_NO = 'A',    MAILLE = 'M119',    NOM_CMP = 'EPXY',       VALE = 0.),

           _F(  RESULTAT = RESU, NUME_ORDRE=1, NOM_CHAM='EPSI_ELNO',
           CRITERE = 'RELATIF',    PRECISION = 0.06, REFERENCE = 'ANALYTIQUE',
 GROUP_NO = 'B',    MAILLE = 'M1',      NOM_CMP = 'EPXX',       VALE = -0.6E-4),
           _F(  RESULTAT = RESU, NUME_ORDRE=1, NOM_CHAM='EPSI_ELNO',
           CRITERE = 'ABSOLU',     PRECISION = 0.01, REFERENCE = 'ANALYTIQUE',
 GROUP_NO = 'B',    MAILLE = 'M1',      NOM_CMP = 'EPYY',       VALE = 0.),
           _F(  RESULTAT = RESU, NUME_ORDRE=1, NOM_CHAM='EPSI_ELNO',
           CRITERE = 'RELATIF',    PRECISION = 0.01, REFERENCE = 'ANALYTIQUE',
 GROUP_NO = 'B',    MAILLE = 'M1',      NOM_CMP = 'EPZZ',       VALE = 2.E-4),
           _F(  RESULTAT = RESU, NUME_ORDRE=1, NOM_CHAM='EPSI_ELNO',
           CRITERE = 'ABSOLU',     PRECISION = 0.01, REFERENCE = 'ANALYTIQUE',
 GROUP_NO = 'B',    MAILLE = 'M1',      NOM_CMP = 'EPXY',       VALE = 0.),

           _F(  RESULTAT = RESU,NUME_ORDRE=1, NOM_CHAM='EPSI_ELNO',
           CRITERE = 'RELATIF',    PRECISION = 0.03, REFERENCE = 'ANALYTIQUE',
 GROUP_NO = 'E',    MAILLE = 'M120',    NOM_CMP = 'EPXX',       VALE = -4.5E-4),
           _F(  RESULTAT = RESU, NUME_ORDRE=1, NOM_CHAM='EPSI_ELNO',
           CRITERE = 'ABSOLU',     PRECISION = 0.01, REFERENCE = 'ANALYTIQUE',
 GROUP_NO = 'E',    MAILLE = 'M120',    NOM_CMP = 'EPYY',       VALE = 0.),
           _F(  RESULTAT = RESU, NUME_ORDRE=1, NOM_CHAM='EPSI_ELNO',
           CRITERE = 'RELATIF',    PRECISION = 0.01, REFERENCE = 'ANALYTIQUE',
 GROUP_NO = 'E',    MAILLE = 'M120',    NOM_CMP = 'EPZZ',       VALE = 5.9E-4),
           _F(  RESULTAT = RESU, NUME_ORDRE=1, NOM_CHAM='EPSI_ELNO',
           CRITERE = 'ABSOLU',     PRECISION = 0.01, REFERENCE = 'ANALYTIQUE',
 GROUP_NO = 'E',    MAILLE = 'M120',    NOM_CMP = 'EPXY',       VALE = 0.),

           _F(  RESULTAT = RESU, NUME_ORDRE=1, NOM_CHAM='EPSI_ELNO',
           CRITERE = 'RELATIF',    PRECISION = 0.03, REFERENCE = 'ANALYTIQUE',
 GROUP_NO = 'F',    MAILLE = 'M5',      NOM_CMP = 'EPXX',       VALE = -0.6E-4),
           _F(  RESULTAT = RESU, NUME_ORDRE=1, NOM_CHAM='EPSI_ELNO',
           CRITERE = 'ABSOLU',     PRECISION = 0.01, REFERENCE = 'ANALYTIQUE',
 GROUP_NO = 'F',    MAILLE = 'M5',      NOM_CMP = 'EPYY',       VALE = 0.),
           _F(  RESULTAT = RESU, NUME_ORDRE=1, NOM_CHAM='EPSI_ELNO',
           CRITERE = 'RELATIF',    PRECISION = 0.01, REFERENCE = 'ANALYTIQUE',
 GROUP_NO = 'F',    MAILLE = 'M5',      NOM_CMP = 'EPZZ',       VALE = 2.E-4),
           _F(  RESULTAT = RESU, NUME_ORDRE=1, NOM_CHAM='EPSI_ELNO',
           CRITERE = 'ABSOLU',     PRECISION = 0.01, REFERENCE = 'ANALYTIQUE',
 GROUP_NO = 'F',    MAILLE = 'M5',      NOM_CMP = 'EPXY',       VALE = 0.))
           )

#--------------------------------------------------------------------

LIGNE=INTE_MAIL_2D(  MAILLAGE=M,
                     DEFI_SEGMENT=_F(  GROUP_NO_ORIG = 'A',
                                       GROUP_NO_EXTR = 'B', ),
                     INFO=2    )

T_RESU=POST_RELEVE_T( ACTION=_F( INTITULE = 'LIGNE',
                                 CHEMIN = LIGNE,
                                 RESULTAT = RESU,
                                 NOM_CHAM =  'SIGM_ELNO',
                                 OPERATION = 'EXTRACTION',
                                 TOUT_CMP = 'OUI',
                               ),
                     ) ;

T1=POST_RCCM(  OPTION='PM_PB',
               TYPE_RESU_MECA='EVOLUTION',
               MATER=MA,
               TRANSITOIRE=_F( TABL_RESU_MECA=T_RESU, ),
             )

IMPR_TABLE( TABLE=T1,
            NOM_PARA=('LIEU','PM','PB','PMB'),  )

TEST_TABLE(  TABLE=T1,
             FILTRE=_F(NOM_PARA='LIEU',
                        VALE_K='ORIG' ),
             REFERENCE='NON_REGRESSION',
             NOM_PARA='PM',
             VALE=7.99918E+01       )

TEST_TABLE(  TABLE=T1,
             FILTRE=_F(NOM_PARA='LIEU',
                        VALE_K='ORIG' ),
             REFERENCE='NON_REGRESSION',
             NOM_PARA='PB',
             CRITERE='RELATIF',
             PRECISION=1.2e-3,
             VALE=5.44118E+01       )

TEST_TABLE(  TABLE=T1,
             FILTRE=_F(NOM_PARA='LIEU',
                        VALE_K='ORIG' ),
             REFERENCE='NON_REGRESSION',
             NOM_PARA='PMB',
             VALE=1.34519E+02       )

TEST_TABLE(  TABLE=T1,
             FILTRE=_F(NOM_PARA='LIEU',
                        VALE_K='EXTR' ),
             REFERENCE='NON_REGRESSION',
             NOM_PARA='PMB',
             VALE=3.27687E+01       )

#-----------------------------------------------------------------

TEST_RESU(RESU=(

           _F(  RESULTAT = RESU, NUME_ORDRE=1, NOM_CHAM='SIGM_ELNO',
           CRITERE = 'RELATIF',    PRECISION = 6.E-2, REFERENCE = 'ANALYTIQUE',
 GROUP_NO = 'A',    MAILLE = 'M119',    NOM_CMP = 'SIXX',       VALE = -60.),
           _F(  RESULTAT = RESU, NUME_ORDRE=1, NOM_CHAM='SIGM_ELNO',
           CRITERE = 'ABSOLU',     PRECISION = 1.1, REFERENCE = 'ANALYTIQUE',
 GROUP_NO = 'A',    MAILLE = 'M119',    NOM_CMP = 'SIYY',       VALE = 0.),
           _F(  RESULTAT = RESU, NUME_ORDRE=1, NOM_CHAM='SIGM_ELNO',
           CRITERE = 'RELATIF',    PRECISION = 1.5E-2, REFERENCE = 'ANALYTIQUE',
 GROUP_NO = 'A',    MAILLE = 'M119',    NOM_CMP = 'SIZZ',       VALE = 100.),
           _F(  RESULTAT = RESU, NUME_ORDRE=1, NOM_CHAM='SIGM_ELNO',
           CRITERE = 'ABSOLU',     PRECISION = 1.2, REFERENCE = 'ANALYTIQUE',
 GROUP_NO = 'A',    MAILLE = 'M119',    NOM_CMP = 'SIXY',       VALE = 0.))
           )

#-----------------------------------------------------------------

TEST_RESU(RESU=(

           _F(  RESULTAT = RESU, NUME_ORDRE=1, NOM_CHAM='SIGM_ELNO',
           CRITERE = 'ABSOLU',     PRECISION = 1., REFERENCE = 'ANALYTIQUE',
 GROUP_NO = 'B',    MAILLE = 'M1',      NOM_CMP = 'SIXX',       VALE = 0.),
           _F(  RESULTAT = RESU, NUME_ORDRE=1, NOM_CHAM='SIGM_ELNO',
           CRITERE = 'ABSOLU',     PRECISION = 0.5, REFERENCE = 'ANALYTIQUE',
 GROUP_NO = 'B',    MAILLE = 'M1',      NOM_CMP = 'SIYY',       VALE = 0.),
           _F(  RESULTAT = RESU, NUME_ORDRE=1, NOM_CHAM='SIGM_ELNO',
           CRITERE = 'RELATIF',    PRECISION = 1.3E-2, REFERENCE = 'ANALYTIQUE',
 GROUP_NO = 'B',    MAILLE = 'M1',      NOM_CMP = 'SIZZ',       VALE = 40.),
           _F(  RESULTAT = RESU, NUME_ORDRE=1, NOM_CHAM='SIGM_ELNO',
           CRITERE = 'ABSOLU',     PRECISION = 0.15, REFERENCE = 'ANALYTIQUE',
 GROUP_NO = 'B',    MAILLE = 'M1',      NOM_CMP = 'SIXY',       VALE = 0.))
           )

#-----------------------------------------------------------------

TEST_RESU(RESU=(

           _F(  RESULTAT = RESU, NUME_ORDRE=1, NOM_CHAM='SIGM_ELNO',
           CRITERE = 'RELATIF',    PRECISION = 6.E-2, REFERENCE = 'ANALYTIQUE',
 GROUP_NO = 'E',    MAILLE = 'M120',    NOM_CMP = 'SIXX',       VALE = -60.),
           _F(  RESULTAT = RESU, NUME_ORDRE=1, NOM_CHAM='SIGM_ELNO',
           CRITERE = 'ABSOLU',     PRECISION = 1.1, REFERENCE = 'ANALYTIQUE',
 GROUP_NO = 'E',    MAILLE = 'M120',    NOM_CMP = 'SIYY',       VALE = 0.),
           _F(  RESULTAT = RESU, NUME_ORDRE=1, NOM_CHAM='SIGM_ELNO',
           CRITERE = 'RELATIF',    PRECISION = 1.5E-2, REFERENCE = 'ANALYTIQUE',
 GROUP_NO = 'E',    MAILLE = 'M120',    NOM_CMP = 'SIZZ',       VALE = 100.),
           _F(  RESULTAT = RESU, NUME_ORDRE=1, NOM_CHAM='SIGM_ELNO',
           CRITERE = 'ABSOLU',     PRECISION = 1.2, REFERENCE = 'ANALYTIQUE',
 GROUP_NO = 'E',    MAILLE = 'M120',    NOM_CMP = 'SIXY',       VALE = 0.))
           )

#-----------------------------------------------------------------

TEST_RESU(RESU=(

           _F(  RESULTAT = RESU, NUME_ORDRE=1, NOM_CHAM='SIGM_ELNO',
           CRITERE = 'ABSOLU',     PRECISION = 1., REFERENCE = 'ANALYTIQUE',
 GROUP_NO = 'F',    MAILLE = 'M5',      NOM_CMP = 'SIXX',       VALE = 0.),
           _F(  RESULTAT = RESU, NUME_ORDRE=1, NOM_CHAM='SIGM_ELNO',
           CRITERE = 'ABSOLU',     PRECISION = 0.5, REFERENCE = 'ANALYTIQUE',
 GROUP_NO = 'F',    MAILLE = 'M5',      NOM_CMP = 'SIYY',       VALE = 0.),
           _F(  RESULTAT = RESU, NUME_ORDRE=1, NOM_CHAM='SIGM_ELNO',
           CRITERE = 'RELATIF',    PRECISION = 1.E-2, REFERENCE = 'ANALYTIQUE',
 GROUP_NO = 'F',    MAILLE = 'M5',      NOM_CMP = 'SIZZ',       VALE = 40.),
           _F(  RESULTAT = RESU, NUME_ORDRE=1, NOM_CHAM='SIGM_ELNO',
           CRITERE = 'ABSOLU',     PRECISION = 0.15, REFERENCE = 'ANALYTIQUE',
 GROUP_NO = 'F',    MAILLE = 'M5',      NOM_CMP = 'SIXY',       VALE = 0.))
           )

#--------------------------------------------------------------------

FIN( )
#
