# MODIF  DATE 17/01/2012   AUTEUR SELLENET N.SELLENET 
# TITRE CYLINDRE SOUS PRESSION EXTERIEURE VARIABLE (AXIS_FOURIER)
#            CONFIGURATION MANAGEMENT OF EDF VERSION
# ======================================================================
# COPYRIGHT (C) 1991 - 2012  EDF R&D                  WWW.CODE-ASTER.ORG
# THIS PROGRAM IS FREE SOFTWARE; YOU CAN REDISTRIBUTE IT AND/OR MODIFY
# IT UNDER THE TERMS OF THE GNU GENERAL PUBLIC LICENSE AS PUBLISHED BY
# THE FREE SOFTWARE FOUNDATION; EITHER VERSION 2 OF THE LICENSE, OR
# (AT YOUR OPTION) ANY LATER VERSION.
#
# THIS PROGRAM IS DISTRIBUTED IN THE HOPE THAT IT WILL BE USEFUL, BUT
# WITHOUT ANY WARRANTY; WITHOUT EVEN THE IMPLIED WARRANTY OF
# MERCHANTABILITY OR FITNESS FOR A PARTICULAR PURPOSE. SEE THE GNU
# GENERAL PUBLIC LICENSE FOR MORE DETAILS.
#
# YOU SHOULD HAVE RECEIVED A COPY OF THE GNU GENERAL PUBLIC LICENSE
# ALONG WITH THIS PROGRAM; IF NOT, WRITE TO EDF R&D CODE_ASTER,
#    1 AVENUE DU GENERAL DE GAULLE, 92141 CLAMART CEDEX, FRANCE.
# ======================================================================
DEBUT(CODE=_F(NOM='SSLV304A', NIV_PUB_WEB='INTERNET'), DEBUG=_F(SDVERI='OUI'))

MAIL=LIRE_MAILLAGE(FORMAT='MED',)

#
# DEFINITION DES GROUPES DE NOEUDS
MAIL=DEFI_GROUP( reuse=MAIL,   MAILLAGE=MAIL,CREA_GROUP_NO=(
                       _F(  GROUP_MA = 'ENCAST'),
                       _F(  GROUP_MA = ('LAB', 'LBH', 'LHE', 'LEC', 'LCD',)))
                   )

#
# DEFINITION DU MODELE
MODELE=AFFE_MODELE(    MAILLAGE=MAIL,
                         AFFE=_F(  TOUT = 'OUI',
                       PHENOMENE = 'MECANIQUE',
                       MODELISATION = 'AXIS_FOURIER')  )

#
# DEFINITION DU MATERIAU
ACIER=DEFI_MATERIAU(    ELAS=_F(  E = 2.1E11,  NU = 0.3,
                                 ALPHA = 1.E-5,  RHO = 7800.)
                      )

#
# ATTRIBUTION DU MATERIAU
CHMAT=AFFE_MATERIAU(    MAILLAGE=MAIL,
                          AFFE=_F(  TOUT = 'OUI',
                                 MATER = ACIER)  )

# DEFINITION DES CONDITIONS AUX LIMITES ET CHARGEMENTS
CLIM=AFFE_CHAR_MECA(    MODELE=MODELE,
                            DDL_IMPO=_F(  GROUP_NO = 'ENCAST',
                                       DX = 0.,  DY = 0.,  DZ = 0.)  )

#   PRESSION RADIALE SUR BC
PR1_RAD=AFFE_CHAR_MECA(     MODELE=MODELE,
                              PRES_REP=_F(  GROUP_MA = ('LBH', 'LHE', 'LEC',),
                                         PRES = 250.)
                          )

#   PRESSION LONGIT. SUR BC
F_Y=DEFI_FONCTION(    NOM_PARA='Y',
                        VALE=( 0.,         0.,
                               0.24,   10000., )
                    )

PR1_LON=AFFE_CHAR_MECA_F(   MODELE=MODELE,
                              FORCE_CONTOUR=_F(  GROUP_MA = ('LBH', 'LHE', 'LEC',),
                                              FY = F_Y)
                          )

#   PRESSION NORMALE SUR CD
F_R=DEFI_FONCTION(    NOM_PARA='X',
                        VALE=( 0.,        0.,
                               0.006,   583.333, )
                    )

PR2_NOR=AFFE_CHAR_MECA_F(   MODELE=MODELE,
                              PRES_REP=_F(  GROUP_MA = 'LCD',
                                         PRES = F_R)
                          )

#   PRESSION TANGENTIELLE SUR  CD
PR2_TAN=AFFE_CHAR_MECA(     MODELE=MODELE,
                              FORCE_CONTOUR=_F(  GROUP_MA = 'LCD',
                                              FX = 10000.,  FZ = 10000.)
                          )

#  RESOLUTION
DEF=MACRO_ELAS_MULT(        MODELE=MODELE,
                              CHAM_MATER=CHMAT,
                              CHAR_MECA_GLOBAL=CLIM,
                              CAS_CHARGE=_F(
                                           MODE_FOURIER = 1,

                                           TYPE_MODE = 'ANTI',
                                           CHAR_MECA = (PR1_RAD, PR1_LON,
                                                        PR2_NOR, PR2_TAN,),
                                           OPTION = 'SIGM_ELNO')
                           )

# RECUPERATION DES CHAMPS ELEMENTAIRES
U0=CREA_CHAMP(  OPERATION='EXTR', TYPE_CHAM='NOEU_DEPL_R',
NOM_CHAM='DEPL', RESULTAT=DEF,
                 NUME_ORDRE=1
                   )

#
# RECOMBINAISONS DE FOURIER EN DEPLACEMENTS ET CONTRAINTES
# POUR TETA = 45. DEGRES
U=COMB_FOURIER(    RESULTAT=DEF,
                       NOM_CHAM=( 'DEPL',
                                  'SIGM_ELNO', ),
                       ANGL=45. )

U_R=CREA_CHAMP(  OPERATION='EXTR', TYPE_CHAM='NOEU_DEPL_R',
NOM_CHAM='DEPL', RESULTAT=U,
                  NUME_ORDRE=1
                   )

#
TEST_RESU(RESU=(    _F(  RESULTAT = U,
                      NOM_CHAM = 'DEPL',
                      ANGL = 45.,
                      NOEUD = 'N461',
                      NOM_CMP = 'DX',
                      VALE = 1.751E-8,
                      PRECISION = 0.037),
               _F(  RESULTAT = U,
                      NOM_CHAM = 'DEPL',
                      ANGL = 45.,
                      NOEUD = 'N461',
                      NOM_CMP = 'DY',
                      VALE = 0.,
                      CRITERE = 'ABSOLU',
                      PRECISION = 0.009),
               _F(  RESULTAT = U,
                      NOM_CHAM = 'DEPL',
                      ANGL = 45.,
                      NOEUD = 'N461',
                      NOM_CMP = 'DZ',
                      VALE = 1.751E-8,
                      PRECISION = 0.037),
               _F(  RESULTAT = U,
                      NOM_CHAM = 'DEPL',
                      ANGL = 45.,
                      NOEUD = 'N460',
                      NOM_CMP = 'DX',
                      VALE = 1.751E-8,
                      PRECISION = 0.037),
               _F(  RESULTAT = U,
                      NOM_CHAM = 'DEPL',
                      ANGL = 45.,
                      NOEUD = 'N460',
                      NOM_CMP = 'DY',
                      VALE = -3.502E-10,
                      PRECISION = 0.088),
               _F(  RESULTAT = U,
                      NOM_CHAM = 'DEPL',
                      ANGL = 45.,
                      NOEUD = 'N460',
                      NOM_CMP = 'DZ',
                      VALE = 1.751E-8,
                      PRECISION = 0.037))
          )

TEST_RESU(RESU=(    _F(  RESULTAT = U,
                      NOM_CHAM = 'SIGM_ELNO',
                      ANGL = 45.,
                      MAILLE = 'M8',
                      NOEUD = 'N5',
                      NOM_CMP = 'SIXX',
                      VALE = -176.77,
                      PRECISION = 0.017),
               _F(  RESULTAT = U,
                      NOM_CHAM = 'SIGM_ELNO',
                      ANGL = 45.,
                      MAILLE = 'M8',
                      NOEUD = 'N5',
                      NOM_CMP = 'SIYY',
                      VALE = -412.48,
                      PRECISION = 0.038),
               _F(  RESULTAT = U,
                      NOM_CHAM = 'SIGM_ELNO',
                      ANGL = 45.,
                      MAILLE = 'M8',
                      NOEUD = 'N5',
                      NOM_CMP = 'SIZZ',
                      VALE = -176.77,
                      PRECISION = 0.032),
               _F(  RESULTAT = U,
                      NOM_CHAM = 'SIGM_ELNO',
                      ANGL = 45.,
                      MAILLE = 'M8',
                      NOEUD = 'N5',
                      NOM_CMP = 'SIXY',
                      VALE = 0.,
                      CRITERE = 'ABSOLU',
                      PRECISION = 5.),
               _F(  RESULTAT = U,
                      NOM_CHAM = 'SIGM_ELNO',
                      ANGL = 45.,
                      MAILLE = 'M1',
                      NOEUD = 'N1',
                      NOM_CMP = 'SIXX',
                      VALE = 0.,
                      CRITERE = 'ABSOLU',
                      PRECISION = 45.),
               _F(  RESULTAT = U,
                      NOM_CHAM = 'SIGM_ELNO',
                      ANGL = 45.,
                      MAILLE = 'M1',
                      NOEUD = 'N1',
                      NOM_CMP = 'SIYY',
                      VALE = 0.,
                      CRITERE = 'ABSOLU',
                      PRECISION = 105.),
               _F(  RESULTAT = U,
                      NOM_CHAM = 'SIGM_ELNO',
                      ANGL = 45.,
                      MAILLE = 'M1',
                      NOEUD = 'N1',
                      NOM_CMP = 'SIZZ',
                      VALE = 0.,
                      CRITERE = 'ABSOLU',
                      PRECISION = 45.),
               _F(  RESULTAT = U,
                      NOM_CHAM = 'SIGM_ELNO',
                      ANGL = 45.,
                      MAILLE = 'M1',
                      NOEUD = 'N1',
                      NOM_CMP = 'SIXY',
                      VALE = 0.,
                      CRITERE = 'ABSOLU',
                      PRECISION = 30.))
           )

#
FIN()
#
