# MODIF  DATE 09/06/2009   AUTEUR REZETTE C.REZETTE 
# TITRE PARALLEPEPIPEDE SOUS SON PROPRE POIDS (HEXA20 GROSSIER)
#            CONFIGURATION MANAGEMENT OF EDF VERSION
# ======================================================================
# COPYRIGHT (C) 1991 - 2004  EDF R&D                  WWW.CODE-ASTER.ORG
# THIS PROGRAM IS FREE SOFTWARE; YOU CAN REDISTRIBUTE IT AND/OR MODIFY
# IT UNDER THE TERMS OF THE GNU GENERAL PUBLIC LICENSE AS PUBLISHED BY
# THE FREE SOFTWARE FOUNDATION; EITHER VERSION 2 OF THE LICENSE, OR
# (AT YOUR OPTION) ANY LATER VERSION.
#
# THIS PROGRAM IS DISTRIBUTED IN THE HOPE THAT IT WILL BE USEFUL, BUT
# WITHOUT ANY WARRANTY; WITHOUT EVEN THE IMPLIED WARRANTY OF
# MERCHANTABILITY OR FITNESS FOR A PARTICULAR PURPOSE. SEE THE GNU
# GENERAL PUBLIC LICENSE FOR MORE DETAILS.
#
# YOU SHOULD HAVE RECEIVED A COPY OF THE GNU GENERAL PUBLIC LICENSE
# ALONG WITH THIS PROGRAM; IF NOT, WRITE TO EDF R&D CODE_ASTER,
#    1 AVENUE DU GENERAL DE GAULLE, 92141 CLAMART CEDEX, FRANCE.
# ======================================================================
#            CONFIGURATION MANAGEMENT OF EDF VERSION
# ======================================================================
#CAS_TEST__: SSLV07D
# SSLV07/D
# ETIREMENT D'UN PARALLELEPIPEDE SOUS SON PROPRE POIDS
# PRESSION REPARTIE  + CALCUL DES CONTRAINTES
# DECOUPAGE: Z=3   X=2    Y=2                      REF: SFM.VPCS SSLV07
# MODELISATION 3D:  111 NOEUDS -- 12 MAILLES HEXA20
# POINTS:   A:N59  B:N53  E:N56  C:N12  D:N18
#======================================================================

DEBUT(CODE=_F(NOM='SSLV07D', NIV_PUB_WEB='INTERNET'), DEBUG=_F(SDVERI='OUI'))

PRE_GIBI(UNITE_GIBI=19,UNITE_MAILLAGE=20)

MA1=LIRE_MAILLAGE( UNITE = 20 )

DEFI_GROUP( reuse=MA1, MAILLAGE=MA1,
            CREA_GROUP_NO=(_F( NOM = 'B', NOEUD='N18'),
                           _F( NOM = 'C', NOEUD='N10'),
                           _F( NOM = 'BX' ,
                               NOEUD=('N27','N46','N18'))))

PRE_GIBI(UNITE_GIBI=23,UNITE_MAILLAGE=21)

MA2=LIRE_MAILLAGE( UNITE = 21 )

DEFI_GROUP( reuse=MA2, MAILLAGE=MA2,
            CREA_GROUP_NO=(_F( NOM = 'E', NOEUD='N46'),
                           _F( NOM = 'A', NOEUD='N27'),
                           _F( NOM = 'D', NOEUD='N34'),
                           _F( NOM = 'AXSANSA' ,
                               NOEUD=('N18','N46','N57','N76'))))

MA=ASSE_MAILLAGE(MAILLAGE_1=MA1,
                 MAILLAGE_2=MA2,
                 OPERATION='COLLAGE',
                 COLLAGE=_F(GROUP_MA_1='SURF1',
                            GROUP_MA_2='SURF2'))


DEFI_GROUP( reuse=MA, MAILLAGE=MA,
            CREA_GROUP_MA=_F( NOM = 'VOLUM',OPTION='APPUI', 
                              TYPE_APPUI='AU_MOINS_UN',
                           GROUP_NO='A'))

DEFI_GROUP( reuse=MA, MAILLAGE=MA,
            CREA_GROUP_NO=_F( NOM = 'ABSANSA',UNION=('BX','AXSANSA')))


MO=AFFE_MODELE(MAILLAGE=MA,
               AFFE=_F(TOUT='OUI',
                       PHENOMENE='MECANIQUE',
                       MODELISATION='3D_INCO',),);

MAT=DEFI_MATERIAU(ELAS=_F(E=200000000000.0,
                          NU=0.3,
                          RHO=7800.0,
                          ALPHA=0.0,),);

MAT2=DEFI_MATERIAU(ELAS=_F(E=200000000000.0,
                           NU=0.3,
                           RHO=7800.0,
                           ALPHA=0.0,),
                   ECRO_LINE=_F(D_SIGM_EPSI=200.0,
                                SY=1000000.0,),);

CHMAT=AFFE_MATERIAU(MAILLAGE=MA,
                    AFFE=_F(TOUT='OUI',
                            MATER=MAT,),);

CHMAT2=AFFE_MATERIAU(MAILLAGE=MA,
                     AFFE=_F(TOUT='OUI',
                             MATER=MAT2,),);

# ------------------------------------------------------------------
#    --- STRUCTURE SUSPENDUE //Z EN A + PAS DE ROTATION

BLOQU=AFFE_CHAR_MECA(MODELE=MO,
                     DDL_IMPO=(_F(GROUP_NO='A',
                                  DX=0.0,
                                  DY=0.0,
                                  DZ=0.0,),
                               _F(GROUP_NO='D',
                                  DY=0.0,),
                               _F(GROUP_NO='ABSANSA',
                                  DX=0.0,
                                  DY=0.0,),),);

CH=AFFE_CHAR_MECA(MODELE=MO,
                  PESANTEUR=(9.81,0.0,0.0,-1.0,),
                  FORCE_FACE=_F(GROUP_MA='FACESUP',
                                FZ=229553.0,),);
# ------------------------------------------------------------------
L_INST=DEFI_LIST_REEL(DEBUT=0.0,
                      INTERVALLE=(
                      _F(JUSQU_A=1.0, NOMBRE=10,),
                      _F(JUSQU_A=1.1, NOMBRE=1,),
                      ),);

RAMPE=DEFI_FONCTION(NOM_PARA='INST',
                    VALE=(0.0,0.0,10.,10.,),
                    PROL_DROITE='LINEAIRE',
                    PROL_GAUCHE='LINEAIRE',);
# STAT_NON_LINE 'VMIS'
#---------------------

DEPLD2=STAT_NON_LINE(MODELE=MO,
                     CHAM_MATER=CHMAT2,
                     EXCIT=(_F(CHARGE=BLOQU,),
                            _F(CHARGE=CH,
                               FONC_MULT=RAMPE,),),
                     COMP_INCR=_F(RELATION='VMIS_ISOT_LINE',
                                  RESI_INTE_RELA=1e-08,
                                  ITER_INTE_MAXI=30,),
                     INCREMENT=_F(LIST_INST=L_INST,),
                     NEWTON=_F(MATRICE='TANGENTE',
                               REAC_ITER=2,),
                     CONVERGENCE=_F(RESI_GLOB_RELA=1e-06),
                     ARCHIVAGE=_F(LIST_INST=L_INST,
                                  CHAM_EXCLU='VARI_ELGA',),);

DEPLD2 = CALC_ELEM (reuse=DEPLD2,
              RESULTAT= DEPLD2,

              OPTION= (
               'SIEF_ELNO_ELGA',
               'ERRE_ELEM_SIGM',
               'ERRE_ELNO_ELEM',
           ),   ) ;

#---------------------------------------------------------------------
#    ESTIMATEUR D'ERREUR EN RESIDU

TEST_RESU(RESU=(_F(RESULTAT=DEPLD2,
                   NUME_ORDRE=10,
                   NOM_CHAM='ERRE_ELEM_SIGM',
                   NOM_CMP='NUEST',
                   MAILLE='M10',
                   POINT=1,
                   VALE=9.6615245616178E-04,
                   REFERENCE='NON_REGRESSION',
                   VERSION='7.02.10',),
                _F(RESULTAT=DEPLD2,
                   NUME_ORDRE=10,
                   NOM_CHAM='ERRE_ELNO_ELEM',
                   NOM_CMP='ERREST',
                   MAILLE='M6',
                   NOEUD='N96',
                   VALE=1.7228918364607E-01,
                   REFERENCE='NON_REGRESSION',
                   VERSION='7.02.10',),
                ),
          )
#---------------------------------------------------------------------
#    TEST EN CONTRAINTES
#
TEST_RESU(RESU=(
                _F(RESULTAT=DEPLD2,
                   NUME_ORDRE=10,
                   NOM_CHAM = 'DEPL',
                   NOEUD='N17',
                   NOM_CMP='DX',
                   VALE=0.0,
                   CRITERE='ABSOLU',
                   PRECISION=1e-10,
                   REFERENCE='ANALYTIQUE',),
                _F(RESULTAT=DEPLD2,
                   NUME_ORDRE=10,
                   NOM_CHAM = 'DEPL',
                   NOEUD='N17',
                   NOM_CMP='DY',
                   VALE=0.0,
                   CRITERE='ABSOLU',
                   PRECISION=1e-10,
                   REFERENCE='ANALYTIQUE',),
                _F(RESULTAT=DEPLD2,
                   NUME_ORDRE=10,
                   NOM_CHAM = 'DEPL',
                   NOEUD='N17',
                   NOM_CMP='DZ',
                   VALE=-1.721655e-06,
                   CRITERE='RELATIF',
                   PRECISION=0.001,
                   REFERENCE='ANALYTIQUE',),
                _F(RESULTAT=DEPLD2,
                   NUME_ORDRE=10,
                   NOM_CHAM = 'DEPL',
                   NOEUD='N9',
                   NOM_CMP='DX',
                   VALE=0.0,
                   CRITERE='ABSOLU',
                   PRECISION=1e-10,
                   REFERENCE='ANALYTIQUE',),
                _F(RESULTAT=DEPLD2,
                   NUME_ORDRE=10,
                   NOM_CHAM = 'DEPL',
                   NOEUD='N9',
                   NOM_CMP='DY',
                   VALE=0.0,
                   CRITERE='ABSOLU',
                   PRECISION=1e-10,
                   REFERENCE='ANALYTIQUE',),
                _F(RESULTAT=DEPLD2,
                   NUME_ORDRE=10,
                   NOM_CHAM = 'DEPL',
                   NOEUD='N9',
                   NOM_CMP='DZ',
                   VALE=-1.707308e-06,
                   CRITERE='RELATIF',
                   PRECISION=0.001,
                   REFERENCE='ANALYTIQUE',),
                _F(RESULTAT=DEPLD2,
                   NUME_ORDRE=10,
                   NOM_CHAM = 'DEPL',
                   NOEUD='N84',
                   NOM_CMP='DX',
                   VALE=-1.721655e-07,
                   CRITERE='RELATIF',
                   PRECISION=0.001,
                   REFERENCE='ANALYTIQUE',),
                _F(RESULTAT=DEPLD2,
                   NUME_ORDRE=10,
                   NOM_CHAM = 'DEPL',
                   NOEUD='N84',
                   NOM_CMP='DY',
                   VALE=0.0,
                   CRITERE='ABSOLU',
                   PRECISION=1e-10,
                   REFERENCE='ANALYTIQUE',),
                _F(RESULTAT=DEPLD2,
                   NUME_ORDRE=10,
                   NOM_CHAM = 'DEPL',
                   NOEUD='N84',
                   NOM_CMP='DZ',
                   VALE=1.434713e-08,
                   CRITERE='RELATIF',
                   PRECISION=0.003,
                   REFERENCE='ANALYTIQUE',),
                _F(RESULTAT=DEPLD2,
                   NUME_ORDRE=10,
                   NOM_CHAM = 'DEPL',
                   NOEUD='N96',
                   NOM_CMP='DX',
                   VALE=0.0,
                   CRITERE='ABSOLU',
                   PRECISION=1e-10,
                   REFERENCE='ANALYTIQUE',),
                _F(RESULTAT=DEPLD2,
                   NUME_ORDRE=10,
                   NOM_CHAM = 'DEPL',
                   NOEUD='N96',
                   NOM_CMP='DY',
                   VALE=0.0,
                   CRITERE='ABSOLU',
                   PRECISION=1e-10,
                   REFERENCE='ANALYTIQUE',),
                _F(RESULTAT=DEPLD2,
                   NUME_ORDRE=10,
                   NOM_CHAM = 'DEPL',
                   NOEUD='N96',
                   NOM_CMP='DZ',
                   VALE=-1.291241e-06,
                   CRITERE='RELATIF',
                   PRECISION=0.001,
                   REFERENCE='ANALYTIQUE',),
                _F(RESULTAT=DEPLD2,
                   NUME_ORDRE=10,
                   NOM_CHAM = 'SIEF_ELNO_ELGA',
                   MAILLE='M10',
                   NOEUD='N77',
                   NOM_CMP='SIZZ',
                   VALE=229554.0,
                   CRITERE='RELATIF',
                   PRECISION=0.001,
                   REFERENCE='ANALYTIQUE',),
                _F(RESULTAT=DEPLD2,
                   NUME_ORDRE=10,
                   NOM_CHAM = 'SIEF_ELNO_ELGA',
                   MAILLE='M6',
                   NOEUD='N96',
                   NOM_CMP='SIZZ',
                   VALE=114777.0,
                   CRITERE='RELATIF',
                   PRECISION=0.001,
                   REFERENCE='ANALYTIQUE',),),);
FIN();
