# MODIF  DATE 22/10/2007   AUTEUR PELLET J.PELLET 
# TITRE CYLINDRE EN C.P. (TRIA6 QUAD8) AXISYM
#            CONFIGURATION MANAGEMENT OF EDF VERSION
# ======================================================================
# COPYRIGHT (C) 1991 - 2001  EDF R&D                  WWW.CODE-ASTER.ORG
# THIS PROGRAM IS FREE SOFTWARE; YOU CAN REDISTRIBUTE IT AND/OR MODIFY
# IT UNDER THE TERMS OF THE GNU GENERAL PUBLIC LICENSE AS PUBLISHED BY
# THE FREE SOFTWARE FOUNDATION; EITHER VERSION 2 OF THE LICENSE, OR
# (AT YOUR OPTION) ANY LATER VERSION.
#
# THIS PROGRAM IS DISTRIBUTED IN THE HOPE THAT IT WILL BE USEFUL, BUT
# WITHOUT ANY WARRANTY; WITHOUT EVEN THE IMPLIED WARRANTY OF
# MERCHANTABILITY OR FITNESS FOR A PARTICULAR PURPOSE. SEE THE GNU
# GENERAL PUBLIC LICENSE FOR MORE DETAILS.
#
# YOU SHOULD HAVE RECEIVED A COPY OF THE GNU GENERAL PUBLIC LICENSE
# ALONG WITH THIS PROGRAM; IF NOT, WRITE TO EDF R&D CODE_ASTER,
#    1 AVENUE DU GENERAL DE GAULLE, 92141 CLAMART CEDEX, FRANCE.
# ======================================================================
#CAS_TEST__: SSLV04I
#
# ----------------------------------------------------------------------
# SSLV04 I                  COMMANDES                           22/08/91
# CYLINDRE CREUX EN CONTRAINTES PLANES
#
# MODELISATION : ELEMENTS MECANIQUE C_PLAN (TRIA6 QUAD8)     AXIS
# MAILLAGE     : ALIBABA > ASTER
# ----------------------------------------------------------------------
# GROUPES DE NOEUDS ET MAILLES: A B C D E F
#             BORDAB=GRNM11     FACEEF=GRMA12     FACEAE=GRMA13
# ----------------------------------------------------------------------
#

DEBUT(CODE=_F(NOM='SSLV04I',NIV_PUB_WEB='INTERNET'),DEBUG=_F(SDVERI='OUI'))

M=LIRE_MAILLAGE(   )

MO=AFFE_MODELE(            MAILLAGE=M,
                                   VERIF='MAILLE',
                                  AFFE=_F(  TOUT = 'OUI',
                                         PHENOMENE = 'MECANIQUE',
                                         MODELISATION = 'AXIS'))

MA=DEFI_MATERIAU(            ELAS=_F(  E = 200000.,
                                         NU = 0.3,
                                         ALPHA = 0.) )

CM=AFFE_MATERIAU(        MAILLAGE=M,
                                  AFFE=_F(  TOUT = 'OUI',
                                         MATER = MA))

CH=AFFE_CHAR_MECA(         MODELE=MO,
                              DDL_IMPO=_F(  GROUP_NO = 'F',       DY = 0.),
                              PRES_REP=_F(  GROUP_MA = 'GRMA13',  PRES = 60.))



RESU=MECA_STATIQUE(MODELE=MO,
                   CHAM_MATER=CM,
                   EXCIT=_F(CHARGE=CH,),
                   );

RESU=CALC_ELEM( reuse= RESU ,RESULTAT=RESU ,
                             NUME_ORDRE=1,

                             OPTION=('EPSI_ELNO_DEPL',),
                )

RESU=CALC_ELEM( reuse= RESU ,RESULTAT=RESU ,
                             NUME_ORDRE=1,

                             OPTION=('SIGM_ELNO_DEPL',),
                )

RESU=CALC_ELEM( reuse= RESU, RESULTAT=RESU ,
                             NUME_ORDRE=1,

                             OPTION=('ENDO_ELNO_SIGA',),
                )

RESU=CALC_ELEM( reuse= RESU, RESULTAT=RESU ,
                             NUME_ORDRE=1,

                             OPTION=('ENDO_ELNO_SINO',),
                )


TR1=POST_RELEVE_T(
      ACTION=_F(  INTITULE = 'EXT_SIGM',
               GROUP_NO = (  'A', 'B', 'C', 'D', 'E', 'F', ),
               RESULTAT = RESU,
               NOM_CHAM='SIGM_ELNO_DEPL',
               NOM_CMP = ('SIXX', 'SIYY', 'SIZZ', 'SIXY',),
               OPERATION = 'EXTRACTION') )

TEST_RESU(RESU=(
   # DEPLACEMENTS

         _F(  RESULTAT = RESU, NUME_ORDRE=1, NOM_CHAM='DEPL',
         CRITERE = 'RELATIF',   PRECISION = 1.E-3,
         GROUP_NO = 'A',     NOM_CMP = 'DX',            VALE = 59.E-6),
         _F(  RESULTAT = RESU, NUME_ORDRE=1, NOM_CHAM='DEPL',
         CRITERE = 'RELATIF',   PRECISION = 1.E-3,
         GROUP_NO = 'B',     NOM_CMP = 'DX',            VALE = 40.E-6),
#        ( RESULTAT : RESU  CRITERE:'RELATIF'   PRECISION: 1.E-3
#        GROUP_NO: C     NOM_CMP:'DX'            VALE: 59.E-6       )
#        ( RESULTAT : RESU  CRITERE:'RELATIF'   PRECISION: 1.E-3
#        GROUP_NO: D     NOM_CMP:'DX'            VALE: 40.E-6       )
         _F(  RESULTAT = RESU, NUME_ORDRE=1, NOM_CHAM='DEPL',
         CRITERE = 'RELATIF',   PRECISION = 1.E-3,
         GROUP_NO = 'E',     NOM_CMP = 'DX',            VALE = 59.E-6),
         _F(  RESULTAT = RESU, NUME_ORDRE=1, NOM_CHAM='DEPL',
         CRITERE = 'RELATIF',   PRECISION = 1.E-3,
         GROUP_NO = 'F',     NOM_CMP = 'DX',            VALE = 40.E-6),


    # DEFORMATIONS


           _F(  RESULTAT = RESU, NUME_ORDRE=1, NOM_CHAM='EPSI_ELNO_DEPL',
           CRITERE = 'RELATIF',    PRECISION = 0.01,
 GROUP_NO = 'A',    MAILLE = 'M2',      NOM_CMP = 'EPXX',       VALE = -4.5E-4),
           _F(  RESULTAT = RESU, NUME_ORDRE=1, NOM_CHAM='EPSI_ELNO_DEPL',
           CRITERE = 'ABSOLU',     PRECISION = 0.01,
 GROUP_NO = 'A',    MAILLE = 'M2',      NOM_CMP = 'EPYY',       VALE = 0.),
           _F(  RESULTAT = RESU, NUME_ORDRE=1, NOM_CHAM='EPSI_ELNO_DEPL',
           CRITERE = 'RELATIF',    PRECISION = 0.01,
 GROUP_NO = 'A',    MAILLE = 'M2',      NOM_CMP = 'EPZZ',       VALE = 5.9E-4),
           _F(  RESULTAT = RESU, NUME_ORDRE=1, NOM_CHAM='EPSI_ELNO_DEPL',
           CRITERE = 'ABSOLU',     PRECISION = 0.01,
 GROUP_NO = 'A',    MAILLE = 'M2',      NOM_CMP = 'EPXY',       VALE = 0.),

           _F(  RESULTAT = RESU, NUME_ORDRE=1, NOM_CHAM='EPSI_ELNO_DEPL',
           CRITERE = 'RELATIF',    PRECISION = 0.01,
 GROUP_NO = 'B',    MAILLE = 'M59',     NOM_CMP = 'EPXX',       VALE = -0.6E-4),
           _F(  RESULTAT = RESU, NUME_ORDRE=1, NOM_CHAM='EPSI_ELNO_DEPL',
           CRITERE = 'ABSOLU',     PRECISION = 0.01,
 GROUP_NO = 'B',    MAILLE = 'M59',     NOM_CMP = 'EPYY',       VALE = 0.),
           _F(  RESULTAT = RESU, NUME_ORDRE=1, NOM_CHAM='EPSI_ELNO_DEPL',
           CRITERE = 'RELATIF',    PRECISION = 0.01,
 GROUP_NO = 'B',    MAILLE = 'M59',     NOM_CMP = 'EPZZ',       VALE = 2.E-4),
           _F(  RESULTAT = RESU, NUME_ORDRE=1, NOM_CHAM='EPSI_ELNO_DEPL',
           CRITERE = 'ABSOLU',     PRECISION = 0.01,
 GROUP_NO = 'B',    MAILLE = 'M59',     NOM_CMP = 'EPXY',       VALE = 0.),


           _F(  RESULTAT = RESU, NUME_ORDRE=1, NOM_CHAM='EPSI_ELNO_DEPL',
           CRITERE = 'RELATIF',    PRECISION = 0.01,
 GROUP_NO = 'E',    MAILLE = 'M1',      NOM_CMP = 'EPXX',       VALE = -4.5E-4),
           _F(  RESULTAT = RESU, NUME_ORDRE=1, NOM_CHAM='EPSI_ELNO_DEPL',
           CRITERE = 'ABSOLU',     PRECISION = 0.01,
 GROUP_NO = 'E',    MAILLE = 'M1',      NOM_CMP = 'EPYY',       VALE = 0.),
           _F(  RESULTAT = RESU, NUME_ORDRE=1, NOM_CHAM='EPSI_ELNO_DEPL',
           CRITERE = 'RELATIF',    PRECISION = 0.01,
 GROUP_NO = 'E',    MAILLE = 'M1',      NOM_CMP = 'EPZZ',       VALE = 5.9E-4),
           _F(  RESULTAT = RESU, NUME_ORDRE=1, NOM_CHAM='EPSI_ELNO_DEPL',
           CRITERE = 'ABSOLU',     PRECISION = 0.01,
 GROUP_NO = 'E',    MAILLE = 'M1',      NOM_CMP = 'EPXY',       VALE = 0.),

           _F(  RESULTAT = RESU, NUME_ORDRE=1, NOM_CHAM='EPSI_ELNO_DEPL',
           CRITERE = 'RELATIF',    PRECISION = 0.01,
 GROUP_NO = 'F',    MAILLE = 'M48',     NOM_CMP = 'EPXX',       VALE = -0.6E-4),
           _F(  RESULTAT = RESU, NUME_ORDRE=1, NOM_CHAM='EPSI_ELNO_DEPL',
           CRITERE = 'ABSOLU',     PRECISION = 0.01,
 GROUP_NO = 'F',    MAILLE = 'M48',     NOM_CMP = 'EPYY',       VALE = 0.),
           _F(  RESULTAT = RESU, NUME_ORDRE=1, NOM_CHAM='EPSI_ELNO_DEPL',
           CRITERE = 'RELATIF',    PRECISION = 0.01,
 GROUP_NO = 'F',    MAILLE = 'M48',     NOM_CMP = 'EPZZ',       VALE = 2.E-4),
           _F(  RESULTAT = RESU, NUME_ORDRE=1, NOM_CHAM='EPSI_ELNO_DEPL',
           CRITERE = 'ABSOLU',     PRECISION = 0.01,
 GROUP_NO = 'F',    MAILLE = 'M48',     NOM_CMP = 'EPXY',       VALE = 0.))
           )

#-----------------------------------------------------------------

TEST_RESU(RESU=(

           _F(  RESULTAT = RESU, NUME_ORDRE=1, NOM_CHAM='SIGM_ELNO_DEPL',
           CRITERE = 'RELATIF',    PRECISION = 1.E-2,
 GROUP_NO = 'A',    MAILLE = 'M2',      NOM_CMP = 'SIXX',       VALE = -60.),
           _F(  RESULTAT = RESU, NUME_ORDRE=1, NOM_CHAM='SIGM_ELNO_DEPL',
           CRITERE = 'ABSOLU',     PRECISION = 0.1,
 GROUP_NO = 'A',    MAILLE = 'M2',      NOM_CMP = 'SIYY',       VALE = 0.),
           _F(  RESULTAT = RESU, NUME_ORDRE=1, NOM_CHAM='SIGM_ELNO_DEPL',
           CRITERE = 'RELATIF',    PRECISION = 1.E-3,
 GROUP_NO = 'A',    MAILLE = 'M2',      NOM_CMP = 'SIZZ',       VALE = 100.),
           _F(  RESULTAT = RESU, NUME_ORDRE=1, NOM_CHAM='SIGM_ELNO_DEPL',
           CRITERE = 'ABSOLU',     PRECISION = 0.1,
 GROUP_NO = 'A',    MAILLE = 'M2',      NOM_CMP = 'SIXY',       VALE = 0.))
           )

TEST_RESU(RESU=(

           _F(  RESULTAT = RESU, NUME_ORDRE=1, NOM_CHAM='ENDO_ELNO_SIGA',
           CRITERE = 'RELATIF',    PRECISION = 0.01,
 GROUP_NO = 'A',    MAILLE = 'M2',      NOM_CMP = 'TRIAX',      VALE = 9.5893E-2),
           _F(  RESULTAT = RESU, NUME_ORDRE=1, NOM_CHAM='ENDO_ELNO_SIGA',
           CRITERE = 'RELATIF',    PRECISION = 0.01,
 GROUP_NO = 'A',    MAILLE = 'M2',      NOM_CMP = 'SI_ENDO',      VALE = 130.265))
           )

TEST_RESU(RESU=(

           _F(  RESULTAT = RESU, NUME_ORDRE=1, NOM_CHAM='ENDO_ELNO_SINO',
           CRITERE = 'RELATIF',    PRECISION = 0.01,
 GROUP_NO = 'A',    MAILLE = 'M2',      NOM_CMP = 'TRIAX',      VALE = 9.5893E-2),
           _F(  RESULTAT = RESU, NUME_ORDRE=1, NOM_CHAM='ENDO_ELNO_SINO',
           CRITERE = 'RELATIF',    PRECISION = 0.01,
 GROUP_NO = 'A',    MAILLE = 'M2',      NOM_CMP = 'SI_ENDO',      VALE = 130.265))
           )

#-----------------------------------------------------------------

TEST_RESU(RESU=(

           _F(  RESULTAT = RESU,  NUME_ORDRE=1, NOM_CHAM='SIGM_ELNO_DEPL',
           CRITERE = 'ABSOLU',     PRECISION = 0.1,
 GROUP_NO = 'B',    MAILLE = 'M59',     NOM_CMP = 'SIXX',       VALE = 0.),
           _F(  RESULTAT = RESU, NUME_ORDRE=1, NOM_CHAM='SIGM_ELNO_DEPL',
           CRITERE = 'ABSOLU',     PRECISION = 0.05,
 GROUP_NO = 'B',    MAILLE = 'M59',     NOM_CMP = 'SIYY',       VALE = 0.),
           _F(  RESULTAT = RESU, NUME_ORDRE=1, NOM_CHAM='SIGM_ELNO_DEPL',
           CRITERE = 'RELATIF',    PRECISION = 1.E-3,
 GROUP_NO = 'B',    MAILLE = 'M59',     NOM_CMP = 'SIZZ',       VALE = 40.),
           _F(  RESULTAT = RESU, NUME_ORDRE=1, NOM_CHAM='SIGM_ELNO_DEPL',
           CRITERE = 'ABSOLU',     PRECISION = 0.05,
 GROUP_NO = 'B',    MAILLE = 'M59',     NOM_CMP = 'SIXY',       VALE = 0.))
           )

TEST_RESU(RESU=(

           _F(  RESULTAT = RESU, NUME_ORDRE=1, NOM_CHAM='ENDO_ELNO_SIGA',
           CRITERE = 'RELATIF',    PRECISION = 0.01,
 GROUP_NO = 'B',    MAILLE = 'M59',     NOM_CMP = 'TRIAX',      VALE = 3.3333E-1),
           _F(  RESULTAT = RESU, NUME_ORDRE=1, NOM_CHAM='ENDO_ELNO_SIGA',
           CRITERE = 'RELATIF',    PRECISION = 0.01,
 GROUP_NO = 'B',    MAILLE = 'M59',     NOM_CMP = 'SI_ENDO',      VALE = 40.0))
           )

TEST_RESU(RESU=(

           _F(  RESULTAT = RESU, NUME_ORDRE=1, NOM_CHAM='ENDO_ELNO_SINO',
           CRITERE = 'RELATIF',    PRECISION = 0.01,
 GROUP_NO = 'B',    MAILLE = 'M59',     NOM_CMP = 'TRIAX',      VALE = 3.3333E-1),
           _F(  RESULTAT = RESU, NUME_ORDRE=1, NOM_CHAM='ENDO_ELNO_SINO',
           CRITERE = 'RELATIF',    PRECISION = 0.01,
 GROUP_NO = 'B',    MAILLE = 'M59',     NOM_CMP = 'SI_ENDO',      VALE = 40.0))
           )

#-----------------------------------------------------------------

TEST_RESU(RESU=(

           _F(  RESULTAT = RESU, NUME_ORDRE=1, NOM_CHAM='SIGM_ELNO_DEPL',
           CRITERE = 'RELATIF',    PRECISION = 1.E-2,
 GROUP_NO = 'E',    MAILLE = 'M1',      NOM_CMP = 'SIXX',       VALE = -60.),
           _F(  RESULTAT = RESU, NUME_ORDRE=1, NOM_CHAM='SIGM_ELNO_DEPL',
           CRITERE = 'ABSOLU',     PRECISION = 0.1,
 GROUP_NO = 'E',    MAILLE = 'M1',      NOM_CMP = 'SIYY',       VALE = 0.),
           _F(  RESULTAT = RESU, NUME_ORDRE=1, NOM_CHAM='SIGM_ELNO_DEPL',
           CRITERE = 'RELATIF',    PRECISION = 1.E-3,
 GROUP_NO = 'E',    MAILLE = 'M1',      NOM_CMP = 'SIZZ',       VALE = 100.),
           _F(  RESULTAT = RESU, NUME_ORDRE=1, NOM_CHAM='SIGM_ELNO_DEPL',
           CRITERE = 'ABSOLU',     PRECISION = 0.1,
 GROUP_NO = 'E',    MAILLE = 'M1',      NOM_CMP = 'SIXY',       VALE = 0.))
           )

TEST_RESU(RESU=(

           _F(  RESULTAT = RESU, NUME_ORDRE=1, NOM_CHAM='ENDO_ELNO_SIGA',
           CRITERE = 'RELATIF',    PRECISION = 0.01,
 GROUP_NO = 'E',    MAILLE = 'M1',      NOM_CMP = 'TRIAX',      VALE = 9.5893E-2),
           _F(  RESULTAT = RESU, NUME_ORDRE=1, NOM_CHAM='ENDO_ELNO_SIGA',
           CRITERE = 'RELATIF',    PRECISION = 0.01,
 GROUP_NO = 'E',    MAILLE = 'M1',      NOM_CMP = 'SI_ENDO',      VALE = 130.265))
           )

TEST_RESU(RESU=(

           _F(  RESULTAT = RESU, NUME_ORDRE=1, NOM_CHAM='ENDO_ELNO_SINO',
           CRITERE = 'RELATIF',    PRECISION = 0.01,
 GROUP_NO = 'E',    MAILLE = 'M1',      NOM_CMP = 'TRIAX',      VALE = 9.5893E-2),
           _F(  RESULTAT = RESU, NUME_ORDRE=1, NOM_CHAM='ENDO_ELNO_SINO',
           CRITERE = 'RELATIF',    PRECISION = 0.01,
 GROUP_NO = 'E',    MAILLE = 'M1',      NOM_CMP = 'SI_ENDO',      VALE = 130.265))
           )

#-----------------------------------------------------------------

TEST_RESU(RESU=(

           _F(  RESULTAT = RESU, NUME_ORDRE=1, NOM_CHAM='SIGM_ELNO_DEPL',
           CRITERE = 'ABSOLU',     PRECISION = 0.1,
 GROUP_NO = 'F',    MAILLE = 'M48',     NOM_CMP = 'SIXX',       VALE = 0.),
           _F(  RESULTAT = RESU, NUME_ORDRE=1, NOM_CHAM='SIGM_ELNO_DEPL',
           CRITERE = 'ABSOLU',     PRECISION = 0.05,
 GROUP_NO = 'F',    MAILLE = 'M48',     NOM_CMP = 'SIYY',       VALE = 0.),
           _F(  RESULTAT = RESU, NUME_ORDRE=1, NOM_CHAM='SIGM_ELNO_DEPL',
           CRITERE = 'RELATIF',    PRECISION = 1.E-3,
 GROUP_NO = 'F',    MAILLE = 'M48',     NOM_CMP = 'SIZZ',       VALE = 40.),
           _F(  RESULTAT = RESU, NUME_ORDRE=1, NOM_CHAM='SIGM_ELNO_DEPL',
           CRITERE = 'ABSOLU',     PRECISION = 0.05,
 GROUP_NO = 'F',    MAILLE = 'M48',     NOM_CMP = 'SIXY',       VALE = 0.))
           )

TEST_RESU(RESU=(

           _F(  RESULTAT = RESU, NUME_ORDRE=1, NOM_CHAM='ENDO_ELNO_SIGA',
           CRITERE = 'RELATIF',    PRECISION = 0.01,
 GROUP_NO = 'F',    MAILLE = 'M48',     NOM_CMP = 'TRIAX',      VALE = 3.3333E-1),
           _F(  RESULTAT = RESU, NUME_ORDRE=1, NOM_CHAM='ENDO_ELNO_SIGA',
           CRITERE = 'RELATIF',    PRECISION = 0.01,
 GROUP_NO = 'F',    MAILLE = 'M48',     NOM_CMP = 'SI_ENDO',      VALE = 40.0))
           )

TEST_RESU(RESU=(

           _F(  RESULTAT = RESU, NUME_ORDRE=1, NOM_CHAM='ENDO_ELNO_SINO',
           CRITERE = 'RELATIF',    PRECISION = 0.01,
 GROUP_NO = 'F',    MAILLE = 'M48',     NOM_CMP = 'TRIAX',      VALE = 3.3333E-1),
           _F(  RESULTAT = RESU, NUME_ORDRE=1, NOM_CHAM='ENDO_ELNO_SINO',
           CRITERE = 'RELATIF',    PRECISION = 0.01,
 GROUP_NO = 'F',    MAILLE = 'M48',     NOM_CMP = 'SI_ENDO',      VALE = 40.0))
           )

#-----------------------------------------------------------------

FIN()
#
