# MODIF  DATE 22/10/2007   AUTEUR PELLET J.PELLET 
# TITRE  PARALLEPEPIPEDE ISOTROPE TRANSVERSE SOUS SON PROPRE POIDS
#            CONFIGURATION MANAGEMENT OF EDF VERSION
# ======================================================================
# COPYRIGHT (C) 1991 - 2001  EDF R&D                  WWW.CODE-ASTER.ORG
# THIS PROGRAM IS FREE SOFTWARE; YOU CAN REDISTRIBUTE IT AND/OR MODIFY
# IT UNDER THE TERMS OF THE GNU GENERAL PUBLIC LICENSE AS PUBLISHED BY
# THE FREE SOFTWARE FOUNDATION; EITHER VERSION 2 OF THE LICENSE, OR
# (AT YOUR OPTION) ANY LATER VERSION.
#
# THIS PROGRAM IS DISTRIBUTED IN THE HOPE THAT IT WILL BE USEFUL, BUT
# WITHOUT ANY WARRANTY; WITHOUT EVEN THE IMPLIED WARRANTY OF
# MERCHANTABILITY OR FITNESS FOR A PARTICULAR PURPOSE. SEE THE GNU
# GENERAL PUBLIC LICENSE FOR MORE DETAILS.
#
# YOU SHOULD HAVE RECEIVED A COPY OF THE GNU GENERAL PUBLIC LICENSE
# ALONG WITH THIS PROGRAM; IF NOT, WRITE TO EDF R&D CODE_ASTER,
#    1 AVENUE DU GENERAL DE GAULLE, 92141 CLAMART CEDEX, FRANCE.
# ======================================================================

DEBUT(CODE=_F(NOM='SSLV121A',NIV_PUB_WEB='INTERNET'),DEBUG=_F(SDVERI='OUI'))

MA=LIRE_MAILLAGE(  )

MO=AFFE_MODELE(  MAILLAGE=MA,
       AFFE=_F(  TOUT = 'OUI',PHENOMENE = 'MECANIQUE',MODELISATION = '3D') )

F1=DEFI_CONSTANTE( VALE=5.0E+11)

F2=DEFI_CONSTANTE( VALE=2.0E+11)

F3=DEFI_CONSTANTE( VALE=0.1)

F4=DEFI_CONSTANTE( VALE=0.3)

F5=DEFI_CONSTANTE( VALE=76923.1E+6)

MAT=DEFI_MATERIAU( ELAS_ISTR_FO=_F(  E_L = F1,
                                 E_N = F2,
                               NU_LT = F3,
                                NU_LN = F4,

  G_LN = F5,RHO = 7800.)  )

CHMAT=AFFE_MATERIAU(  MAILLAGE=MA,
                       AFFE=_F(  TOUT = 'OUI',  MATER = MAT) )

# ------------------------------------------------------------------
#    --- STRUCTURE SUSPENDUE //Z EN A + PAS DE ROTATION

CH=AFFE_CHAR_MECA(  MODELE=MO,
       PESANTEUR=(  9.81,  0.,  0.,   -1., ),
#      PRES_REP:( GROUP_MA: FACESUP       PRES: -229553.   )
       FORCE_FACE=_F(  GROUP_MA = 'FACESUP',       FZ = 229553.),DDL_IMPO=(
       _F(  GROUP_NO = 'A',   DX = 0.,   DY = 0.,   DZ = 0.),
                _F(  GROUP_NO = 'D',             DY = 0.),
                _F(  GROUP_NO = 'ABSANSA',      DX = 0.,   DY = 0.)) )

# ------------------------------------------------------------------

RESU=MECA_STATIQUE(MODELE=MO,
                   CHAM_MATER=CHMAT,
                   EXCIT=_F(CHARGE=CH,),
                   );

RESU=CALC_ELEM( reuse= RESU, RESULTAT= RESU,

               OPTION=('SIGM_ELNO_DEPL',),
                )
#---------------------------------------------------------------------

TEST_RESU(RESU=(
     # B
            _F(  RESULTAT = RESU, NUME_ORDRE=1, NOM_CHAM='DEPL',
              CRITERE = 'ABSOLU',    PRECISION = 1.E-10,
              NOEUD = 'N53',      NOM_CMP = 'DX',            VALE = 0.),
            _F(  RESULTAT = RESU, NUME_ORDRE=1, NOM_CHAM='DEPL',  CRITERE = 'ABSOLU',
              PRECISION = 1.E-10,
              NOEUD = 'N53',      NOM_CMP = 'DY',            VALE = 0.),
            _F(  RESULTAT = RESU, NUME_ORDRE=1, NOM_CHAM='DEPL',  CRITERE = 'RELATIF',
              PRECISION = 1.E-3,
              NOEUD = 'N53',      NOM_CMP = 'DZ',            VALE = -1.721655E-6),
     # C
            _F(  RESULTAT = RESU, NUME_ORDRE=1, NOM_CHAM='DEPL',  CRITERE = 'ABSOLU',
              PRECISION = 1.E-10,
              NOEUD = 'N12',      NOM_CMP = 'DX',            VALE = 0.),
            _F(  RESULTAT = RESU, NUME_ORDRE=1, NOM_CHAM='DEPL',  CRITERE = 'ABSOLU',
              PRECISION = 1.E-10,
              NOEUD = 'N12',      NOM_CMP = 'DY',            VALE = 0.),
            _F(  RESULTAT = RESU, NUME_ORDRE=1, NOM_CHAM='DEPL',  CRITERE = 'RELATIF',
              PRECISION = 1.E-3,
              NOEUD = 'N12',      NOM_CMP = 'DZ',            VALE = -1.71591615E-6),
     # D
            _F(  RESULTAT = RESU, NUME_ORDRE=1, NOM_CHAM='DEPL',  CRITERE = 'RELATIF',
              PRECISION = 1.E-3,
              NOEUD = 'N18',      NOM_CMP = 'DX',            VALE = -6.88662E-8),
            _F(  RESULTAT = RESU, NUME_ORDRE=1, NOM_CHAM='DEPL',  CRITERE = 'ABSOLU',
              PRECISION = 1.E-10,
              NOEUD = 'N18',      NOM_CMP = 'DY',            VALE = 0.),
            _F(  RESULTAT = RESU, NUME_ORDRE=1, NOM_CHAM='DEPL',  CRITERE = 'RELATIF',
              PRECISION = 5.E-3,
              NOEUD = 'N18',      NOM_CMP = 'DZ',            VALE = 5.73885E-9),
     # E
            _F(  RESULTAT = RESU, NUME_ORDRE=1, NOM_CHAM='DEPL',  CRITERE = 'ABSOLU',
              PRECISION = 1.E-10,
              NOEUD = 'N56',      NOM_CMP = 'DX',            VALE = 0.),
            _F(  RESULTAT = RESU, NUME_ORDRE=1, NOM_CHAM='DEPL',  CRITERE = 'ABSOLU',
              PRECISION = 1.E-10,
              NOEUD = 'N56',      NOM_CMP = 'DY',            VALE = 0.),
            _F(  RESULTAT = RESU, NUME_ORDRE=1, NOM_CHAM='DEPL',  CRITERE = 'RELATIF',
              PRECISION = 1.E-3,
              NOEUD = 'N56',      NOM_CMP = 'DZ',            VALE = -1.291241E-6),
     # X
            _F(  RESULTAT = RESU, NUME_ORDRE=1, NOM_CHAM='DEPL',  CRITERE = 'ABSOLU',
              PRECISION = 1.E-10,
              NOEUD = 'N70',      NOM_CMP = 'DX',            VALE = 0.),
            _F(  RESULTAT = RESU, NUME_ORDRE=1, NOM_CHAM='DEPL',  CRITERE = 'ABSOLU',
              PRECISION = 1.E-10,
              NOEUD = 'N70',      NOM_CMP = 'DY',            VALE = -6.88662E-8),
            _F(  RESULTAT = RESU, NUME_ORDRE=1, NOM_CHAM='DEPL',  CRITERE = 'RELATIF',
              PRECISION = 5.E-3,
              NOEUD = 'N70',      NOM_CMP = 'DZ',            VALE = 5.73885E-9),
     # CONTRAINTES EN A , E ET X

            _F(  RESULTAT = RESU, NUME_ORDRE=1, NOM_CHAM='SIGM_ELNO_DEPL',
            CRITERE = 'RELATIF',   PRECISION = 1.E-3, MAILLE = 'HEX3',
            NOEUD = 'N59',   NOM_CMP = 'SIZZ',          VALE = 2.29554E5),

            _F(  RESULTAT = RESU, NUME_ORDRE=1, NOM_CHAM='SIGM_ELNO_DEPL',
            CRITERE = 'RELATIF',   PRECISION = 1.E-3, MAILLE = 'HEX2',
            NOEUD = 'N56',   NOM_CMP = 'SIZZ',          VALE = 1.14777E5),

            _F(  RESULTAT = RESU, NUME_ORDRE=1, NOM_CHAM='SIGM_ELNO_DEPL',
            CRITERE = 'RELATIF',   PRECISION = 1.E-3, MAILLE = 'HEX6',
            NOEUD = 'N70',   NOM_CMP = 'SIZZ',          VALE = 2.29554E5))
              )

FIN()
#
