# MODIF  DATE 07/06/2002   AUTEUR DURAND C.DURAND 
# TITRE CYLINDRE SOUMIS A UNE PRESSION EN MODE 1 FOURIER (QUAD9)
#            CONFIGURATION MANAGEMENT OF EDF VERSION
# ======================================================================
# COPYRIGHT (C) 1991 - 2001  EDF R&D                  WWW.CODE-ASTER.ORG
# THIS PROGRAM IS FREE SOFTWARE; YOU CAN REDISTRIBUTE IT AND/OR MODIFY
# IT UNDER THE TERMS OF THE GNU GENERAL PUBLIC LICENSE AS PUBLISHED BY
# THE FREE SOFTWARE FOUNDATION; EITHER VERSION 2 OF THE LICENSE, OR   
# (AT YOUR OPTION) ANY LATER VERSION.                                 
#
# THIS PROGRAM IS DISTRIBUTED IN THE HOPE THAT IT WILL BE USEFUL, BUT 
# WITHOUT ANY WARRANTY; WITHOUT EVEN THE IMPLIED WARRANTY OF          
# MERCHANTABILITY OR FITNESS FOR A PARTICULAR PURPOSE. SEE THE GNU    
# GENERAL PUBLIC LICENSE FOR MORE DETAILS.                            
#
# YOU SHOULD HAVE RECEIVED A COPY OF THE GNU GENERAL PUBLIC LICENSE   
# ALONG WITH THIS PROGRAM; IF NOT, WRITE TO EDF R&D CODE_ASTER,       
#    1 AVENUE DU GENERAL DE GAULLE, 92141 CLAMART CEDEX, FRANCE.      
# ======================================================================
# CAS TEST SSLV109C
# ----------------------------------------------------------------------
# CYLINDRE EN FLEXION FOURIER MODE_FOURIER 1
#
# MODELISATION : ELEMENTS MECANIQUE AXIS_FOURIER (QUAD9)
# MAILLAGE     : ALIBABA ==> ASTER
#
# ----------------------------------------------------------------------
# GROUPES DE MAILLES: PRES_REP : BOUT
# ----------------------------------------------------------------------
#

DEBUT(   CODE=_F( NOM = 'SSLV109C',NIV_PUB_WEB='INTERNET'),)

M=LIRE_MAILLAGE(   )

MO=AFFE_MODELE(        MAILLAGE=M,
                                AFFE=_F(  TOUT = 'OUI',         
                                       PHENOMENE = 'MECANIQUE',    
                                       MODELISATION = 'AXIS_FOURIER', ))

MA=DEFI_MATERIAU(          ELAS=_F(  E = 72.,            
                                       NU = 0.3,           
                                       RHO = 0.,                        ))

P=DEFI_FONCTION(      NOM_PARA='X',
           VALE=(0.,0., .5, .5, 1., 1.,) )

U0=DEFI_CONSTANTE(    VALE=0. )

CM=AFFE_MATERIAU(      MAILLAGE=M,
                                AFFE=_F(  TOUT = 'OUI',         
                                       MATER = MA,                      ))

CH=AFFE_CHAR_MECA_F(       MODELE=MO,DDL_IMPO=(
               _F(  NOEUD = 'N1',           DX = U0,   DY = U0,    DZ = U0,   ),
                        _F(  NOEUD = 'N2',           DY = U0,   ),
                        _F(  NOEUD = 'N3',           DY = U0,   )),
               PRES_REP=_F(  GROUP_MA = 'BOUT',       PRES = P,  ))

KE=CALC_MATR_ELEM(       MODELE=MO,
                              CHARGE=CH,
                          CHAM_MATER=CM,
                          MODE_FOURIER=1,
                              OPTION='RIGI_MECA'                      )

VE=CALC_VECT_ELEM(       CHARGE=CH,
                          CHAM_MATER=CM,
                              OPTION='CHAR_MECA'                      )

NU=NUME_DDL(          MATR_RIGI=KE                               )

KAS=ASSE_MATRICE(      MATR_ELEM=KE,
                            NUME_DDL=NU                               )

VAS=ASSE_VECTEUR(      VECT_ELEM=VE,
                            NUME_DDL=NU                               )

KAS=FACT_LDLT(      reuse=KAS,   MATR_ASSE=KAS                              )

DEPLA=RESO_LDLT(         MATR_FACT=KAS,
                             CHAM_NO=VAS                              )

SIGMA=CALC_CHAM_ELEM(       MODELE=MO,
                           CHAM_MATER=CM,   DEPL=DEPLA,
                           MODE_FOURIER=1,
                               OPTION='SIGM_ELNO_DEPL'                )

ENERG=CALC_CHAM_ELEM(  MODELE=MO,   OPTION='EPOT_ELEM_DEPL',
                          CHAM_MATER=CM,   DEPL=DEPLA,
                          MODE_FOURIER=1                )

TEST_RESU(CHAM_NO=(
   # DEPLACEMENTS
              
            _F(  CHAM_GD = DEPLA,      CRITERE = 'RELATIF',  PRECISION = 1.E-6, 
           NOEUD = 'N2',        NOM_CMP = 'DX', VALE = 5.208333333333E-4,      ),
            _F(  CHAM_GD = DEPLA,      CRITERE = 'RELATIF',  PRECISION = 1.E-6, 
           NOEUD = 'N2',        NOM_CMP = 'DZ', VALE = -5.208333333333E-4,     ),
            _F(  CHAM_GD = DEPLA,      CRITERE = 'RELATIF',  PRECISION = 1.E-6, 
           NOEUD = 'N4',        NOM_CMP = 'DX',           VALE = 0.0625,      ),
            _F(  CHAM_GD = DEPLA,      CRITERE = 'RELATIF',  PRECISION = 1.E-6, 
           NOEUD = 'N4',        NOM_CMP = 'DZ',           VALE = 0.0625,      ),
            _F(  CHAM_GD = DEPLA,      CRITERE = 'RELATIF',  PRECISION = 1.E-6, 
           NOEUD = 'N7',        NOM_CMP = 'DX',           VALE = 0.25,        ),
            _F(  CHAM_GD = DEPLA,      CRITERE = 'RELATIF',  PRECISION = 1.E-6, 
           NOEUD = 'N7',        NOM_CMP = 'DZ',           VALE = 0.25,        ),
            _F(  CHAM_GD = DEPLA,      CRITERE = 'RELATIF',  PRECISION = 1.E-6, 
           NOEUD = 'N9',        NOM_CMP = 'DY', VALE = -0.08333333333333,  ),
            _F(  CHAM_GD = DEPLA,      CRITERE = 'RELATIF',  PRECISION = 1.E-6, 
           NOEUD = 'N10',       NOM_CMP = 'DX',           VALE = 0.5625,      ),
            _F(  CHAM_GD = DEPLA,      CRITERE = 'RELATIF',  PRECISION = 1.E-6, 
           NOEUD = 'N10',       NOM_CMP = 'DZ',           VALE = 0.5625,      ),
            _F(  CHAM_GD = DEPLA,      CRITERE = 'RELATIF',  PRECISION = 1.E-6, 
           NOEUD = 'N11',       NOM_CMP = 'DY',           VALE = -0.0625,     ),
            _F(  CHAM_GD = DEPLA,      CRITERE = 'RELATIF',  PRECISION = 1.E-6, 
           NOEUD = 'N12',       NOM_CMP = 'DY',           VALE = -0.125,      ),
            _F(  CHAM_GD = DEPLA,      CRITERE = 'RELATIF',  PRECISION = 1.E-6, 
           NOEUD = 'N13',       NOM_CMP = 'DX',           VALE = 1.,          ),
            _F(  CHAM_GD = DEPLA,      CRITERE = 'RELATIF',  PRECISION = 1.E-6, 
           NOEUD = 'N13',       NOM_CMP = 'DZ',           VALE = 1.,          ),
            _F(  CHAM_GD = DEPLA,      CRITERE = 'RELATIF',  PRECISION = 1.E-6, 
           NOEUD = 'N14',       NOM_CMP = 'DY', VALE = -0.083333333333333,  ),
            _F(  CHAM_GD = DEPLA,      CRITERE = 'RELATIF',  PRECISION = 1.E-6, 
           NOEUD = 'N15',       NOM_CMP = 'DY', VALE = -0.166666666666666,  )),CHAM_ELEM=(

   # CONTRAINTES
              
            _F(  CHAM_GD = SIGMA,      CRITERE = 'ABSOLU',  PRECISION = 1.E-6, 
  MAILLE = 'M1',      NOEUD = 'N1',        NOM_CMP = 'SIYY',           VALE = 0.,      ),
            _F(  CHAM_GD = SIGMA,      CRITERE = 'RELATIF',  PRECISION = 1.E-6, 
  MAILLE = 'M1',      NOEUD = 'N3',        NOM_CMP = 'SIYY',           VALE = -1.,     ),
            _F(  CHAM_GD = SIGMA,      CRITERE = 'ABSOLU',  PRECISION = 1.E-6, 
  MAILLE = 'M1',      NOEUD = 'N7',        NOM_CMP = 'SIYY',           VALE = 0.,      ),
            _F(  CHAM_GD = SIGMA,      CRITERE = 'ABSOLU',  PRECISION = 1.E-6, 
  MAILLE = 'M2',      NOEUD = 'N7',        NOM_CMP = 'SIYY',           VALE = 0.,      ),
            _F(  CHAM_GD = SIGMA,      CRITERE = 'RELATIF',  PRECISION = 1.E-6, 
  MAILLE = 'M1',      NOEUD = 'N9',        NOM_CMP = 'SIYY',           VALE = -1.,     ),
            _F(  CHAM_GD = SIGMA,      CRITERE = 'RELATIF',  PRECISION = 1.E-6, 
  MAILLE = 'M2',      NOEUD = 'N9',        NOM_CMP = 'SIYY',           VALE = -1.,     ),
            _F(  CHAM_GD = SIGMA,      CRITERE = 'ABSOLU',  PRECISION = 1.E-6, 
  MAILLE = 'M2',      NOEUD = 'N13',       NOM_CMP = 'SIYY',           VALE = 0.,      ),
            _F(  CHAM_GD = SIGMA,      CRITERE = 'RELATIF',  PRECISION = 1.E-6, 
  MAILLE = 'M2',      NOEUD = 'N15',       NOM_CMP = 'SIYY',           VALE = -1.,     ),

   # ENERGIE
              
            _F(  CHAM_GD = ENERG,        MAILLE = 'M1',     POINT = 1,  
              NOM_CMP = 'TOTALE',     VALE = 1.0416666666666666E-02,    ),
            _F(  CHAM_GD = ENERG,        MAILLE = 'M2',     POINT = 1,  
              NOM_CMP = 'TOTALE',     VALE = 1.0416666666666666E-02,    ))
            )

FIN()
#
