# MODIF  DATE 17/01/2012   AUTEUR SELLENET N.SELLENET 
# TITRE CYLINDRE EN D.P. (TRIA6 QUAD8)
# sslv100b.para = tps_job 60 mem_job 64Mo ncpus 1 liste_test S
#            CONFIGURATION MANAGEMENT OF EDF VERSION
#            CONFIGURATION MANAGEMENT OF EDF VERSION
# ======================================================================
# COPYRIGHT (C) 1991 - 2012  EDF R&D                  WWW.CODE-ASTER.ORG
# THIS PROGRAM IS FREE SOFTWARE; YOU CAN REDISTRIBUTE IT AND/OR MODIFY
# IT UNDER THE TERMS OF THE GNU GENERAL PUBLIC LICENSE AS PUBLISHED BY
# THE FREE SOFTWARE FOUNDATION; EITHER VERSION 2 OF THE LICENSE, OR
# (AT YOUR OPTION) ANY LATER VERSION.
#
# THIS PROGRAM IS DISTRIBUTED IN THE HOPE THAT IT WILL BE USEFUL, BUT
# WITHOUT ANY WARRANTY; WITHOUT EVEN THE IMPLIED WARRANTY OF
# MERCHANTABILITY OR FITNESS FOR A PARTICULAR PURPOSE. SEE THE GNU
# GENERAL PUBLIC LICENSE FOR MORE DETAILS.
#
# YOU SHOULD HAVE RECEIVED A COPY OF THE GNU GENERAL PUBLIC LICENSE
# ALONG WITH THIS PROGRAM; IF NOT, WRITE TO EDF R&D CODE_ASTER,
#    1 AVENUE DU GENERAL DE GAULLE, 92141 CLAMART CEDEX, FRANCE.
# ======================================================================
#CAS_TEST__: SSLV100B
# ----------------------------------------------------------------------
# SSLV100 F                  COMMANDES                          8/08/91
# CYLINDRE CREUX EN DEFORMATIONS PLANES
#
# MODELISATION : ELEMENTS MECANIQUE D_PLAN (TRIA6 QUAD8)
# MAILLAGE     : ASTER (ISSU DE ALI-BABA)
# ----------------------------------------------------------------------
# GROUPES DE NOEUDS: A , B , C , D , E , F , BORDAB
# GROUPES DE MAILLES:  FACEAE , FACEEF
# ----------------------------------------------------------------------
#

DEBUT(CODE=_F(NOM='SSLV100B',NIV_PUB_WEB='INTERNET'),DEBUG=_F(SDVERI='OUI'))

M=LIRE_MAILLAGE(FORMAT='MED',)

MO=AFFE_MODELE(            MAILLAGE=M,
                       # VERIF       :   'MAILLE'
                                  AFFE=_F(  TOUT = 'OUI',
                                         PHENOMENE = 'MECANIQUE',
                                         MODELISATION = 'D_PLAN'))

MA=DEFI_MATERIAU(            ELAS=_F(  E = 200000.,
                                         NU = 0.3,
                                         ALPHA = 0.)    )

CM=AFFE_MATERIAU(        MAILLAGE=M,
                                  AFFE=_F(  TOUT = 'OUI',
                                         MATER = MA))

CH=AFFE_CHAR_MECA(         MODELE=MO,
                              DDL_IMPO=_F(  GROUP_NO = 'BORDAB',  DX = 0.),
                             FACE_IMPO=_F(  GROUP_MA = 'FACEEF',  DNOR = 0.),
                              PRES_REP=_F(  GROUP_MA = 'FACEAE',  PRES = 60.))

RESU=MECA_STATIQUE(MODELE=MO,
                   CHAM_MATER=CM,
                   EXCIT=_F(CHARGE=CH,),
                          );

RESU=CALC_ELEM( reuse= RESU ,RESULTAT= RESU ,
                OPTION=('SIGM_ELNO',),

                )

#--------------------------------------------------------------------

TR1=POST_RELEVE_T(
        ACTION=_F(  INTITULE = 'EXT_SIGM',
                 GROUP_NO = ( 'A', 'B', 'C', 'D', 'E', 'F', ),
                 RESULTAT = RESU,
                 NUME_ORDRE=1,
                 NOM_CHAM='SIGM_ELNO',
                 NOM_CMP = ('SIXX', 'SIYY', 'SIZZ', 'SIXY',),
                 OPERATION = 'EXTRACTION') )

#--------------------------------------------------------------------


TEST_RESU(RESU=(
   # DEPLACEMENTS

            _F(  RESULTAT = RESU, NUME_ORDRE=1, NOM_CHAM='DEPL',
           CRITERE = 'RELATIF',  PRECISION = 1.E-2,
         REFERENCE='ANALYTIQUE',
           GROUP_NO = 'A',        NOM_CMP = 'DY',           VALE = 5.72E-5),
            _F(  RESULTAT = RESU, NUME_ORDRE=1, NOM_CHAM='DEPL',
         REFERENCE='ANALYTIQUE',
           CRITERE = 'ABSOLU',   PRECISION = 1.E-10,
           GROUP_NO = 'A',        NOM_CMP = 'DX',           VALE = 0.),
            _F(  RESULTAT = RESU, NUME_ORDRE=1, NOM_CHAM='DEPL',
           CRITERE = 'RELATIF',  PRECISION = 1.E-2,
         REFERENCE='ANALYTIQUE',
           GROUP_NO = 'B',        NOM_CMP = 'DY',           VALE = 3.64E-5),
            _F(  RESULTAT = RESU, NUME_ORDRE=1, NOM_CHAM='DEPL',
           CRITERE = 'ABSOLU',   PRECISION = 1.E-2,
         REFERENCE='ANALYTIQUE',
           GROUP_NO = 'B',        NOM_CMP = 'DX',           VALE = 0.),
            _F(  RESULTAT = RESU, NUME_ORDRE=1, NOM_CHAM='DEPL',
           CRITERE = 'RELATIF',  PRECISION = 1.E-2,
         REFERENCE='ANALYTIQUE',
           GROUP_NO = 'C',        NOM_CMP = 'DY',           VALE = 5.28459E-5),
            _F(  RESULTAT = RESU, NUME_ORDRE=1, NOM_CHAM='DEPL',
           CRITERE = 'RELATIF',  PRECISION = 1.E-2,
         REFERENCE='ANALYTIQUE',
           GROUP_NO = 'C',        NOM_CMP = 'DX',           VALE = -2.18895E-5),
            _F(  RESULTAT = RESU, NUME_ORDRE=1, NOM_CHAM='DEPL',
           CRITERE = 'RELATIF',  PRECISION = 1.E-2,
         REFERENCE='ANALYTIQUE',
           GROUP_NO = 'D',        NOM_CMP = 'DY',           VALE = 3.36292E-5),
            _F(  RESULTAT = RESU, NUME_ORDRE=1, NOM_CHAM='DEPL',
           CRITERE = 'RELATIF',  PRECISION = 1.E-2,
         REFERENCE='ANALYTIQUE',
           GROUP_NO = 'D',        NOM_CMP = 'DX',           VALE = -1.39297E-5),
            _F(  RESULTAT = RESU, NUME_ORDRE=1, NOM_CHAM='DEPL',
           CRITERE = 'RELATIF',  PRECISION = 1.E-2,
         REFERENCE='ANALYTIQUE',
           GROUP_NO = 'E',        NOM_CMP = 'DY',           VALE = 4.04465E-5),
            _F(  RESULTAT = RESU, NUME_ORDRE=1, NOM_CHAM='DEPL',
           CRITERE = 'RELATIF',  PRECISION = 1.E-2,
         REFERENCE='ANALYTIQUE',
           GROUP_NO = 'E',        NOM_CMP = 'DX',           VALE = -4.04465E-5),
            _F(  RESULTAT = RESU, NUME_ORDRE=1, NOM_CHAM='DEPL',
           CRITERE = 'RELATIF',  PRECISION = 1.E-2,
         REFERENCE='ANALYTIQUE',
           GROUP_NO = 'F',        NOM_CMP = 'DY',           VALE = 2.57387E-5),
            _F(  RESULTAT = RESU, NUME_ORDRE=1, NOM_CHAM='DEPL',
            CRITERE = 'RELATIF',  PRECISION = 1.E-2,
         REFERENCE='ANALYTIQUE',
           GROUP_NO = 'F',        NOM_CMP = 'DX',           VALE = -2.57387E-5),

   # CONTRAINTES


            _F(  RESULTAT = RESU, NUME_ORDRE=1, NOM_CHAM='SIGM_ELNO',
            CRITERE = 'RELATIF',  PRECISION = 1.E-2,
         REFERENCE='ANALYTIQUE',
MAILLE = 'M1',      GROUP_NO = 'A',        NOM_CMP = 'SIXX',           VALE = 100.),
            _F(  RESULTAT = RESU, NUME_ORDRE=1, NOM_CHAM='SIGM_ELNO',
            CRITERE = 'RELATIF',  PRECISION = 1.E-2,
         REFERENCE='ANALYTIQUE',
MAILLE = 'M2',      GROUP_NO = 'A',        NOM_CMP = 'SIXX',           VALE = 100.),
            _F(  RESULTAT = RESU, NUME_ORDRE=1, NOM_CHAM='SIGM_ELNO',
            CRITERE = 'RELATIF',  PRECISION = 1.E-2,
         REFERENCE='ANALYTIQUE',
MAILLE = 'M1',      GROUP_NO = 'A',        NOM_CMP = 'SIYY',           VALE = -60.),
            _F(  RESULTAT = RESU, NUME_ORDRE=1, NOM_CHAM='SIGM_ELNO',
            CRITERE = 'RELATIF',  PRECISION = 1.E-2,
         REFERENCE='ANALYTIQUE',
MAILLE = 'M2',      GROUP_NO = 'A',        NOM_CMP = 'SIYY',           VALE = -60.),
            _F(  RESULTAT = RESU, NUME_ORDRE=1, NOM_CHAM='SIGM_ELNO',
            CRITERE = 'RELATIF',  PRECISION = 2.E-2,
         REFERENCE='ANALYTIQUE',
MAILLE = 'M1',      GROUP_NO = 'A',        NOM_CMP = 'SIZZ',           VALE = 12.),
            _F(  RESULTAT = RESU, NUME_ORDRE=1, NOM_CHAM='SIGM_ELNO',
            CRITERE = 'RELATIF',  PRECISION = 2.E-2,
         REFERENCE='ANALYTIQUE',
MAILLE = 'M2',      GROUP_NO = 'A',        NOM_CMP = 'SIZZ',           VALE = 12.),
            _F(  RESULTAT = RESU, NUME_ORDRE=1, NOM_CHAM='SIGM_ELNO',
            CRITERE = 'ABSOLU',   PRECISION = 0.5,
         REFERENCE='ANALYTIQUE',
MAILLE = 'M1',      GROUP_NO = 'A',        NOM_CMP = 'SIXY',           VALE = 0.),
            _F(  RESULTAT = RESU, NUME_ORDRE=1, NOM_CHAM='SIGM_ELNO',
            CRITERE = 'ABSOLU',   PRECISION = 0.5,
         REFERENCE='ANALYTIQUE',
MAILLE = 'M2',      GROUP_NO = 'A',        NOM_CMP = 'SIXY',           VALE = 0.),
#
            _F(  RESULTAT = RESU, NUME_ORDRE=1, NOM_CHAM='SIGM_ELNO',
            CRITERE = 'RELATIF',  PRECISION = 1.E-2,
         REFERENCE='ANALYTIQUE',
MAILLE = 'M23',     GROUP_NO = 'B',        NOM_CMP = 'SIXX',           VALE = 40.),
            _F(  RESULTAT = RESU, NUME_ORDRE=1, NOM_CHAM='SIGM_ELNO',
            CRITERE = 'RELATIF',  PRECISION = 1.E-2,
         REFERENCE='ANALYTIQUE',
MAILLE = 'M24',     GROUP_NO = 'B',        NOM_CMP = 'SIXX',           VALE = 40.),
            _F(  RESULTAT = RESU, NUME_ORDRE=1, NOM_CHAM='SIGM_ELNO',
            CRITERE = 'ABSOLU',   PRECISION = 5.E-2,
         REFERENCE='ANALYTIQUE',
MAILLE = 'M23',     GROUP_NO = 'B',        NOM_CMP = 'SIYY',           VALE = 0.),
            _F(  RESULTAT = RESU, NUME_ORDRE=1, NOM_CHAM='SIGM_ELNO',
            CRITERE = 'ABSOLU',   PRECISION = 5.E-2,
         REFERENCE='ANALYTIQUE',
MAILLE = 'M24',     GROUP_NO = 'B',        NOM_CMP = 'SIYY',           VALE = 0.),
            _F(  RESULTAT = RESU, NUME_ORDRE=1, NOM_CHAM='SIGM_ELNO',
            CRITERE = 'RELATIF',  PRECISION = 1.E-2,
         REFERENCE='ANALYTIQUE',
MAILLE = 'M23',     GROUP_NO = 'B',        NOM_CMP = 'SIZZ',           VALE = 12.),
            _F(  RESULTAT = RESU, NUME_ORDRE=1, NOM_CHAM='SIGM_ELNO',
            CRITERE = 'RELATIF',  PRECISION = 1.E-2,
         REFERENCE='ANALYTIQUE',
MAILLE = 'M24',     GROUP_NO = 'B',        NOM_CMP = 'SIZZ',           VALE = 12.),
            _F(  RESULTAT = RESU, NUME_ORDRE=1, NOM_CHAM='SIGM_ELNO',
            CRITERE = 'ABSOLU',   PRECISION = 5.E-2,
         REFERENCE='ANALYTIQUE',
MAILLE = 'M23',     GROUP_NO = 'B',        NOM_CMP = 'SIXY',           VALE = 0.),
            _F(  RESULTAT = RESU, NUME_ORDRE=1, NOM_CHAM='SIGM_ELNO',
            CRITERE = 'ABSOLU',   PRECISION = 5.E-2,
         REFERENCE='ANALYTIQUE',
MAILLE = 'M24',     GROUP_NO = 'B',        NOM_CMP = 'SIXY',           VALE = 0.),
#
            _F(  RESULTAT = RESU, NUME_ORDRE=1, NOM_CHAM='SIGM_ELNO',
            CRITERE = 'RELATIF',  PRECISION = 1.E-2,
         REFERENCE='ANALYTIQUE',
MAILLE = 'M169',   GROUP_NO = 'C',        NOM_CMP = 'SIXX',        VALE = 76.56854),
            _F(  RESULTAT = RESU, NUME_ORDRE=1, NOM_CHAM='SIGM_ELNO',
            CRITERE = 'RELATIF',  PRECISION = 1.E-2,
         REFERENCE='ANALYTIQUE',
MAILLE = 'M170',   GROUP_NO = 'C',        NOM_CMP = 'SIXX',        VALE = 76.56854),
            _F(  RESULTAT = RESU, NUME_ORDRE=1, NOM_CHAM='SIGM_ELNO',
            CRITERE = 'RELATIF',  PRECISION = 1.E-2,
         REFERENCE='ANALYTIQUE',
MAILLE = 'M193',   GROUP_NO = 'C',        NOM_CMP = 'SIXX',        VALE = 76.56854),
            _F(  RESULTAT = RESU, NUME_ORDRE=1, NOM_CHAM='SIGM_ELNO',
            CRITERE = 'RELATIF',  PRECISION = 2.E-2,
         REFERENCE='ANALYTIQUE',
MAILLE = 'M169',   GROUP_NO = 'C',        NOM_CMP = 'SIYY',        VALE = -36.56854),
            _F(  RESULTAT = RESU, NUME_ORDRE=1, NOM_CHAM='SIGM_ELNO',
            CRITERE = 'RELATIF',  PRECISION = 2.E-2,
         REFERENCE='ANALYTIQUE',
MAILLE = 'M170',   GROUP_NO = 'C',        NOM_CMP = 'SIYY',        VALE = -36.56854),
            _F(  RESULTAT = RESU, NUME_ORDRE=1, NOM_CHAM='SIGM_ELNO',
            CRITERE = 'RELATIF',  PRECISION = 2.E-2,
         REFERENCE='ANALYTIQUE',
MAILLE = 'M193',   GROUP_NO = 'C',        NOM_CMP = 'SIYY',        VALE = -36.56854),
            _F(  RESULTAT = RESU, NUME_ORDRE=1, NOM_CHAM='SIGM_ELNO',
            CRITERE = 'RELATIF',  PRECISION = 5.E-2,
         REFERENCE='ANALYTIQUE',
MAILLE = 'M169',   GROUP_NO = 'C',        NOM_CMP = 'SIZZ',        VALE = 12.),
            _F(  RESULTAT = RESU, NUME_ORDRE=1, NOM_CHAM='SIGM_ELNO',
            CRITERE = 'RELATIF',  PRECISION = 5.E-2,
         REFERENCE='ANALYTIQUE',
MAILLE = 'M170',   GROUP_NO = 'C',        NOM_CMP = 'SIZZ',        VALE = 12.),
            _F(  RESULTAT = RESU, NUME_ORDRE=1, NOM_CHAM='SIGM_ELNO',
            CRITERE = 'RELATIF',  PRECISION = 5.E-2,
         REFERENCE='ANALYTIQUE',
MAILLE = 'M193',   GROUP_NO = 'C',        NOM_CMP = 'SIZZ',        VALE = 12.),
            _F(  RESULTAT = RESU, NUME_ORDRE=1, NOM_CHAM='SIGM_ELNO',
            CRITERE = 'RELATIF',  PRECISION = 1.E-2,
         REFERENCE='ANALYTIQUE',
MAILLE = 'M169',   GROUP_NO = 'C',        NOM_CMP = 'SIXY',        VALE = 56.56854),
            _F(  RESULTAT = RESU, NUME_ORDRE=1, NOM_CHAM='SIGM_ELNO',
            CRITERE = 'RELATIF',  PRECISION = 1.E-2,
         REFERENCE='ANALYTIQUE',
MAILLE = 'M170',   GROUP_NO = 'C',        NOM_CMP = 'SIXY',        VALE = 56.56854),
            _F(  RESULTAT = RESU, NUME_ORDRE=1, NOM_CHAM='SIGM_ELNO',
            CRITERE = 'RELATIF',  PRECISION = 1.E-2,
         REFERENCE='ANALYTIQUE',
MAILLE = 'M193',   GROUP_NO = 'C',        NOM_CMP = 'SIXY',        VALE = 56.56854),
#
            _F(  RESULTAT = RESU, NUME_ORDRE=1, NOM_CHAM='SIGM_ELNO',
            CRITERE = 'RELATIF',  PRECISION = 1.E-2,
         REFERENCE='ANALYTIQUE',
MAILLE = 'M190',   GROUP_NO = 'D',        NOM_CMP = 'SIXX',        VALE = 34.14214),
            _F(  RESULTAT = RESU, NUME_ORDRE=1, NOM_CHAM='SIGM_ELNO',
            CRITERE = 'RELATIF',  PRECISION = 1.E-2,
         REFERENCE='ANALYTIQUE',
MAILLE = 'M192',   GROUP_NO = 'D',        NOM_CMP = 'SIXX',        VALE = 34.14214),
            _F(  RESULTAT = RESU, NUME_ORDRE=1, NOM_CHAM='SIGM_ELNO',
            CRITERE = 'RELATIF',  PRECISION = 1.E-2,
         REFERENCE='ANALYTIQUE',
MAILLE = 'M204',   GROUP_NO = 'D',        NOM_CMP = 'SIXX',        VALE = 34.14214),
            _F(  RESULTAT = RESU, NUME_ORDRE=1, NOM_CHAM='SIGM_ELNO',
            CRITERE = 'RELATIF',  PRECISION = 1.E-2,
         REFERENCE='ANALYTIQUE',
MAILLE = 'M190',   GROUP_NO = 'D',        NOM_CMP = 'SIYY',        VALE = 5.85786),
            _F(  RESULTAT = RESU, NUME_ORDRE=1, NOM_CHAM='SIGM_ELNO',
            CRITERE = 'RELATIF',  PRECISION = 5.E-2,
         REFERENCE='ANALYTIQUE',
MAILLE = 'M192',   GROUP_NO = 'D',        NOM_CMP = 'SIYY',        VALE = 5.85786),
            _F(  RESULTAT = RESU, NUME_ORDRE=1, NOM_CHAM='SIGM_ELNO',
            CRITERE = 'RELATIF',  PRECISION = 5.E-2,
         REFERENCE='ANALYTIQUE',
MAILLE = 'M204',   GROUP_NO = 'D',        NOM_CMP = 'SIYY',        VALE = 5.85786),

            _F(  RESULTAT = RESU, NUME_ORDRE=1, NOM_CHAM='SIGM_ELNO',
            CRITERE = 'RELATIF',  PRECISION = 1.E-2,
         REFERENCE='ANALYTIQUE',
MAILLE = 'M190',   GROUP_NO = 'D',        NOM_CMP = 'SIZZ',        VALE = 12.),
            _F(  RESULTAT = RESU, NUME_ORDRE=1, NOM_CHAM='SIGM_ELNO',
            CRITERE = 'RELATIF',  PRECISION = 1.E-2,
         REFERENCE='ANALYTIQUE',
MAILLE = 'M192',   GROUP_NO = 'D',        NOM_CMP = 'SIZZ',        VALE = 12.),
            _F(  RESULTAT = RESU, NUME_ORDRE=1, NOM_CHAM='SIGM_ELNO',
            CRITERE = 'RELATIF',  PRECISION = 1.E-2,
         REFERENCE='ANALYTIQUE',
MAILLE = 'M204',   GROUP_NO = 'D',        NOM_CMP = 'SIZZ',        VALE = 12.),
            _F(  RESULTAT = RESU, NUME_ORDRE=1, NOM_CHAM='SIGM_ELNO',
            CRITERE = 'RELATIF',  PRECISION = 1.E-2,
         REFERENCE='ANALYTIQUE',
MAILLE = 'M190',   GROUP_NO = 'D',        NOM_CMP = 'SIXY',        VALE = 14.14214),
            _F(  RESULTAT = RESU, NUME_ORDRE=1, NOM_CHAM='SIGM_ELNO',
            CRITERE = 'RELATIF',  PRECISION = 1.E-2,
         REFERENCE='ANALYTIQUE',
MAILLE = 'M192',   GROUP_NO = 'D',        NOM_CMP = 'SIXY',        VALE = 14.14214),
            _F(  RESULTAT = RESU, NUME_ORDRE=1, NOM_CHAM='SIGM_ELNO',
            CRITERE = 'RELATIF',  PRECISION = 1.E-2,
         REFERENCE='ANALYTIQUE',
MAILLE = 'M204',   GROUP_NO = 'D',        NOM_CMP = 'SIXY',        VALE = 14.14214),
#
            _F(  RESULTAT = RESU, NUME_ORDRE=1, NOM_CHAM='SIGM_ELNO',
            CRITERE = 'RELATIF',  PRECISION = 5.E-2,
         REFERENCE='ANALYTIQUE',
MAILLE = 'M256',   GROUP_NO = 'E',        NOM_CMP = 'SIXX',           VALE = 20.),
            _F(  RESULTAT = RESU, NUME_ORDRE=1, NOM_CHAM='SIGM_ELNO',
            CRITERE = 'RELATIF',  PRECISION = 5.E-2,
         REFERENCE='ANALYTIQUE',
MAILLE = 'M256',   GROUP_NO = 'E',        NOM_CMP = 'SIYY',           VALE = 20.),
            _F(  RESULTAT = RESU, NUME_ORDRE=1, NOM_CHAM='SIGM_ELNO',
            CRITERE = 'RELATIF',  PRECISION = 5.E-2,
         REFERENCE='ANALYTIQUE',
MAILLE = 'M256',   GROUP_NO = 'E',        NOM_CMP = 'SIZZ',           VALE = 12.),
            _F(  RESULTAT = RESU, NUME_ORDRE=1, NOM_CHAM='SIGM_ELNO',
            CRITERE = 'RELATIF',  PRECISION = 1.E-2,
         REFERENCE='ANALYTIQUE',
MAILLE = 'M256',   GROUP_NO = 'E',        NOM_CMP = 'SIXY',           VALE = 80.),
#
            _F(  RESULTAT = RESU, NUME_ORDRE=1, NOM_CHAM='SIGM_ELNO',
            CRITERE = 'RELATIF',  PRECISION = 1.E-2,
         REFERENCE='ANALYTIQUE',
MAILLE = 'M222',    GROUP_NO = 'F',        NOM_CMP = 'SIXX',           VALE = 20.),
            _F(  RESULTAT = RESU, NUME_ORDRE=1, NOM_CHAM='SIGM_ELNO',
            CRITERE = 'RELATIF',  PRECISION = 1.E-2,
         REFERENCE='ANALYTIQUE',
MAILLE = 'M222',    GROUP_NO = 'F',        NOM_CMP = 'SIYY',           VALE = 20.),
            _F(  RESULTAT = RESU, NUME_ORDRE=1, NOM_CHAM='SIGM_ELNO',
            CRITERE = 'RELATIF',  PRECISION = 1.E-2,
         REFERENCE='ANALYTIQUE',
MAILLE = 'M222',    GROUP_NO = 'F',        NOM_CMP = 'SIZZ',           VALE = 12.),
            _F(  RESULTAT = RESU, NUME_ORDRE=1, NOM_CHAM='SIGM_ELNO',
            CRITERE = 'RELATIF',  PRECISION = 1.E-2,
         REFERENCE='ANALYTIQUE',
MAILLE = 'M222',    GROUP_NO = 'F',        NOM_CMP = 'SIXY',           VALE = 20.))

            )

#--------------------------------------------------------------------
FIN()
#
