# MODIF  DATE 07/06/2002   AUTEUR DURAND C.DURAND 
# TITRE CYLINDRE EN C.P. (TRIA6 QUAD8)
#            CONFIGURATION MANAGEMENT OF EDF VERSION
# ======================================================================
# COPYRIGHT (C) 1991 - 2001  EDF R&D                  WWW.CODE-ASTER.ORG
# THIS PROGRAM IS FREE SOFTWARE; YOU CAN REDISTRIBUTE IT AND/OR MODIFY
# IT UNDER THE TERMS OF THE GNU GENERAL PUBLIC LICENSE AS PUBLISHED BY
# THE FREE SOFTWARE FOUNDATION; EITHER VERSION 2 OF THE LICENSE, OR   
# (AT YOUR OPTION) ANY LATER VERSION.                                 
#
# THIS PROGRAM IS DISTRIBUTED IN THE HOPE THAT IT WILL BE USEFUL, BUT 
# WITHOUT ANY WARRANTY; WITHOUT EVEN THE IMPLIED WARRANTY OF          
# MERCHANTABILITY OR FITNESS FOR A PARTICULAR PURPOSE. SEE THE GNU    
# GENERAL PUBLIC LICENSE FOR MORE DETAILS.                            
#
# YOU SHOULD HAVE RECEIVED A COPY OF THE GNU GENERAL PUBLIC LICENSE   
# ALONG WITH THIS PROGRAM; IF NOT, WRITE TO EDF R&D CODE_ASTER,       
#    1 AVENUE DU GENERAL DE GAULLE, 92141 CLAMART CEDEX, FRANCE.      
# ======================================================================
#CAS_TEST__: SSLV04F
#
# ----------------------------------------------------------------------
# SSLV04 F                  COMMANDES                           22/08/91
# CYLINDRE CREUX EN CONTRAINTES PLANES
#
# MODELISATION : ELEMENTS MECANIQUE C_PLAN (TRIA6 QUAD8)
# MAILLAGE     : ALIBABA > ASTER
# ----------------------------------------------------------------------
# GROUPES DE NOEUDS ET MAILLES: A B C D E F
#              BORDAB=GRNM11    FACEEF=GRMA12     FACEAE=GRMA13
# ----------------------------------------------------------------------
#

DEBUT( CODE=_F(  NOM = 'SSLV04F',NIV_PUB_WEB='INTERNET') )

M=LIRE_MAILLAGE(   )

MO=AFFE_MODELE(            MAILLAGE=M,
                                   VERIF='MAILLE',
                                  AFFE=_F(  TOUT = 'OUI',
                                         PHENOMENE = 'MECANIQUE',
                                         MODELISATION = 'C_PLAN'))

MA=DEFI_MATERIAU(            ELAS=_F(  E = 200000.,
                                         NU = 0.3,
                                         ALPHA = 0.) )

CM=AFFE_MATERIAU(        MAILLAGE=M,
                                  AFFE=_F(  TOUT = 'OUI',
                                         MATER = MA))

CH=AFFE_CHAR_MECA(         MODELE=MO,
                              DDL_IMPO=_F(  GROUP_NO = 'GRNM11',  DX = 0.),
                             FACE_IMPO=_F(  GROUP_MA = 'GRMA12',  DNOR = 0.),
                              PRES_REP=_F(  GROUP_MA = 'GRMA13',  PRES = 60.))

ME=CALC_MATR_ELEM(         MODELE=MO,
                                CHARGE=CH,
                            CHAM_MATER=CM,
                               OPTION='RIGI_MECA'   )

VE=CALC_VECT_ELEM(         CHARGE=CH,
                            CHAM_MATER=CM,
                               OPTION='CHAR_MECA'   )

NU=NUME_DDL(            MATR_RIGI=ME           )

K=ASSE_MATRICE(        MATR_ELEM=ME,
                              NUME_DDL=NU )

F=ASSE_VECTEUR(        VECT_ELEM=VE,
                              NUME_DDL=NU           )

K=FACT_LDLT(      reuse=K,     MATR_ASSE=K            )

DEPLA=RESO_LDLT(           MATR_FACT=K,
                               CHAM_NO=F            )

DEFO=CALC_CHAM_ELEM(         MODELE=MO,
                           DEPL=DEPLA,
                                OPTION='EPSI_ELNO_DEPL',
                            CHAM_MATER=CM           )

SIG_NO=CALC_CHAM_ELEM(         MODELE=MO,
                           DEPL=DEPLA,
                                OPTION='SIGM_ELNO_DEPL',
                            CHAM_MATER=CM           )

SIG_GA=CALC_CHAM_ELEM(         MODELE=MO,
                            DEPL=DEPLA,
                                 OPTION='SIEF_ELGA_DEPL',
                             CHAM_MATER=CM           )

ENDO1=CALC_CHAM_ELEM(         MODELE=MO,
                            CHAM_ELEM=SIG_GA,
                               OPTION='ENDO_ELNO_SIGM',
                           CHAM_MATER=CM            )

ENDO2=CALC_CHAM_ELEM(         MODELE=MO,
                            CHAM_ELEM=SIG_NO,
                               OPTION='ENDO_ELNO_SIGM',
                           CHAM_MATER=CM            )

TR1=POST_RELEVE_T( 
      ACTION=_F(  INTITULE = 'EXT_SIGM',
               GROUP_NO = ( 'A', 'B', 'C', 'D', 'E', 'F', ),
               CHAM_GD = SIG_NO,
               NOM_CMP = ('SIXX', 'SIYY', 'SIZZ', 'SIXY',),
               OPERATION = 'EXTRACTION') )

TEST_RESU(CHAM_NO=(
   # DEPLACEMENTS
        
         _F(  CHAM_GD = DEPLA,  CRITERE = 'RELATIF',   PRECISION = 1.E-3,
         GROUP_NO = 'A',     NOM_CMP = 'DY',            VALE = 59.E-6),
         _F(  CHAM_GD = DEPLA,  CRITERE = 'ABSOLU',    PRECISION = 1.E-10,
         GROUP_NO = 'A',     NOM_CMP = 'DX',            VALE = 0.),
         _F(  CHAM_GD = DEPLA,  CRITERE = 'RELATIF',   PRECISION = 1.E-3,
         GROUP_NO = 'B',     NOM_CMP = 'DY',            VALE = 40.E-6),
         _F(  CHAM_GD = DEPLA,  CRITERE = 'ABSOLU',    PRECISION = 1.E-10,
         GROUP_NO = 'B',     NOM_CMP = 'DX',            VALE = 0.),
         _F(  CHAM_GD = DEPLA,  CRITERE = 'RELATIF',   PRECISION = 1.E-3,
         GROUP_NO = 'E',     NOM_CMP = 'DY',            VALE = 41.7193E-6),
         _F(  CHAM_GD = DEPLA,  CRITERE = 'RELATIF',   PRECISION = 1.E-3,
         GROUP_NO = 'E',     NOM_CMP = 'DX',            VALE = -41.7193E-6),
         _F(  CHAM_GD = DEPLA,  CRITERE = 'RELATIF',   PRECISION = 1.E-3,
         GROUP_NO = 'F',     NOM_CMP = 'DY',            VALE = 28.2843E-6),
         _F(  CHAM_GD = DEPLA,  CRITERE = 'RELATIF',   PRECISION = 1.E-3,
         GROUP_NO = 'F',     NOM_CMP = 'DX',            VALE = -28.2843E-6)),CHAM_ELEM=(


    # DEFORMATIONS
             

           _F(  CHAM_GD = DEFO,    CRITERE = 'RELATIF',    PRECISION = 0.01,
 GROUP_NO = 'A',    MAILLE = 'M1',      NOM_CMP = 'EPXX',      VALE = 5.9E-4),
           _F(  CHAM_GD = DEFO,    CRITERE = 'RELATIF',    PRECISION = 0.01,
 GROUP_NO = 'A',    MAILLE = 'M1',      NOM_CMP = 'EPYY',      VALE = -4.5E-4),
           _F(  CHAM_GD = DEFO,    CRITERE = 'ABSOLU',     PRECISION = 0.01,
 GROUP_NO = 'A',    MAILLE = 'M1',      NOM_CMP = 'EPZZ',      VALE = 0.),
           _F(  CHAM_GD = DEFO,    CRITERE = 'ABSOLU',     PRECISION = 0.01,
 GROUP_NO = 'A',    MAILLE = 'M1',      NOM_CMP = 'EPXY',      VALE = 0.),

           _F(  CHAM_GD = DEFO,    CRITERE = 'RELATIF',    PRECISION = 0.01,
 GROUP_NO = 'B',    MAILLE = 'M151',    NOM_CMP = 'EPXX',      VALE = 2.E-4),
           _F(  CHAM_GD = DEFO,    CRITERE = 'ABSOLU',     PRECISION = 0.01,
 GROUP_NO = 'B',    MAILLE = 'M151',    NOM_CMP = 'EPYY',      VALE = -0.6E-4),
           _F(  CHAM_GD = DEFO,    CRITERE = 'ABSOLU',     PRECISION = 0.01,
 GROUP_NO = 'B',    MAILLE = 'M151',    NOM_CMP = 'EPZZ',      VALE = 0.),
           _F(  CHAM_GD = DEFO,    CRITERE = 'ABSOLU',     PRECISION = 0.01,
 GROUP_NO = 'B',    MAILLE = 'M151',    NOM_CMP = 'EPXY',      VALE = 0.),

           _F(  CHAM_GD = DEFO,    CRITERE = 'RELATIF',    PRECISION = 0.01,
 GROUP_NO = 'E',    MAILLE = 'M75',     NOM_CMP = 'EPXX',      VALE = 0.7E-4),
           _F(  CHAM_GD = DEFO,    CRITERE = 'RELATIF',    PRECISION = 0.01,
 GROUP_NO = 'E',    MAILLE = 'M75',     NOM_CMP = 'EPYY',      VALE = 0.7E-4),
           _F(  CHAM_GD = DEFO,    CRITERE = 'ABSOLU',     PRECISION = 0.01,
 GROUP_NO = 'E',    MAILLE = 'M75',     NOM_CMP = 'EPZZ',      VALE = 0.),
           _F(  CHAM_GD = DEFO,    CRITERE = 'RELATIF',    PRECISION = 0.01,
 GROUP_NO = 'E',    MAILLE = 'M75',     NOM_CMP = 'EPXY',      VALE = 5.2E-4),

           _F(  CHAM_GD = DEFO,    CRITERE = 'RELATIF',    PRECISION = 0.01,
 GROUP_NO = 'F',    MAILLE = 'M223',    NOM_CMP = 'EPXX',      VALE = 0.7E-4),
           _F(  CHAM_GD = DEFO,    CRITERE = 'RELATIF',    PRECISION = 0.01,
 GROUP_NO = 'F',    MAILLE = 'M223',    NOM_CMP = 'EPYY',      VALE = 0.7E-4),
           _F(  CHAM_GD = DEFO,    CRITERE = 'ABSOLU',     PRECISION = 0.01,
 GROUP_NO = 'F',    MAILLE = 'M223',    NOM_CMP = 'EPZZ',      VALE = 0.),
           _F(  CHAM_GD = DEFO,    CRITERE = 'RELATIF',    PRECISION = 0.01,
 GROUP_NO = 'F',    MAILLE = 'M223',    NOM_CMP = 'EPXY',      VALE = 1.3E-4))
           )

#-----------------------------------------------------------------

TEST_RESU(CHAM_ELEM=(
             
           _F(  CHAM_GD = SIG_NO,   CRITERE = 'RELATIF',    PRECISION = 1.E-2,
 GROUP_NO = 'A',    MAILLE = 'M1',      NOM_CMP = 'SIXX',      VALE = 100.),
           _F(  CHAM_GD = SIG_NO,   CRITERE = 'RELATIF',    PRECISION = 1.E-2,
 GROUP_NO = 'A',    MAILLE = 'M1',      NOM_CMP = 'SIYY',      VALE = -60.),
           _F(  CHAM_GD = SIG_NO,   CRITERE = 'ABSOLU',     PRECISION = 0.001,
 GROUP_NO = 'A',    MAILLE = 'M1',      NOM_CMP = 'SIZZ',      VALE = 0.),
           _F(  CHAM_GD = SIG_NO,   CRITERE = 'ABSOLU',     PRECISION = 0.3,
 GROUP_NO = 'A',    MAILLE = 'M1',      NOM_CMP = 'SIXY',      VALE = 0.))
           )

TEST_RESU(CHAM_ELEM=(
             
           _F(  CHAM_GD = ENDO1,    CRITERE = 'RELATIF',    PRECISION = 0.01,
 GROUP_NO = 'A',    MAILLE = 'M1',      NOM_CMP = 'TRIAX',      VALE = 9.5893E-2),
           _F(  CHAM_GD = ENDO1,    CRITERE = 'RELATIF',    PRECISION = 0.01,
 GROUP_NO = 'A',    MAILLE = 'M1',      NOM_CMP = 'SI_ENDO',      VALE = 130.265))
           )

TEST_RESU(CHAM_ELEM=(
             
           _F(  CHAM_GD = ENDO2,    CRITERE = 'RELATIF',    PRECISION = 0.01,
 GROUP_NO = 'A',    MAILLE = 'M1',      NOM_CMP = 'TRIAX',      VALE = 9.5893E-2),
           _F(  CHAM_GD = ENDO2,    CRITERE = 'RELATIF',    PRECISION = 0.01,
 GROUP_NO = 'A',    MAILLE = 'M1',      NOM_CMP = 'SI_ENDO',      VALE = 130.265))
           )

#-----------------------------------------------------------------

TEST_RESU(CHAM_ELEM=(
             
           _F(  CHAM_GD = SIG_NO,   CRITERE = 'RELATIF',    PRECISION = 5.E-3,
 GROUP_NO = 'B',    MAILLE = 'M151',    NOM_CMP = 'SIXX',      VALE = 40.),
           _F(  CHAM_GD = SIG_NO,   CRITERE = 'ABSOLU',     PRECISION = 0.1,
 GROUP_NO = 'B',    MAILLE = 'M151',    NOM_CMP = 'SIYY',      VALE = 0.),
           _F(  CHAM_GD = SIG_NO,   CRITERE = 'ABSOLU',     PRECISION = 0.015,
 GROUP_NO = 'B',    MAILLE = 'M151',    NOM_CMP = 'SIZZ',      VALE = 0.),
           _F(  CHAM_GD = SIG_NO,   CRITERE = 'ABSOLU',     PRECISION = 0.1,
 GROUP_NO = 'B',    MAILLE = 'M151',    NOM_CMP = 'SIXY',      VALE = 0.))
           )

TEST_RESU(CHAM_ELEM=(
             
           _F(  CHAM_GD = ENDO1,    CRITERE = 'RELATIF',    PRECISION = 0.01,
 GROUP_NO = 'B',    MAILLE = 'M151',    NOM_CMP = 'TRIAX',      VALE = 3.3333E-1),
           _F(  CHAM_GD = ENDO1,    CRITERE = 'RELATIF',    PRECISION = 0.01,
 GROUP_NO = 'B',    MAILLE = 'M151',    NOM_CMP = 'SI_ENDO',      VALE = 40.0))
           )

TEST_RESU(CHAM_ELEM=(
             
           _F(  CHAM_GD = ENDO2,    CRITERE = 'RELATIF',    PRECISION = 0.01,
 GROUP_NO = 'B',    MAILLE = 'M151',    NOM_CMP = 'TRIAX',      VALE = 3.3333E-1),
           _F(  CHAM_GD = ENDO2,    CRITERE = 'RELATIF',    PRECISION = 0.01,
 GROUP_NO = 'B',    MAILLE = 'M151',    NOM_CMP = 'SI_ENDO',      VALE = 40.0))
           )

#-----------------------------------------------------------------

TEST_RESU(CHAM_ELEM=(
             
           _F(  CHAM_GD = SIG_NO,   CRITERE = 'RELATIF',    PRECISION = 5.E-2,
 GROUP_NO = 'E',    MAILLE = 'M75',     NOM_CMP = 'SIXX',      VALE = 20.),
           _F(  CHAM_GD = SIG_NO,   CRITERE = 'RELATIF',    PRECISION = 5.E-2,
 GROUP_NO = 'E',    MAILLE = 'M75',     NOM_CMP = 'SIYY',      VALE = 20.),
           _F(  CHAM_GD = SIG_NO,   CRITERE = 'ABSOLU',     PRECISION = 0.001,
 GROUP_NO = 'E',    MAILLE = 'M75',     NOM_CMP = 'SIZZ',      VALE = 0.),
           _F(  CHAM_GD = SIG_NO,   CRITERE = 'RELATIF',    PRECISION = 1.E-2,
 GROUP_NO = 'E',    MAILLE = 'M75',     NOM_CMP = 'SIXY',      VALE = 80.))
           )

TEST_RESU(CHAM_ELEM=(
             
           _F(  CHAM_GD = ENDO1,    CRITERE = 'RELATIF',    PRECISION = 0.01,
 GROUP_NO = 'E',    MAILLE = 'M75',     NOM_CMP = 'TRIAX',      VALE = 9.5893E-2),
           _F(  CHAM_GD = ENDO1,    CRITERE = 'RELATIF',    PRECISION = 0.01,
 GROUP_NO = 'E',    MAILLE = 'M75',     NOM_CMP = 'SI_ENDO',      VALE = 130.265))
           )

TEST_RESU(CHAM_ELEM=(
             
           _F(  CHAM_GD = ENDO2,    CRITERE = 'RELATIF',    PRECISION = 0.01,
 GROUP_NO = 'E',    MAILLE = 'M75',     NOM_CMP = 'TRIAX',      VALE = 9.5893E-2),
           _F(  CHAM_GD = ENDO2,    CRITERE = 'RELATIF',    PRECISION = 0.01,
 GROUP_NO = 'E',    MAILLE = 'M75',     NOM_CMP = 'SI_ENDO',      VALE = 130.265))
           )

#-----------------------------------------------------------------

TEST_RESU(CHAM_ELEM=(
             
           _F(  CHAM_GD = SIG_NO,   CRITERE = 'RELATIF',    PRECISION = 1.E-2,
 GROUP_NO = 'F',    MAILLE = 'M223',    NOM_CMP = 'SIXX',      VALE = 20.),
           _F(  CHAM_GD = SIG_NO,   CRITERE = 'RELATIF',    PRECISION = 1.E-2,
 GROUP_NO = 'F',    MAILLE = 'M223',    NOM_CMP = 'SIYY',      VALE = 20.),
           _F(  CHAM_GD = SIG_NO,   CRITERE = 'ABSOLU',     PRECISION = 0.001,
 GROUP_NO = 'F',    MAILLE = 'M223',    NOM_CMP = 'SIZZ',      VALE = 0.),
           _F(  CHAM_GD = SIG_NO,   CRITERE = 'RELATIF',    PRECISION = 1.E-3,
 GROUP_NO = 'F',    MAILLE = 'M223',    NOM_CMP = 'SIXY',      VALE = 20.))
           )

TEST_RESU(CHAM_ELEM=(
             
           _F(  CHAM_GD = ENDO1,    CRITERE = 'RELATIF',    PRECISION = 0.01,
 GROUP_NO = 'F',    MAILLE = 'M223',    NOM_CMP = 'TRIAX',      VALE = 3.3333E-1),
           _F(  CHAM_GD = ENDO1,    CRITERE = 'RELATIF',    PRECISION = 0.01,
 GROUP_NO = 'F',    MAILLE = 'M223',    NOM_CMP = 'SI_ENDO',      VALE = 40.0))
           )

TEST_RESU(CHAM_ELEM=(
             
           _F(  CHAM_GD = ENDO2,    CRITERE = 'RELATIF',    PRECISION = 0.01,
 GROUP_NO = 'F',    MAILLE = 'M223',    NOM_CMP = 'TRIAX',      VALE = 3.3333E-1),
           _F(  CHAM_GD = ENDO2,    CRITERE = 'RELATIF',    PRECISION = 0.01,
 GROUP_NO = 'F',    MAILLE = 'M223',    NOM_CMP = 'SI_ENDO',      VALE = 40.0))
           )

FIN()
#
