# MODIF  DATE 03/10/2011   AUTEUR DURAND C.DURAND 
# TITRE TUYAUTERIE COUDEE EN FLEXION MODELISATION COQUE_3D
#            CONFIGURATION MANAGEMENT OF EDF VERSION
# ======================================================================
# COPYRIGHT (C) 1991 - 2011  EDF R&D                  WWW.CODE-ASTER.ORG
# THIS PROGRAM IS FREE SOFTWARE; YOU CAN REDISTRIBUTE IT AND/OR MODIFY
# IT UNDER THE TERMS OF THE GNU GENERAL PUBLIC LICENSE AS PUBLISHED BY
# THE FREE SOFTWARE FOUNDATION; EITHER VERSION 2 OF THE LICENSE, OR
# (AT YOUR OPTION) ANY LATER VERSION.
#
# THIS PROGRAM IS DISTRIBUTED IN THE HOPE THAT IT WILL BE USEFUL, BUT
# WITHOUT ANY WARRANTY; WITHOUT EVEN THE IMPLIED WARRANTY OF
# MERCHANTABILITY OR FITNESS FOR A PARTICULAR PURPOSE. SEE THE GNU
# GENERAL PUBLIC LICENSE FOR MORE DETAILS.
#
# YOU SHOULD HAVE RECEIVED A COPY OF THE GNU GENERAL PUBLIC LICENSE
# ALONG WITH THIS PROGRAM; IF NOT, WRITE TO EDF R&D CODE_ASTER,
#    1 AVENUE DU GENERAL DE GAULLE, 92141 CLAMART CEDEX, FRANCE.
# ======================================================================


DEBUT(CODE=_F(NOM='SSLX102D',NIV_PUB_WEB='INTERNET'),DEBUG=_F(SDVERI='OUI'))

EP=0.00818

RMOY=0.1055

REXT=RMOY + (EP/2.)

PRE_GIBI()

MAINI=LIRE_MAILLAGE()

MA=CREA_MAILLAGE(   MAILLAGE=MAINI,
                     MODI_MAILLE=_F( OPTION = 'QUAD8_9',
                                  TOUT = 'OUI')  )

MO=AFFE_MODELE(   MAILLAGE=MA,AFFE=(
     _F( GROUP_MA = ('AB', 'CD',),
           PHENOMENE = 'MECANIQUE',
           MODELISATION = 'POU_D_T'),
    _F( GROUP_MA = ('COUDE', 'CERCLE1', 'CERCLE2',),
          PHENOMENE = 'MECANIQUE',
          MODELISATION = 'COQUE_3D'))
                  )

CAREL=AFFE_CARA_ELEM(   MODELE=MO, INFO=2,
    POUTRE=_F( GROUP_MA = ('AB', 'CD',),   SECTION = 'CERCLE',
            CARA = ('R', 'EP', ), VALE = ( REXT,  EP,)),
     COQUE=_F( GROUP_MA = ('COUDE', 'CERCLE1', 'CERCLE2',),
            EPAIS = EP)
)

MAT=DEFI_MATERIAU(   ELAS=_F( E = 2.E11, NU = 0.3)
                        )

CHMAT=AFFE_MATERIAU(   MAILLAGE=MA,
                       AFFE=_F( TOUT = 'OUI', MATER = MAT))

CHAR1=AFFE_CHAR_MECA(  MODELE=MO, INFO=2,
     DDL_IMPO=_F( GROUP_NO = 'A', DX = 0., DY = 0., DZ = 0., DRX = 0., DRY = 0., DRZ = 0.),
     FORCE_NODALE=_F( GROUP_NO = 'D', MZ = 17.E3),LIAISON_ELEM=(
      _F( OPTION = 'COQ_POU',
                    CARA_ELEM = CAREL,
                    AXE_POUTRE = (0., 1., 0.,),
                    GROUP_MA_1 = 'CERCLE1',
                    GROUP_NO_2 = 'B'),
      _F( OPTION = 'COQ_POU',
                    CARA_ELEM = CAREL,
                    GROUP_MA_1 = 'CERCLE2',
                    AXE_POUTRE = (1., 0., 0.,),
                    GROUP_NO_2 = 'C'))
    )

RESU1=MECA_STATIQUE(  MODELE=MO,   INFO=2,
                          CHAM_MATER=CHMAT,   CARA_ELEM=CAREL,
                         EXCIT=_F(  CHARGE = CHAR1)
                        )

TEST_RESU(
           RESU=_F( RESULTAT = RESU1,
                 NUME_ORDRE = 1,
                 NOM_CHAM = 'DEPL',
                 GROUP_NO = 'D',
                 NOM_CMP = 'DY',
                 VALE = 1.925E-2,
                 REFERENCE = 'NON_REGRESSION')
                    )

# FLEXION HORS PLAN

CHAR2=AFFE_CHAR_MECA(  MODELE=MO, INFO=1,
     DDL_IMPO=_F( GROUP_NO = 'A', DX = 0., DY = 0., DZ = 0., DRX = 0., DRY = 0., DRZ = 0.),

    FORCE_NODALE=_F( GROUP_NO = 'D', MY = 17.E3),LIAISON_ELEM=(

      _F( OPTION = 'COQ_POU',
                    CARA_ELEM = CAREL,
                    AXE_POUTRE = (0., 1., 0.,),
                   GROUP_MA_1 = 'CERCLE1',
                   GROUP_NO_2 = 'B'),
      _F( OPTION = 'COQ_POU',
                    CARA_ELEM = CAREL,
                    AXE_POUTRE = (1., 0., 0.,),
                    GROUP_MA_1 = 'CERCLE2',
                    GROUP_NO_2 = 'C'))
    )

RESU2=MECA_STATIQUE(  MODELE=MO,   INFO=1,
                          CHAM_MATER=CHMAT,   CARA_ELEM=CAREL,
                         EXCIT=_F(  CHARGE = CHAR2)
                        )

TEST_RESU(
           RESU=_F( RESULTAT = RESU2,
                 NUME_ORDRE = 1,
                 NOM_CHAM = 'DEPL',
                 GROUP_NO = 'D',
                 NOM_CMP = 'DZ',
                 VALE = -1.56E-2,
                 REFERENCE = 'NON_REGRESSION')
                    )

FIN()
#
#
