# TITRE TUYAUTERIE COUDEE EN FLEXION
# ======================================================================
# COPYRIGHT (C) 1991 - 2015  EDF R&D                  WWW.CODE-ASTER.ORG
# THIS PROGRAM IS FREE SOFTWARE; YOU CAN REDISTRIBUTE IT AND/OR MODIFY
# IT UNDER THE TERMS OF THE GNU GENERAL PUBLIC LICENSE AS PUBLISHED BY
# THE FREE SOFTWARE FOUNDATION; EITHER VERSION 2 OF THE LICENSE, OR
# (AT YOUR OPTION) ANY LATER VERSION.
#
# THIS PROGRAM IS DISTRIBUTED IN THE HOPE THAT IT WILL BE USEFUL, BUT
# WITHOUT ANY WARRANTY; WITHOUT EVEN THE IMPLIED WARRANTY OF
# MERCHANTABILITY OR FITNESS FOR A PARTICULAR PURPOSE. SEE THE GNU
# GENERAL PUBLIC LICENSE FOR MORE DETAILS.
#
# YOU SHOULD HAVE RECEIVED A COPY OF THE GNU GENERAL PUBLIC LICENSE
# ALONG WITH THIS PROGRAM; IF NOT, WRITE TO EDF R&D CODE_ASTER,
#    1 AVENUE DU GENERAL DE GAULLE, 92141 CLAMART CEDEX, FRANCE.
# ======================================================================
# MODELISATION TUYAU_6M

DEBUT(CODE=_F(NIV_PUB_WEB='INTERNET'),DEBUG=_F(SDVERI='OUI'))

MA=LIRE_MAILLAGE(FORMAT='MED',VERI_MAIL=_F(VERIF='OUI'),  )

MA=DEFI_GROUP( reuse=MA,   MAILLAGE=MA,
  CREA_GROUP_MA=_F(  NOM = 'TOUT', TOUT = 'OUI'))

MA=DEFI_GROUP(reuse=MA,  MAILLAGE=MA,
                 CREA_GROUP_NO=_F( GROUP_MA = 'AD'))

MO=AFFE_MODELE(        MAILLAGE=MA,
     AFFE=_F(  TOUT = 'OUI',   PHENOMENE = 'MECANIQUE',
     MODELISATION = 'TUYAU_6M')
               )

CAREL=AFFE_CARA_ELEM(   MODELE=MO,
          POUTRE=_F(
       GROUP_MA = 'TOUT',
  SECTION = 'CERCLE',
           CARA = (   'R',  'EP', ), VALE = (  0.10959,  0.00818, )),
ORIENTATION=_F( GROUP_NO = 'D', CARA = 'GENE_TUYAU', VALE = (0., 0., 1.,))
                              )

MAT=DEFI_MATERIAU(   ELAS=_F( E = 2.E11, NU = 0.3),
                   ECRO_LINE=_F( D_SIGM_EPSI = 12.5E9, SY = 200.E6)
                   )

CHMAT=AFFE_MATERIAU(   MAILLAGE=MA,
                       AFFE=_F( TOUT = 'OUI', MATER = MAT))

#FLEXION PLANE

CHAR1=AFFE_CHAR_MECA(  MODELE=MO,
     DDL_IMPO=_F( GROUP_NO = 'A', DX = 0., DY = 0., DZ = 0., DRX = 0., DRY = 0., DRZ = 0.),
     FORCE_NODALE=_F( GROUP_NO = 'D', MZ = 17.E3)
    )

MEL=CALC_MATR_ELEM(
                              MODELE=MO,
                          CHAM_MATER=CHMAT,
                           CARA_ELEM=CAREL,
                              OPTION='RIGI_MECA'
                       )

RESU=MECA_STATIQUE(  MODELE=MO,
                          CHAM_MATER=CHMAT,   CARA_ELEM=CAREL,
                         EXCIT=_F(  CHARGE = CHAR1)
                    )

TEST_RESU(RESU=_F(NUME_ORDRE=1,
                  GROUP_NO='D',
                  REFERENCE='SOURCE_EXTERNE',
                  RESULTAT=RESU,
                  NOM_CHAM='DEPL',
                  NOM_CMP='DY',
                  VALE_CALC=0.020003566,
                  VALE_REFE=0.02,
                  PRECISION=2.0000000000000001E-4,),
          )

# FLEXION HORS PLAN

CHAR2=AFFE_CHAR_MECA(  MODELE=MO,
     DDL_IMPO=_F( GROUP_NO = 'A', DX = 0., DY = 0., DZ = 0., DRX = 0., DRY = 0., DRZ = 0.),
     FORCE_NODALE=_F( GROUP_NO = 'D', MY = 17.E3)
    )

RESU2=MECA_STATIQUE(  MODELE=MO,
                          CHAM_MATER=CHMAT,   CARA_ELEM=CAREL,
                         EXCIT=_F(  CHARGE = CHAR2)
                    )

TEST_RESU(RESU=_F(NUME_ORDRE=1,
                  GROUP_NO='D',
                  REFERENCE='SOURCE_EXTERNE',
                  RESULTAT=RESU2,
                  NOM_CHAM='DEPL',
                  NOM_CMP='DZ',
                  VALE_CALC=-0.015984730,
                  VALE_REFE=-0.015657000000000001,
                  PRECISION=0.021000000000000001,),
          )

FIN()
