# MODIF  DATE 02/02/2011   AUTEUR PELLET J.PELLET 
# TITRE TUYAUTERIE COUDEE EN FLEXION
# sslx102e.para = tps_job 60 mem_job 250Mo ncpus 1 liste_test R
#            CONFIGURATION MANAGEMENT OF EDF VERSION
# ======================================================================
# COPYRIGHT (C) 1991 - 2011  EDF R&D                  WWW.CODE-ASTER.ORG
# THIS PROGRAM IS FREE SOFTWARE; YOU CAN REDISTRIBUTE IT AND/OR MODIFY
# IT UNDER THE TERMS OF THE GNU GENERAL PUBLIC LICENSE AS PUBLISHED BY
# THE FREE SOFTWARE FOUNDATION; EITHER VERSION 2 OF THE LICENSE, OR
# (AT YOUR OPTION) ANY LATER VERSION.
#
# THIS PROGRAM IS DISTRIBUTED IN THE HOPE THAT IT WILL BE USEFUL, BUT
# WITHOUT ANY WARRANTY; WITHOUT EVEN THE IMPLIED WARRANTY OF
# MERCHANTABILITY OR FITNESS FOR A PARTICULAR PURPOSE. SEE THE GNU
# GENERAL PUBLIC LICENSE FOR MORE DETAILS.
#
# YOU SHOULD HAVE RECEIVED A COPY OF THE GNU GENERAL PUBLIC LICENSE
# ALONG WITH THIS PROGRAM; IF NOT, WRITE TO EDF R&D CODE_ASTER,
#    1 AVENUE DU GENERAL DE GAULLE, 92141 CLAMART CEDEX, FRANCE.
# ======================================================================
# MODELISATION TUYAU

DEBUT(CODE=_F(NOM='SSLX102E',NIV_PUB_WEB='INTERNET'),DEBUG=_F(SDVERI='OUI'))

PRE_GIBI(
              UNITE_GIBI=19,
          UNITE_MAILLAGE=20
          )



M1=LIRE_MAILLAGE(VERI_MAIL=_F(VERIF='OUI'),  )

M1=DEFI_GROUP( reuse=M1,   MAILLAGE=M1,
  CREA_GROUP_MA=_F(  NOM = 'TOUT', TOUT = 'OUI'))

MA=CREA_MAILLAGE(     MAILLAGE=M1,
       MODI_MAILLE=_F(  OPTION = 'SEG3_4', TOUT = 'OUI')
)

#&MA = DEFI_GROUP(MAILLAGE : MA
#                 CREA_GROUP_NO:(GROUP_MA :AD)) ;

MA=DEFI_GROUP( reuse=MA,   INFO=2,
                MAILLAGE=MA,
           CREA_GROUP_NO=_F(  NOM = 'AD',
OPTION = 'NOEUD_ORDO',
GROUP_MA = 'AD',
#NOEUD_ORIG : N296
#NOEUD_EXTR : N297
GROUP_NO_ORIG = 'A',
GROUP_NO_EXTR = 'D')
                   )

MO=AFFE_MODELE(        MAILLAGE=MA, INFO=2,
     AFFE=_F(  TOUT = 'OUI',   PHENOMENE = 'MECANIQUE',
     MODELISATION = 'TUYAU_3M')
               )

CAREL=AFFE_CARA_ELEM(   MODELE=MO, INFO=2,
          POUTRE=_F( GROUP_MA = 'TOUT', SECTION = 'CERCLE',TUYAU_NCOU=1,
           CARA = (   'R',  'EP', ), VALE = (  0.10959,  0.00818, )),
ORIENTATION=_F( GROUP_NO = 'D', CARA = 'GENE_TUYAU', VALE = (0., 0., 1.,))
                              )

MAT=DEFI_MATERIAU(   ELAS=_F( E = 2.E11, NU = 0.3,  RHO = 7900.),
                   ECRO_LINE=_F( D_SIGM_EPSI = 12.5E9, SY = 200.E6)
                   )

CHMAT=AFFE_MATERIAU(   MAILLAGE=MA,
                       AFFE=_F( TOUT = 'OUI', MATER = MAT))

#FLEXION PLANE

CHAR1=AFFE_CHAR_MECA(  MODELE=MO,
     DDL_IMPO=_F( GROUP_NO = 'A', DX = 0., DY = 0., DZ = 0., DRX = 0., DRY = 0., DRZ = 0.),
     FORCE_NODALE=_F( GROUP_NO = 'D', MZ = 17.E3)
    )

#RESU1 = MECA_STATIQUE (MODELE: MO CHAM_MATER : CHMAT CARA_ELEM : CAREL
#                        EXCIT: ( CHARGE: CHAR1 )  );

RAMPE=DEFI_FONCTION(  NOM_PARA='INST',
            PROL_GAUCHE='LINEAIRE', PROL_DROITE='LINEAIRE',
            VALE=(0.0,0.0,1.0,1.0,) )

L_INST=DEFI_LIST_REEL(  DEBUT=0.0,
                INTERVALLE=_F( JUSQU_A = 1.,   NOMBRE = 1) )

RESU1=STAT_NON_LINE(
                            MODELE=MO,
                        CHAM_MATER=CHMAT,
                         CARA_ELEM=CAREL,
                             EXCIT=_F(
                CHARGE = CHAR1,
                FONC_MULT = RAMPE),
                         COMP_INCR=_F( RELATION = 'ELAS', ),
                         INCREMENT=_F(
                LIST_INST = L_INST),
                       CONVERGENCE=_F(
                RESI_GLOB_RELA = 1.E-6)
              )

RESU1=CALC_ELEM( reuse=RESU1,
                            OPTION=(
                  'SIEF_ELNO',  'VARI_ELNO',),
                          RESULTAT=RESU1,
              )

TEST_RESU(
           RESU=_F( RESULTAT = RESU1,
                 NUME_ORDRE = 1,
                 NOM_CHAM = 'DEPL',
                 GROUP_NO = 'D',
                 NOM_CMP = 'DY',
# REF 20C20D3COU16SEC
                 VALE = 1.86137E-02,
                 PRECISION = 1.E-2)
                    )

# FLEXION HORS PLAN

CHAR2=AFFE_CHAR_MECA(  MODELE=MO,
     DDL_IMPO=_F( GROUP_NO = 'A', DX = 0., DY = 0., DZ = 0., DRX = 0., DRY = 0., DRZ = 0.),
     FORCE_NODALE=_F( GROUP_NO = 'D', MY = 17.E3)
    )

#RESU2 = MECA_STATIQUE (MODELE: MO CHAM_MATER : CHMAT CARA_ELEM : CAREL
#                        EXCIT: ( CHARGE: CHAR2 ) );



RESU2=STAT_NON_LINE(
                            MODELE=MO,
                        CHAM_MATER=CHMAT,
                         CARA_ELEM=CAREL,
                             EXCIT=_F(
                CHARGE = CHAR2,
                FONC_MULT = RAMPE),
                         COMP_INCR=_F( RELATION = 'ELAS', ),
                         INCREMENT=_F(
                LIST_INST = L_INST),
                       CONVERGENCE=_F(
                RESI_GLOB_RELA = 1.E-6)
              )

RESU2=CALC_ELEM( reuse=RESU2,
                            OPTION=(
                  'SIEF_ELNO',  'VARI_ELNO',),
                          RESULTAT=RESU2,
              )

TEST_RESU(
           RESU=_F( RESULTAT = RESU2,
                 NUME_ORDRE = 1,
                 NOM_CHAM = 'DEPL',
                 GROUP_NO = 'D',
                 NOM_CMP = 'DZ',
# REF 20C20D3COU16SEC
                 VALE = -1.535E-02,
                 PRECISION = 1.E-2)
                    )

MASSEAB=POST_ELEM(   MODELE=MO,
       CHAM_MATER=CHMAT,
       CARA_ELEM=CAREL,
       MASS_INER=_F(
     GROUP_MA = 'AB')
     )

MASSEBC=POST_ELEM(   MODELE=MO,
       CHAM_MATER=CHMAT,
       CARA_ELEM=CAREL,
       MASS_INER=_F(
     GROUP_MA = 'BC')
     )

TEST_TABLE( TABLE=MASSEAB,
                NOM_PARA='MASSE',
               REFERENCE='ANALYTIQUE',
                VALE=51.40365,   PRECISION=1.E-5)

TEST_TABLE( TABLE=MASSEBC,
                NOM_PARA='MASSE',
                VALE=20.5226,   PRECISION=1.E-5)

TEST_TABLE( TABLE=MASSEAB,
                NOM_PARA='CDG_Y',
                VALE=0.905,   PRECISION=1.E-7)

TEST_TABLE( TABLE=MASSEBC,
                NOM_PARA='CDG_X',
                VALE=0.099197,   PRECISION=1.E-5)

TEST_TABLE( TABLE=MASSEBC,
                NOM_PARA='CDG_Y',
                VALE=0.099197,   PRECISION=1.E-5)

# TEST DES NOEUDS ORDONNES PAR DEFI_GROUP

EVOL=POST_RELEVE_T(    ACTION=_F( INTITULE = 'DEPL',
  GROUP_NO = 'AD',  RESULTAT = RESU1, NOM_CHAM = 'DEPL',
  TOUT_CMP = 'OUI',  OPERATION = 'EXTRACTION'))

TEST_TABLE( TABLE=EVOL,
                NOM_PARA='ABSC_CURV',
       FILTRE=_F( NOM_PARA = 'NOEUD',
               VALE_K = 'NS1'),
               REFERENCE='NON_REGRESSION',
                VALE=2.46696E+00  )

TEST_TABLE( TABLE=EVOL,
                NOM_PARA='ABSC_CURV',
       FILTRE=_F( NOM_PARA = 'NOEUD',
               VALE_K = 'NS18'),
               REFERENCE='NON_REGRESSION',
                VALE=2.06041E-01  )

TEST_TABLE( TABLE=EVOL,
                NOM_PARA='ABSC_CURV',
       FILTRE=_F( NOM_PARA = 'NOEUD',
               VALE_K = 'N37'),
               REFERENCE='ANALYTIQUE',
                VALE=2.87909288E+00  )

FIN()
#
#
#
##MPR_TABLE(TABLE:MASSEBC) ;
#
##MPR_TABLE(TABLE:MASSEAB) ;
#
##MPR_RESU(MODELE:MO
#RESU:(MAILLAGE:MA FORMAT:'ASTER' FICHIER:'ASTER')
#);
#
#EVOL= POST_RELEVE_T ( ACTION : (INTITULE : 'DEPL'
#  GROUP_NO:AD  RESULTAT : RESU1 NOM_CHAM : 'DEPL'
#  TOUT_CMP :'OUI'  OPERATION : 'EXTRACTION' ));
#
##MPR_TABLE ( TABLE : EVOL
#FORMAT:'AGRAF'
#TRI:(NOM_PARA:'DY' ORDRE:'CROISSANT')
#NOM_PARA:('NOEUD' 'COOR_X' 'COOR_Y' 'DX' 'DY'  'UI2' 'VI2' 'WI2' 'UO3'
#          'VO3' 'WO3' 'WO' 'WI1')
#
#);
#
##MPR_COURBE(FORMAT:'AGRAF' FICHIER:'AGRAF' TITRE_GRAPHIQUE:'SSLX102 WO'
#COURBE:(TABLE:EVOL FREQ_MARQUEUR:1 PARA_X:'ABSC_CURV' PARA_Y : 'WO'));
#
##MPR_COURBE(FORMAT:'AGRAF' FICHIER:'AGRAF' TITRE_GRAPHIQUE:'SSLX102 WO1'
#COURBE:(TABLE:EVOL FREQ_MARQUEUR:1 PARA_X:'ABSC_CURV' PARA_Y : 'WO1'));
#
#
##MPR_COURBE(FORMAT:'AGRAF' FICHIER:'AGRAF' TITRE_GRAPHIQUE:'SSLX102 UI2'
#COURBE:(TABLE:EVOL FREQ_MARQUEUR:1 PARA_X:'ABSC_CURV' PARA_Y : 'UI2'));
#
##MPR_COURBE(FORMAT:'AGRAF' FICHIER:'AGRAF' TITRE_GRAPHIQUE:'SSLX102 VI2'
#COURBE:(TABLE:EVOL FREQ_MARQUEUR:1 PARA_X:'ABSC_CURV' PARA_Y : 'VI2'));
#
##MPR_COURBE(FORMAT:'AGRAF' FICHIER:'AGRAF' TITRE_GRAPHIQUE:'SSLX102 WI2'
#COURBE:(TABLE:EVOL FREQ_MARQUEUR:1 PARA_X:'ABSC_CURV' PARA_Y : 'WI2'));
#
#
##MPR_COURBE(FORMAT:'AGRAF' FICHIER:'AGRAF' TITRE_GRAPHIQUE:'SSLX102 UO3'
#COURBE:(TABLE:EVOL FREQ_MARQUEUR:1 PARA_X:'ABSC_CURV' PARA_Y : 'UO3'));
#
##MPR_COURBE(FORMAT:'AGRAF' FICHIER:'AGRAF' TITRE_GRAPHIQUE:'SSLX102 VO3'
#COURBE:(TABLE:EVOL FREQ_MARQUEUR:1 PARA_X:'ABSC_CURV' PARA_Y : 'VO3'));
#
##MPR_COURBE(FORMAT:'AGRAF' FICHIER:'AGRAF' TITRE_GRAPHIQUE:'SSLX102 WO3'
#COURBE:(TABLE:EVOL FREQ_MARQUEUR:1 PARA_X:'ABSC_CURV' PARA_Y : 'WO3'));
#
# FIN( ) ;
#
#EXEC_LOGICIEL   (
#    LOGICIEL        :  '/ASTER/OUTILS/GIBI'
#    ARGUMENT        :
#                (
#        NOM_PARA        :  'FORT.70'
#                )
#                (
#        NOM_PARA        :  'FORT.19'
#                )
#         )  ;
#
#
#
##MPR_COURBE(FORMAT:'AGRAF' FICHIER:'AGRAF' TITRE_GRAPHIQUE:'SSLX102 WI1'
#COURBE:(TABLE:EVOL FREQ_MARQUEUR:1 PARA_X:'ABSC_CURV' PARA_Y : 'WI1'));
#
##MPR_COURBE(FORMAT:'AGRAF' FICHIER:'AGRAF' TITRE_GRAPHIQUE:'SSLX102 UO2'
#COURBE:(TABLE:EVOL FREQ_MARQUEUR:1 PARA_X:'ABSC_CURV' PARA_Y : 'UO2'));
#
##MPR_COURBE(FORMAT:'AGRAF' FICHIER:'AGRAF' TITRE_GRAPHIQUE:'SSLX102 VO2'
#COURBE:(TABLE:EVOL FREQ_MARQUEUR:1 PARA_X:'ABSC_CURV' PARA_Y : 'VO2'));
#
##MPR_COURBE(FORMAT:'AGRAF' FICHIER:'AGRAF' TITRE_GRAPHIQUE:'SSLX102 WO2'
#COURBE:(TABLE:EVOL FREQ_MARQUEUR:1 PARA_X:'ABSC_CURV' PARA_Y : 'WO2'));
#
##MPR_COURBE(FORMAT:'AGRAF' FICHIER:'AGRAF' TITRE_GRAPHIQUE:'SSLX102 UI3'
#COURBE:(TABLE:EVOL FREQ_MARQUEUR:1 PARA_X:'ABSC_CURV' PARA_Y : 'UI3'));
#
##MPR_COURBE(FORMAT:'AGRAF' FICHIER:'AGRAF' TITRE_GRAPHIQUE:'SSLX102 VI3'
#COURBE:(TABLE:EVOL FREQ_MARQUEUR:1 PARA_X:'ABSC_CURV' PARA_Y : 'VI3'));
#
##MPR_COURBE(FORMAT:'AGRAF' FICHIER:'AGRAF' TITRE_GRAPHIQUE:'SSLX102 WI3'
#COURBE:(TABLE:EVOL FREQ_MARQUEUR:1 PARA_X:'ABSC_CURV' PARA_Y : 'WI3'));
