# TITRE MELANGE 3D-PLAQUE-POUTRE
# ======================================================================
# COPYRIGHT (C) 1991 - 2013  EDF R&D                  WWW.CODE-ASTER.ORG
# THIS PROGRAM IS FREE SOFTWARE; YOU CAN REDISTRIBUTE IT AND/OR MODIFY
# IT UNDER THE TERMS OF THE GNU GENERAL PUBLIC LICENSE AS PUBLISHED BY
# THE FREE SOFTWARE FOUNDATION; EITHER VERSION 2 OF THE LICENSE, OR
# (AT YOUR OPTION) ANY LATER VERSION.
#
# THIS PROGRAM IS DISTRIBUTED IN THE HOPE THAT IT WILL BE USEFUL, BUT
# WITHOUT ANY WARRANTY; WITHOUT EVEN THE IMPLIED WARRANTY OF
# MERCHANTABILITY OR FITNESS FOR A PARTICULAR PURPOSE. SEE THE GNU
# GENERAL PUBLIC LICENSE FOR MORE DETAILS.
#
# YOU SHOULD HAVE RECEIVED A COPY OF THE GNU GENERAL PUBLIC LICENSE
# ALONG WITH THIS PROGRAM; IF NOT, WRITE TO EDF R&D CODE_ASTER,
#    1 AVENUE DU GENERAL DE GAULLE, 92141 CLAMART CEDEX, FRANCE.
# ======================================================================

DEBUT(CODE=_F(NIV_PUB_WEB='INTERNET'),DEBUG=_F(SDVERI='OUI'))

MA=LIRE_MAILLAGE();

MO=AFFE_MODELE(MAILLAGE=MA,
               AFFE=(_F(MAILLE='HE1',
                        PHENOMENE='MECANIQUE',
                        MODELISATION='3D',),
                     _F(GROUP_MA='GROUP_MA_GRMA1',
                        PHENOMENE='MECANIQUE',
                        MODELISATION='DKT',),
                     _F(GROUP_MA='GROUP_MA_GRMA2',
                        PHENOMENE='MECANIQUE',
                        MODELISATION='POU_D_E',),),);

MAT=DEFI_MATERIAU(ELAS=_F(E=200000.0,
                          NU=0.3,
                          ALPHA=0.0,),);

CHMA=AFFE_MATERIAU(MAILLAGE=MA,
                   AFFE=_F(TOUT='OUI',
                           MATER=MAT,),);

CARA=AFFE_CARA_ELEM(MODELE=MO,
                    POUTRE=_F(GROUP_MA='GROUP_MA_GRMA2',
                              SECTION='RECTANGLE',
                              CARA=('HZ','HY',),
                              VALE=(3.0,1.0,),),
                    COQUE=_F(GROUP_MA='GROUP_MA_GRMA1',
                             EPAIS=1.0,),);

CHME=AFFE_CHAR_MECA(MODELE=MO,
                    DDL_IMPO=(_F(GROUP_NO='GROUP_NO_GRNO1',
                                 DX=0.0,
                                 DY=0.0,
                                 DZ=0.0,),
                              _F(NOEUD=('N10','N11','N26','N23',),
                                 DZ=0.0,),),
                    LIAISON_DDL=(_F(NOEUD=('N22','N23',),
                                    DDL=('DRZ','DRZ',),
                                    COEF_MULT=(1.0,-1.0,),
                                    COEF_IMPO=0.0,),
                                 _F(NOEUD=('N23','N24',),
                                    DDL=('DRZ','DRZ',),
                                    COEF_MULT=(1.0,-1.0,),
                                    COEF_IMPO=0.0,),),
                    LIAISON_GROUP=(_F(NOEUD_1=('N4','N16',),
                                      NOEUD_2=('N21','N25',),
                                      DDL_1='DX',
                                      COEF_MULT_1=1.0,
                                      DDL_2='DX',
                                      COEF_MULT_2=-1.0,
                                      COEF_IMPO=0.0,),
                                   _F(NOEUD_1=('N4','N16',),
                                      NOEUD_2=('N21','N25',),
                                      DDL_1='DY',
                                      COEF_MULT_1=1.0,
                                      DDL_2='DY',
                                      COEF_MULT_2=-1.0,
                                      COEF_IMPO=0.0,),
                                   _F(NOEUD_1=('N4','N16',),
                                      NOEUD_2=('N21','N25',),
                                      DDL_1='DZ',
                                      COEF_MULT_1=1.0,
                                      DDL_2='DZ',
                                      COEF_MULT_2=-1.0,
                                      COEF_IMPO=0.0,),
                                   _F(NOEUD_1=('N5','N11','N17',),
                                      GROUP_NO_2='GROUP_NO_GRNO3',
                                      DDL_1='DX',
                                      COEF_MULT_1=1.0,
                                      DDL_2='DRZ',
                                      COEF_MULT_2=0.5,
                                      COEF_IMPO=0.0,),
                                   _F(NOEUD_1=('N3','N15','N10',),
                                      GROUP_NO_2='GROUP_NO_GRNO3',
                                      DDL_1='DX',
                                      COEF_MULT_1=1.0,
                                      DDL_2='DRZ',
                                      COEF_MULT_2=-0.5,
                                      COEF_IMPO=0.0,),),
                    FORCE_NODALE=_F(NOEUD='N29',
                                    FY=-1.0,),);

DEP=MECA_STATIQUE(MODELE=MO,
                  CHAM_MATER=CHMA,
                  CARA_ELEM=CARA,
                  EXCIT=_F(CHARGE=CHME,),);

DEP1=CREA_CHAMP(TYPE_CHAM='NOEU_DEPL_R',
                OPERATION='EXTR',
                RESULTAT=DEP,
                NOM_CHAM='DEPL',
                NUME_ORDRE=1,);

TEST_RESU(CHAM_NO=(_F(NOEUD='N1',
                      CRITERE='ABSOLU',
                      REFERENCE='ANALYTIQUE',
                      NOM_CMP='DY',
                      PRECISION=1.E-08,
                      CHAM_GD=DEP1,
                      VALE_CALC= 7.36859974E-19,
                      VALE_REFE=0.0,),
                   _F(NOEUD='N26',
                      REFERENCE='ANALYTIQUE',
                      NOM_CMP='DY',
                      PRECISION=0.13500000000000001,
                      CHAM_GD=DEP1,
                      VALE_CALC=-0.023114978,
                      VALE_REFE=-0.026700000000000002,),
                   _F(NOEUD='N4',
                      REFERENCE='ANALYTIQUE',
                      NOM_CMP='DY',
                      PRECISION=0.13800000000000001,
                      CHAM_GD=DEP1,
                      VALE_CALC=-0.023024912,
                      VALE_REFE=-0.026700000000000002,),
                   _F(NOEUD='N22',
                      REFERENCE='ANALYTIQUE',
                      NOM_CMP='DY',
                      PRECISION=0.084000000000000005,
                      CHAM_GD=DEP1,
                      VALE_CALC=-0.085483977,
                      VALE_REFE=-0.093299999999999994,),
                   _F(NOEUD='N23',
                      REFERENCE='ANALYTIQUE',
                      NOM_CMP='DY',
                      PRECISION=0.083000000000000004,
                      CHAM_GD=DEP1,
                      VALE_CALC=-0.085605750,
                      VALE_REFE=-0.093299999999999994,),
                   _F(NOEUD='N29',
                      REFERENCE='ANALYTIQUE',
                      NOM_CMP='DY',
                      PRECISION=0.064000000000000001,
                      CHAM_GD=DEP1,
                      VALE_CALC=-0.168647339,
                      VALE_REFE=-0.17999999999999999,),
                   ),
          )

FIN();
#
