# MODIF  DATE 10/10/2012   AUTEUR COURTOIS M.COURTOIS 
# TITRE FLEXION D UNE POUTRE EN BETON ARME
# sslx103b.para = tps_job 100 mem_job 256Mo ncpus 1 liste_test S
#            CONFIGURATION MANAGEMENT OF EDF VERSION
# ======================================================================
# COPYRIGHT (C) 1991 - 2012  EDF R&D                  WWW.CODE-ASTER.ORG
# THIS PROGRAM IS FREE SOFTWARE; YOU CAN REDISTRIBUTE IT AND/OR MODIFY  
# IT UNDER THE TERMS OF THE GNU GENERAL PUBLIC LICENSE AS PUBLISHED BY  
# THE FREE SOFTWARE FOUNDATION; EITHER VERSION 2 OF THE LICENSE, OR     
# (AT YOUR OPTION) ANY LATER VERSION.                                                    
#                                                                       
# THIS PROGRAM IS DISTRIBUTED IN THE HOPE THAT IT WILL BE USEFUL, BUT   
# WITHOUT ANY WARRANTY; WITHOUT EVEN THE IMPLIED WARRANTY OF            
# MERCHANTABILITY OR FITNESS FOR A PARTICULAR PURPOSE. SEE THE GNU      
# GENERAL PUBLIC LICENSE FOR MORE DETAILS.                              
#                                                                       
# YOU SHOULD HAVE RECEIVED A COPY OF THE GNU GENERAL PUBLIC LICENSE     
# ALONG WITH THIS PROGRAM; IF NOT, WRITE TO EDF R&D CODE_ASTER,         
#    1 AVENUE DU GENERAL DE GAULLE, 92141 CLAMART CEDEX, FRANCE.        
# ======================================================================
DEBUT(CODE=_F(NOM='SSLX103B',
              NIV_PUB_WEB='INTERNET',),);
MA=LIRE_MAILLAGE(FORMAT='MED');

# section acier
SA = 3e-3 

Dimp =0.001;
EB = 30E9;
NUB = 0.2;
RHOB = 2500; 

EA = 200E9;
NUA = 0.25;
RHOA = 7500;

MO=AFFE_MODELE(MAILLAGE=MA,
        AFFE=(_F(GROUP_MA='BETON' ,
                PHENOMENE='MECANIQUE',
                MODELISATION='3D',),
            _F( GROUP_MA='ACIER',
                PHENOMENE='MECANIQUE',
                MODELISATION='BARRE',)
                ),);

BETON = DEFI_MATERIAU(
        ELAS=_F(E=EB, 
                NU=NUB,),);
                
ACIER = DEFI_MATERIAU(
        ELAS=_F(E=EA, 
                NU=NUA,),);

MATE=AFFE_MATERIAU(MAILLAGE=MA, 
                    AFFE=(_F(GROUP_MA =('BETON'),
                             MATER=BETON,),
                          _F(GROUP_MA =('ACIER'),
                             MATER=ACIER,),));
                    
CAREL=AFFE_CARA_ELEM(MODELE=MO,
                     BARRE=(_F( GROUP_MA = 'ACIER',
                                SECTION = 'GENERALE',
                                CARA = 'A',
                                VALE = SA,),));
                              
CLIM=AFFE_CHAR_MECA(MODELE=MO,
        FACE_IMPO=_F(GROUP_MA='SLEFT',
                     DX = 0),
        DDL_IMPO=(_F(GROUP_NO='PMID', 
                     DY=0,DZ=0),
                  _F(GROUP_NO='P12',
                     DY=0),)); 
                    
CHARGE = AFFE_CHAR_MECA(MODELE=MO,
                        FACE_IMPO=_F(GROUP_MA='SRIGHT',
                                     DZ =Dimp,));

LIST = DEFI_LIST_REEL(DEBUT= 0.,
                       INTERVALLE = (_F(JUSQU_A = 1, NOMBRE = 1),),);

RES =  MECA_STATIQUE(MODELE=MO,
                     CHAM_MATER=MATE,
                     CARA_ELEM = CAREL,
                     EXCIT=(_F(CHARGE=CLIM,),
                            _F(CHARGE=CHARGE),),);
RES=CALC_CHAMP(reuse =RES,
                   RESULTAT=RES,
                   GROUP_MA='ACIER',
                   CONTRAINTE=('EFGE_ELNO',),);
# " deplacement milieu de poutre
TEST_RESU(RESU=_F(NUME_ORDRE=1,
                  GROUP_NO='MID',
                  REFERENCE='SOURCE_EXTERNE',
                  RESULTAT=RES,
                  NOM_CHAM='DEPL',
                  NOM_CMP='DZ',
                  VALE_CALC= 3.31643876E-04,
                  VALE_REFE=3.3164199999999999E-4,
                  PRECISION=1.E-2,),
          )

# contraintes beton milieu poutre
TEST_RESU(RESU=_F(NUME_ORDRE=1,
                  REFERENCE='SOURCE_EXTERNE',
                  POINT=19,
                  RESULTAT=RES,
                  NOM_CHAM='SIEF_ELGA',
                  NOM_CMP='SIXX',
                  VALE_CALC= 7.71443845E+05,
                  VALE_REFE=7.65317E5,
                  PRECISION=1.E-2,
                  MAILLE='M795',),
          )

# effort acier milieu poutre
TEST_RESU(RESU=_F(NUME_ORDRE=1,
                  REFERENCE='SOURCE_EXTERNE',
                  POINT=1,
                  RESULTAT=RES,
                  NOM_CHAM='EFGE_ELNO',
                  NOM_CMP='N',
                  VALE_CALC= 1.61313100E+04,
                  VALE_REFE=1.6260E4,
                  PRECISION=1.E-2,
                  MAILLE='M21',),
          )

# " deplacement milieu de poutre
TEST_RESU(RESU=_F(NUME_ORDRE=1,
                  GROUP_NO='MID',
                  RESULTAT=RES,
                  NOM_CHAM='DEPL',
                  NOM_CMP='DZ',
                  VALE_CALC=3.3164387632833001E-4,
                  TOLE_MACHINE=1.E-3,),
          )

# contraintes beton milieu poutre
TEST_RESU(RESU=_F(NUME_ORDRE=1,
                  POINT=19,
                  RESULTAT=RES,
                  NOM_CHAM='SIEF_ELGA',
                  NOM_CMP='SIXX',
                  VALE_CALC=7.7144384489478997E5,
                  TOLE_MACHINE=1.E-3,
                  MAILLE='M795',),
          )

# effort acier milieu poutre
TEST_RESU(RESU=_F(NUME_ORDRE=1,
                  POINT=1,
                  RESULTAT=RES,
                  NOM_CHAM='EFGE_ELNO',
                  NOM_CMP='N',
                  VALE_CALC=1.6131310005641E4,
                  TOLE_MACHINE=1.E-3,
                  MAILLE='M21',),
          )

FIN()
