# MODIF  DATE 13/01/2011   AUTEUR PELLET J.PELLET 
# TITRE TUYAUTERIE COUDEE EN FLEXION
#            CONFIGURATION MANAGEMENT OF EDF VERSION
# ======================================================================
# COPYRIGHT (C) 1991 - 2011  EDF R&D                  WWW.CODE-ASTER.ORG
# THIS PROGRAM IS FREE SOFTWARE; YOU CAN REDISTRIBUTE IT AND/OR MODIFY
# IT UNDER THE TERMS OF THE GNU GENERAL PUBLIC LICENSE AS PUBLISHED BY
# THE FREE SOFTWARE FOUNDATION; EITHER VERSION 2 OF THE LICENSE, OR   
# (AT YOUR OPTION) ANY LATER VERSION.                                 
#
# THIS PROGRAM IS DISTRIBUTED IN THE HOPE THAT IT WILL BE USEFUL, BUT 
# WITHOUT ANY WARRANTY; WITHOUT EVEN THE IMPLIED WARRANTY OF          
# MERCHANTABILITY OR FITNESS FOR A PARTICULAR PURPOSE. SEE THE GNU    
# GENERAL PUBLIC LICENSE FOR MORE DETAILS.                            
#
# YOU SHOULD HAVE RECEIVED A COPY OF THE GNU GENERAL PUBLIC LICENSE   
# ALONG WITH THIS PROGRAM; IF NOT, WRITE TO EDF R&D CODE_ASTER,       
#    1 AVENUE DU GENERAL DE GAULLE, 92141 CLAMART CEDEX, FRANCE.      
# ======================================================================
# MODELISATION TUYAU_6M

DEBUT(CODE=_F(  NOM = 'SSLX102C',NIV_PUB_WEB='INTERNET'))

PRE_GIBI()

MA=LIRE_MAILLAGE(VERI_MAIL=_F(VERIF='OUI'),  )

MA=DEFI_GROUP( reuse=MA,   MAILLAGE=MA,
  CREA_GROUP_MA=_F(  NOM = 'TOUT', TOUT = 'OUI'))

MA=DEFI_GROUP(reuse=MA,  MAILLAGE=MA,
                 CREA_GROUP_NO=_F( GROUP_MA = 'AD'))

MO=AFFE_MODELE(        MAILLAGE=MA, 
     AFFE=_F(  TOUT = 'OUI',   PHENOMENE = 'MECANIQUE',
     MODELISATION = 'TUYAU_6M')
               )

CAREL=AFFE_CARA_ELEM(   MODELE=MO, 
          POUTRE=_F( 
       GROUP_MA = 'TOUT',
  SECTION = 'CERCLE',
           CARA = (   'R',  'EP', ), VALE = (  0.10959,  0.00818, )),
ORIENTATION=_F( GROUP_NO = 'D', CARA = 'GENE_TUYAU', VALE = (0., 0., 1.,))
                              )

MAT=DEFI_MATERIAU(   ELAS=_F( E = 2.E11, NU = 0.3),
                   ECRO_LINE=_F( D_SIGM_EPSI = 12.5E9, SY = 200.E6)
                   )

CHMAT=AFFE_MATERIAU(   MAILLAGE=MA,
                       AFFE=_F( TOUT = 'OUI', MATER = MAT))

#FLEXION PLANE

CHAR1=AFFE_CHAR_MECA(  MODELE=MO,
     DDL_IMPO=_F( GROUP_NO = 'A', DX = 0., DY = 0., DZ = 0., DRX = 0., DRY = 0., DRZ = 0.),
     FORCE_NODALE=_F( GROUP_NO = 'D', MZ = 17.E3)
    )

MEL=CALC_MATR_ELEM(  
                              MODELE=MO,        
               #   CHARGE          :  CHAR1     
                          CHAM_MATER=CHMAT,     
                           CARA_ELEM=CAREL,     
                              OPTION='RIGI_MECA'  
                       )

RESU=MECA_STATIQUE(  MODELE=MO,
                          CHAM_MATER=CHMAT,   CARA_ELEM=CAREL,
                         EXCIT=_F(  CHARGE = CHAR1)
                    #    OPTION:('EFGE_ELNO_DEPL'
                     #           'SIEF_ELGA')
                    )

TEST_RESU(
           RESU=_F( RESULTAT = RESU,
                 NUME_ORDRE = 1,
                 NOM_CHAM = 'DEPL',
                 GROUP_NO = 'D',
                 NOM_CMP = 'DY',
                 VALE = 2.E-2,
                 REFERENCE = 'SOURCE_EXTERNE',
                 PRECISION = 0.02E-2)
                    )

# FLEXION HORS PLAN

CHAR2=AFFE_CHAR_MECA(  MODELE=MO,
     DDL_IMPO=_F( GROUP_NO = 'A', DX = 0., DY = 0., DZ = 0., DRX = 0., DRY = 0., DRZ = 0.),
     FORCE_NODALE=_F( GROUP_NO = 'D', MY = 17.E3)
    )

RESU2=MECA_STATIQUE(  MODELE=MO,
                          CHAM_MATER=CHMAT,   CARA_ELEM=CAREL,
                         EXCIT=_F(  CHARGE = CHAR2)
                    )

TEST_RESU(
           RESU=_F( RESULTAT = RESU2,
                 NUME_ORDRE = 1,
                 NOM_CHAM = 'DEPL',
                 GROUP_NO = 'D',
                 NOM_CMP = 'DZ',
                 VALE = -1.5657E-2,
                 REFERENCE = 'SOURCE_EXTERNE',
                 PRECISION = 2.1E-2)
                    )

FIN()
#
#
#
#
#
#
#
#
#
# &RESU = CALC_NO ( RESULTAT   : RESU
#                   CHAM_MATER : CHMAT
#                   CARA_ELEM  : CAREL
#                   OPTION: 'FORC_NODA' );
#
#
#   #MPR_RESU (MODELE : MO
# RESU : (VALE_MAX:'OUI' VALE_MIN:'OUI' RESULTAT : RESU)
# #RESU:(FORMAT:'CASTEM' MAILLAGE:MA RESULTAT:RESU)
#   );
#
#EVOL= POST_RELEVE_T ( ACTION : (INTITULE : 'DEPL'
#  GROUP_NO:AD  RESULTAT : RESU NOM_CHAM : 'DEPL'
#  TOUT_CMP :'OUI'  OPERATION : 'EXTRACTION' ));
#
##MPR_TABLE ( TABLE : EVOL);
#
##MPR_COURBE(FORMAT:'AGRAF' FICHIER:'AGRAF' TITRE_GRAPHIQUE:'SSLX102 WO'
#COURBE:(TABLE:EVOL FREQ_MARQUEUR:1 PARA_X:'ABSC_CURV' PARA_Y : 'WO'));
#
##MPR_COURBE(FORMAT:'AGRAF' FICHIER:'AGRAF' TITRE_GRAPHIQUE:'SSLX102 WO1'
#COURBE:(TABLE:EVOL FREQ_MARQUEUR:1 PARA_X:'ABSC_CURV' PARA_Y : 'WO1'));
#
##MPR_COURBE(FORMAT:'AGRAF' FICHIER:'AGRAF' TITRE_GRAPHIQUE:'SSLX102 WI1'
#COURBE:(TABLE:EVOL FREQ_MARQUEUR:1 PARA_X:'ABSC_CURV' PARA_Y : 'WI1'));
#
##MPR_COURBE(FORMAT:'AGRAF' FICHIER:'AGRAF' TITRE_GRAPHIQUE:'SSLX102 UI2'
#COURBE:(TABLE:EVOL FREQ_MARQUEUR:1 PARA_X:'ABSC_CURV' PARA_Y : 'UI2'));
#
##MPR_COURBE(FORMAT:'AGRAF' FICHIER:'AGRAF' TITRE_GRAPHIQUE:'SSLX102 VI2'
#COURBE:(TABLE:EVOL FREQ_MARQUEUR:1 PARA_X:'ABSC_CURV' PARA_Y : 'VI2'));
#
##MPR_COURBE(FORMAT:'AGRAF' FICHIER:'AGRAF' TITRE_GRAPHIQUE:'SSLX102 WI2'
#COURBE:(TABLE:EVOL FREQ_MARQUEUR:1 PARA_X:'ABSC_CURV' PARA_Y : 'WI2'));
#
##MPR_COURBE(FORMAT:'AGRAF' FICHIER:'AGRAF' TITRE_GRAPHIQUE:'SSLX102 UO2'
#COURBE:(TABLE:EVOL FREQ_MARQUEUR:1 PARA_X:'ABSC_CURV' PARA_Y : 'UO2'));
#
##MPR_COURBE(FORMAT:'AGRAF' FICHIER:'AGRAF' TITRE_GRAPHIQUE:'SSLX102 VO2'
#COURBE:(TABLE:EVOL FREQ_MARQUEUR:1 PARA_X:'ABSC_CURV' PARA_Y : 'VO2'));
#
##MPR_COURBE(FORMAT:'AGRAF' FICHIER:'AGRAF' TITRE_GRAPHIQUE:'SSLX102 WO2'
#COURBE:(TABLE:EVOL FREQ_MARQUEUR:1 PARA_X:'ABSC_CURV' PARA_Y : 'WO2'));
#
##MPR_COURBE(FORMAT:'AGRAF' FICHIER:'AGRAF' TITRE_GRAPHIQUE:'SSLX102 UI3'
#COURBE:(TABLE:EVOL FREQ_MARQUEUR:1 PARA_X:'ABSC_CURV' PARA_Y : 'UI3'));
##MPR_COURBE(FORMAT:'AGRAF' FICHIER:'AGRAF' TITRE_GRAPHIQUE:'SSLX102 VI3'
#COURBE:(TABLE:EVOL FREQ_MARQUEUR:1 PARA_X:'ABSC_CURV' PARA_Y : 'VI3'));
##MPR_COURBE(FORMAT:'AGRAF' FICHIER:'AGRAF' TITRE_GRAPHIQUE:'SSLX102 WI3'
#COURBE:(TABLE:EVOL FREQ_MARQUEUR:1 PARA_X:'ABSC_CURV' PARA_Y : 'WI3'));
##MPR_COURBE(FORMAT:'AGRAF' FICHIER:'AGRAF' TITRE_GRAPHIQUE:'SSLX102 UO3'
#COURBE:(TABLE:EVOL FREQ_MARQUEUR:1 PARA_X:'ABSC_CURV' PARA_Y : 'UO3'));
##MPR_COURBE(FORMAT:'AGRAF' FICHIER:'AGRAF' TITRE_GRAPHIQUE:'SSLX102 VO3'
#COURBE:(TABLE:EVOL FREQ_MARQUEUR:1 PARA_X:'ABSC_CURV' PARA_Y : 'VO3'));
##MPR_COURBE(FORMAT:'AGRAF' FICHIER:'AGRAF' TITRE_GRAPHIQUE:'SSLX102 WO3'
#COURBE:(TABLE:EVOL FREQ_MARQUEUR:1 PARA_X:'ABSC_CURV' PARA_Y : 'WO3'));
#
##MPR_COURBE(FORMAT:'AGRAF' FICHIER:'AGRAF' TITRE_GRAPHIQUE:'SSLX102 UI4'
#COURBE:(TABLE:EVOL FREQ_MARQUEUR:1 PARA_X:'ABSC_CURV' PARA_Y : 'UI4'));
##MPR_COURBE(FORMAT:'AGRAF' FICHIER:'AGRAF' TITRE_GRAPHIQUE:'SSLX102 VI4'
#COURBE:(TABLE:EVOL FREQ_MARQUEUR:1 PARA_X:'ABSC_CURV' PARA_Y : 'VI4'));
##MPR_COURBE(FORMAT:'AGRAF' FICHIER:'AGRAF' TITRE_GRAPHIQUE:'SSLX102 WI4'
#COURBE:(TABLE:EVOL FREQ_MARQUEUR:1 PARA_X:'ABSC_CURV' PARA_Y : 'WI4'));
##MPR_COURBE(FORMAT:'AGRAF' FICHIER:'AGRAF' TITRE_GRAPHIQUE:'SSLX102 UO4'
#COURBE:(TABLE:EVOL FREQ_MARQUEUR:1 PARA_X:'ABSC_CURV' PARA_Y : 'UO4'));
##MPR_COURBE(FORMAT:'AGRAF' FICHIER:'AGRAF' TITRE_GRAPHIQUE:'SSLX102 VO4'
#COURBE:(TABLE:EVOL FREQ_MARQUEUR:1 PARA_X:'ABSC_CURV' PARA_Y : 'VO4'));
##MPR_COURBE(FORMAT:'AGRAF' FICHIER:'AGRAF' TITRE_GRAPHIQUE:'SSLX102 WO4'
#COURBE:(TABLE:EVOL FREQ_MARQUEUR:1 PARA_X:'ABSC_CURV' PARA_Y : 'WO4'));
#
##MPR_COURBE(FORMAT:'AGRAF' FICHIER:'AGRAF' TITRE_GRAPHIQUE:'SSLX102 UI5'
#COURBE:(TABLE:EVOL FREQ_MARQUEUR:1 PARA_X:'ABSC_CURV' PARA_Y : 'UI5'));
##MPR_COURBE(FORMAT:'AGRAF' FICHIER:'AGRAF' TITRE_GRAPHIQUE:'SSLX102 VI5'
#COURBE:(TABLE:EVOL FREQ_MARQUEUR:1 PARA_X:'ABSC_CURV' PARA_Y : 'VI5'));
##MPR_COURBE(FORMAT:'AGRAF' FICHIER:'AGRAF' TITRE_GRAPHIQUE:'SSLX102 WI5'
#COURBE:(TABLE:EVOL FREQ_MARQUEUR:1 PARA_X:'ABSC_CURV' PARA_Y : 'WI5'));
##MPR_COURBE(FORMAT:'AGRAF' FICHIER:'AGRAF' TITRE_GRAPHIQUE:'SSLX102 UO5'
#COURBE:(TABLE:EVOL FREQ_MARQUEUR:1 PARA_X:'ABSC_CURV' PARA_Y : 'UO5'));
##MPR_COURBE(FORMAT:'AGRAF' FICHIER:'AGRAF' TITRE_GRAPHIQUE:'SSLX102 VO5'
#COURBE:(TABLE:EVOL FREQ_MARQUEUR:1 PARA_X:'ABSC_CURV' PARA_Y : 'VO5'));
##MPR_COURBE(FORMAT:'AGRAF' FICHIER:'AGRAF' TITRE_GRAPHIQUE:'SSLX102 WO5'
#COURBE:(TABLE:EVOL FREQ_MARQUEUR:1 PARA_X:'ABSC_CURV' PARA_Y : 'WO5'));
#
##MPR_COURBE(FORMAT:'AGRAF' FICHIER:'AGRAF' TITRE_GRAPHIQUE:'SSLX102 UI6'
#COURBE:(TABLE:EVOL FREQ_MARQUEUR:1 PARA_X:'ABSC_CURV' PARA_Y : 'UI6'));
##MPR_COURBE(FORMAT:'AGRAF' FICHIER:'AGRAF' TITRE_GRAPHIQUE:'SSLX102 VI6'
#COURBE:(TABLE:EVOL FREQ_MARQUEUR:1 PARA_X:'ABSC_CURV' PARA_Y : 'VI6'));
##MPR_COURBE(FORMAT:'AGRAF' FICHIER:'AGRAF' TITRE_GRAPHIQUE:'SSLX102 WI6'
#COURBE:(TABLE:EVOL FREQ_MARQUEUR:1 PARA_X:'ABSC_CURV' PARA_Y : 'WI6'));
##MPR_COURBE(FORMAT:'AGRAF' FICHIER:'AGRAF' TITRE_GRAPHIQUE:'SSLX102 UO6'
#COURBE:(TABLE:EVOL FREQ_MARQUEUR:1 PARA_X:'ABSC_CURV' PARA_Y : 'UO6'));
##MPR_COURBE(FORMAT:'AGRAF' FICHIER:'AGRAF' TITRE_GRAPHIQUE:'SSLX102 VO6'
#COURBE:(TABLE:EVOL FREQ_MARQUEUR:1 PARA_X:'ABSC_CURV' PARA_Y : 'VO6'));
##MPR_COURBE(FORMAT:'AGRAF' FICHIER:'AGRAF' TITRE_GRAPHIQUE:'SSLX102 WO6'
#COURBE:(TABLE:EVOL FREQ_MARQUEUR:1 PARA_X:'ABSC_CURV' PARA_Y : 'WO6'));
#
#
## FIN( ) ;
#
#
#
