# person_in_charge: philippe.de-bonnieres at edf.fr
# ======================================================================
# COPYRIGHT (C) 1991 - 2016  EDF R&D                  WWW.CODE-ASTER.ORG
# THIS PROGRAM IS FREE SOFTWARE; YOU CAN REDISTRIBUTE IT AND/OR MODIFY
# IT UNDER THE TERMS OF THE GNU GENERAL PUBLIC LICENSE AS PUBLISHED BY
# THE FREE SOFTWARE FOUNDATION; EITHER VERSION 2 OF THE LICENSE, OR
# (AT YOUR OPTION) ANY LATER VERSION.
#
# THIS PROGRAM IS DISTRIBUTED IN THE HOPE THAT IT WILL BE USEFUL, BUT
# WITHOUT ANY WARRANTY; WITHOUT EVEN THE IMPLIED WARRANTY OF
# MERCHANTABILITY OR FITNESS FOR A PARTICULAR PURPOSE. SEE THE GNU
# GENERAL PUBLIC LICENSE FOR MORE DETAILS.
#
# YOU SHOULD HAVE RECEIVED A COPY OF THE GNU GENERAL PUBLIC LICENSE
# ALONG WITH THIS PROGRAM; IF NOT, WRITE TO EDF R&D CODE_ASTER,
#    1 AVENUE DU GENERAL DE GAULLE, 92141 CLAMART CEDEX, FRANCE.
# ======================================================================

DEBUT(CODE=_F(NIV_PUB_WEB='INTERNET'),DEBUG=_F(SDVERI='OUI'),
          BASE=_F( FICHIER = 'GLOBALE',LONG_REPE = 15000)  )

#......................................................................
# CYLINDRE INFINI SOUS PRESSION CALCUL 2D AXI
# LOI DE LEMAITRE
#......................................................................
#

M=LIRE_MAILLAGE(FORMAT='MED', )

MO=AFFE_MODELE(
            MAILLAGE=M,    
           AFFE=_F( TOUT = 'OUI',PHENOMENE = 'MECANIQUE',MODELISATION = 'AXIS')
           )

ACIER=DEFI_MATERIAU(
                ELAS=_F( E = 210000., NU = 0.3, ALPHA = 0.,  RHO = 1.),
            LEMAITRE=_F( N = 11.,UN_SUR_K = 0.00032840723,UN_SUR_M = 0.178571429)
           )

CM=AFFE_MATERIAU(
            MAILLAGE=M,
           AFFE=_F( TOUT = 'OUI',MATER = ACIER) )

P100=DEFI_FONCTION(
           NOM_PARA='INST',PROL_DROITE='CONSTANT',PROL_GAUCHE='LINEAIRE',
           VALE=(0.0, 0.0, 60.0, 100.0,)
           )

CH1=AFFE_CHAR_MECA(
            MODELE=MO,
           DDL_IMPO=_F( GROUP_NO = 'NOEHGFE', DY = 0.),LIAISON_DDL=(
           _F( NOEUD = ('N1', 'N2',  ), DDL = ('DY','DY',),
                        COEF_MULT = (1.,-1.,),COEF_IMPO = 0.),
           _F( NOEUD = ('N1', 'N9',  ), DDL = ('DY','DY',),
                        COEF_MULT = (1.,-1.,),COEF_IMPO = 0.),
           _F( NOEUD = ('N1', 'N10', ), DDL = ('DY','DY',),
                        COEF_MULT = (1.,-1.,),COEF_IMPO = 0.),
           _F( NOEUD = ('N1', 'N17', ), DDL = ('DY','DY',),
                        COEF_MULT = (1.,-1.,),COEF_IMPO = 0.),
           _F( NOEUD = ('N1', 'N18', ), DDL = ('DY','DY',),
                        COEF_MULT = (1.,-1.,),COEF_IMPO = 0.),
           _F( NOEUD = ('N1', 'N25', ), DDL = ('DY','DY',),
                        COEF_MULT = (1.,-1.,),COEF_IMPO = 0.),
           _F( NOEUD = ('N1', 'N26', ), DDL = ('DY','DY',),
                        COEF_MULT = (1.,-1.,),COEF_IMPO = 0.),
           _F( NOEUD = ('N1', 'N33', ), DDL = ('DY','DY',),
                        COEF_MULT = (1.,-1.,),COEF_IMPO = 0.),
           _F( NOEUD = ('N1', 'N34', ), DDL = ('DY','DY',),
                        COEF_MULT = (1.,-1.,),COEF_IMPO = 0.),
           _F( NOEUD = ('N1', 'N41', ), DDL = ('DY','DY',),
                        COEF_MULT = (1.,-1.,),COEF_IMPO = 0.),
           _F( NOEUD = ('N1', 'N42', ), DDL = ('DY','DY',),
                        COEF_MULT = (1.,-1.,),COEF_IMPO = 0.),
           _F( NOEUD = ('N1', 'N49', ), DDL = ('DY','DY',),
                        COEF_MULT = (1.,-1.,),COEF_IMPO = 0.),
           _F( NOEUD = ('N1', 'N50', ), DDL = ('DY','DY',),
                        COEF_MULT = (1.,-1.,),COEF_IMPO = 0.),
           _F( NOEUD = ('N1', 'N57', ), DDL = ('DY','DY',),
                        COEF_MULT = (1.,-1.,),COEF_IMPO = 0.),
           _F( NOEUD = ('N1', 'N58', ), DDL = ('DY','DY',),
                        COEF_MULT = (1.,-1.,),COEF_IMPO = 0.),
           _F( NOEUD = ('N1', 'N65', ), DDL = ('DY','DY',),
                        COEF_MULT = (1.,-1.,),COEF_IMPO = 0.),
           _F( NOEUD = ('N1', 'N66', ), DDL = ('DY','DY',),
                        COEF_MULT = (1.,-1.,),COEF_IMPO = 0.),
           _F( NOEUD = ('N1', 'N73', ), DDL = ('DY','DY',),
                        COEF_MULT = (1.,-1.,),COEF_IMPO = 0.),
           _F( NOEUD = ('N1', 'N74', ), DDL = ('DY','DY',),
                        COEF_MULT = (1.,-1.,),COEF_IMPO = 0.),
           _F( NOEUD = ('N1', 'N81', ), DDL = ('DY','DY',),
                        COEF_MULT = (1.,-1.,),COEF_IMPO = 0.),
# ... 147 like lines cut
                        COEF_MULT = (1.,-1.,),COEF_IMPO = 0.))
           )

CH2=AFFE_CHAR_MECA_F(
            MODELE=MO,
#          FORCE_NODALE:(NOEUD:(N372 N373 N377 N378 N381) FX:P20)
           PRES_REP=_F( GROUP_MA = 'AH',PRES = P100)
                          )

L_INST=DEFI_LIST_REEL(  DEBUT=0.0,
             INTERVALLE=_F( JUSQU_A = 60.0,       NOMBRE = 15)
           )

L_ARCH=DEFI_LIST_REEL(  DEBUT=40.0,
             INTERVALLE=_F( JUSQU_A = 60.0,       NOMBRE = 1)
           )

U=STAT_NON_LINE( MODELE=MO, CHAM_MATER=CM,
                EXCIT=(
                    _F( CHARGE = CH1),
                    _F( CHARGE = CH2)),
                COMPORTEMENT=_F( PARM_THETA = 0.5,
                                 RELATION = 'LEMAITRE',
                                 ITER_INTE_MAXI = 1000),
                INCREMENT=_F(
                              LIST_INST = L_INST,
                              NUME_INST_FIN = 5),
                NEWTON=_F(
                       MATRICE = 'TANGENTE',
                       REAC_ITER = 1),
                CONVERGENCE=_F(
                       RESI_GLOB_MAXI = 1.E-6,
                       ITER_GLOB_MAXI = 25),
                ARCHIVAGE=_F( INST = 20.),
                SOLVEUR=_F( METHODE = 'LDLT',),
                # Pour tester SUIVI_DDL / NOM_VARI
                SUIVI_DDL=  _F( 
                                          # NOM_CMP    ='V7',
                                            NOM_VARI    ='VIDE',
                                            NOM_CHAM   ='VARI_ELGA',
                                            MAILLE=('M1','M2'),
                                            EVAL_ELGA  ='MAX',
                                            EVAL_CHAM ='MAX',),
              
              
                # Pour tester OBSERVATION / NOM_VARI
                OBSERVATION= _F(
                                           # NOM_CMP    ='V2',
                                             NOM_VARI    ='EPSPEQ',
                                                   NOM_CHAM='VARI_ELGA',
                                                   EVAL_ELGA='VALE',
                                                   POINT=1,
                                                   EVAL_CHAM='MIN',
                                                   MAILLE = ('M1','M2'),
                                                   ), 
                          
              )
TAB_OBS=RECU_TABLE(CO=U,   NOM_TABLE='OBSERVATION',);
IMPR_TABLE(TABLE=TAB_OBS, UNITE=6)


U=STAT_NON_LINE( reuse=U,
                            MODELE=MO,
                        CHAM_MATER=CM,EXCIT=(
                             _F(
                CHARGE = CH1), _F(
                CHARGE = CH2)),
                         ETAT_INIT=_F(
                EVOL_NOLI = U,
                INST = 20.),
                         COMPORTEMENT=_F( PARM_THETA = 0.5,
                RELATION = 'LEMAITRE',
                ITER_INTE_MAXI = 1000),
                         INCREMENT=_F(
                LIST_INST = L_INST),
                            NEWTON=_F(
                MATRICE = 'TANGENTE',
                REAC_ITER = 1),
                       CONVERGENCE=_F(
                RESI_GLOB_MAXI = 1.E-6,
                ITER_GLOB_MAXI = 25),
                         ARCHIVAGE=_F(
                LIST_INST = L_ARCH),
                           SOLVEUR=_F(
                METHODE = 'LDLT',
               )
              )

U=CALC_CHAMP(reuse=U,CONTRAINTE=('SIGM_ELNO'),VARI_INTERNE=('VARI_ELNO'),RESULTAT=U)


#

TEST_RESU(RESU=(_F(PARA='INST',
                   INST=60.0,
                   RESULTAT=U,
                   VALE_CALC=60.0,),
                _F(PARA='ITER_GLOB',
                   VALE_CALC_I=3,
                   INST=60.0,
                   RESULTAT=U,
                   CRITERE='ABSOLU',
                   ),
                ),
          )

U=CALC_CHAMP(reuse=U,RESULTAT=U,DEFORMATION=('EPSI_ELNO'))


U=CALC_CHAMP(reuse=U,RESULTAT=U,DEFORMATION=('EPSP_ELNO'))


TEST_RESU(RESU=(_F(INST=60.0,
                   RESULTAT=U,
                   NOM_CHAM='EPSP_ELNO',
                   NOEUD='N376',
                   NOM_CMP='EPXX',
                   VALE_CALC=-1.07717334E-04,
                   VALE_REFE=-1.08E-4,
                   REFERENCE='NON_DEFINI',
                   PRECISION=5.0E-3,
                   MAILLE='M1',),
                _F(INST=60.0,
                   RESULTAT=U,
                   NOM_CHAM='EPSP_ELNO',
                   NOEUD='N376',
                   NOM_CMP='EPYY',
                   VALE_CALC=-1.83422840E-05,
                   VALE_REFE=-1.84E-05,
                   REFERENCE='NON_DEFINI',
                   PRECISION=5.0E-3,
                   MAILLE='M1',),
                ),
          )

MASSES=POST_ELEM(        MODELE=MO,
                         CHAM_MATER=CM,
                          MASS_INER=_F(  TOUT = 'OUI')
                     )

TEST_TABLE(VALE_CALC=3769.9099999999999,
           NOM_PARA='MASSE',
           TABLE=MASSES,
           FILTRE=_F(NOM_PARA='LIEU',
                     VALE_K='M',),
           )

TEST_TABLE(VALE_CALC=1.885270E6,
           NOM_PARA='IX_G',
           TABLE=MASSES,
           FILTRE=_F(NOM_PARA='LIEU',
                     VALE_K='M',),
           )

TEST_TABLE(VALE_CALC=1.885270E6,
           NOM_PARA='IY_G',
           TABLE=MASSES,
           FILTRE=_F(NOM_PARA='LIEU',
                     VALE_K='M',),
           )

TEST_TABLE(VALE_CALC=3.769910E6,
           NOM_PARA='IZ_G',
           TABLE=MASSES,
           FILTRE=_F(NOM_PARA='LIEU',
                     VALE_K='M',),
           )

# Test NOM_VARI for CREA_TABLE
TB=CREA_TABLE(RESU=_F(RESULTAT=U,TOUT='OUI',NOM_CHAM='VARI_ELGA',NOM_VARI='EPSPEQ',INST=60.))

vale_test = 1.29767E-04

TEST_TABLE(VALE_CALC=vale_test,
           NOM_PARA='EPSPEQ',
           TABLE=TB,
           FILTRE=(_F(NOM_PARA='INST',VALE=60.,),
                   _F(NOM_PARA='MAILLE',VALE_K='M1',),
                   _F(NOM_PARA='POINT' ,VALE_I=1.,),

                   )
           )

TEST_RESU(RESU=(_F(RESULTAT=U,
                   INST=60.0,
                   MAILLE='M1',
                   POINT=1,
                   NOM_CHAM='VARI_ELGA',
                   NOM_CMP = 'V1',
                   VALE_CALC=vale_test,),),)

FIN( )
#
