# MODIF  DATE 13/01/2011   AUTEUR PELLET J.PELLET 
# RESPONSABLE PROIX J-M.PROIX
# TITRE EPROUVETTE ENTAILLEE ELASTOPLASTIQUE EN GRANDES DEFORMATIONS
# ssna303a.para = tps_job 300 mem_job 64Mo mem_aster 50 ncpus 1 liste_test S
#            CONFIGURATION MANAGEMENT OF EDF VERSION
# ======================================================================
# COPYRIGHT (C) 1991 - 2011  EDF R&D                  WWW.CODE-ASTER.ORG
# THIS PROGRAM IS FREE SOFTWARE; YOU CAN REDISTRIBUTE IT AND/OR MODIFY  
# IT UNDER THE TERMS OF THE GNU GENERAL PUBLIC LICENSE AS PUBLISHED BY  
# THE FREE SOFTWARE FOUNDATION; EITHER VERSION 2 OF THE LICENSE, OR     
# (AT YOUR OPTION) ANY LATER VERSION.                                                    
#                                                                       
# THIS PROGRAM IS DISTRIBUTED IN THE HOPE THAT IT WILL BE USEFUL, BUT   
# WITHOUT ANY WARRANTY; WITHOUT EVEN THE IMPLIED WARRANTY OF            
# MERCHANTABILITY OR FITNESS FOR A PARTICULAR PURPOSE. SEE THE GNU      
# GENERAL PUBLIC LICENSE FOR MORE DETAILS.                              
#                                                                       
# YOU SHOULD HAVE RECEIVED A COPY OF THE GNU GENERAL PUBLIC LICENSE     
# ALONG WITH THIS PROGRAM; IF NOT, WRITE TO EDF R&D CODE_ASTER,         
#    1 AVENUE DU GENERAL DE GAULLE, 92141 CLAMART CEDEX, FRANCE.        
# ======================================================================

DEBUT(CODE=_F(NOM='SSNA303A',NIV_PUB_WEB='INTERNET'),);

PRE_GIBI();

MAIL=LIRE_MAILLAGE();

MAIL=DEFI_GROUP(reuse =MAIL,
                MAILLAGE=MAIL,
                CREA_GROUP_NO=(_F(GROUP_MA='SYME',),
                               _F(GROUP_MA='EFFO',),
                               _F(GROUP_MA='LIG',),
                               _F(GROUP_MA='NOTCH',),),);

MO=AFFE_MODELE(MAILLAGE=MAIL,
               VERIF='MAILLE',
               AFFE=_F(GROUP_MA='STOT',
                       PHENOMENE='MECANIQUE',
                       MODELISATION='AXIS_SI',),);

MA_EPR=DEFI_MATERIAU(ELAS=_F(E=200000.0,
                             NU=0.3,
                             ALPHA=0.0,),
                     ECRO_LINE=_F(D_SIGM_EPSI=20000.,
                                  SY=200.,),);

CM=AFFE_MATERIAU(MAILLAGE=MAIL,
                 AFFE=_F(TOUT='OUI',
                         MATER=MA_EPR,),);

CH=AFFE_CHAR_MECA(MODELE=MO,
                  DDL_IMPO=_F(GROUP_NO='LIG',
                              DY=0.0,),);

CHT=AFFE_CHAR_MECA(MODELE=MO,
                   DDL_IMPO=_F(GROUP_NO='EFFO',
                               DY=6.,),);
IFIN = 1.0;


FCT_R=DEFI_FONCTION(NOM_PARA='INST',VALE=(0.0,0.0,
                          IFIN,1.0,
                          ),PROL_DROITE='EXCLU',PROL_GAUCHE='EXCLU',);

L_INST_R=DEFI_LIST_REEL(DEBUT=0.0,
                        INTERVALLE=_F(JUSQU_A=IFIN,
                                      NOMBRE=50,),);

L_ARCH_R=DEFI_LIST_REEL(DEBUT=0.0,
                        INTERVALLE=_F(JUSQU_A=IFIN,
                                      NOMBRE=50,),);

# PREMIER CALCUL : SIMO_MIEHE
# ------------------------------------------------------------

UR=STAT_NON_LINE(MODELE=MO,
                 CHAM_MATER=CM,
                 EXCIT=(_F(CHARGE=CH,),
                        _F(CHARGE=CHT,
                           FONC_MULT=FCT_R,),),
                 COMP_INCR=_F(RELATION='VMIS_ISOT_LINE',
                              DEFORMATION='SIMO_MIEHE',),
                 INCREMENT=_F(LIST_INST=L_INST_R,),
                 NEWTON=_F(REAC_INCR=1,
                           MATRICE='TANGENTE',
                           REAC_ITER=1,),
                 CONVERGENCE=_F(ITER_GLOB_MAXI=20,),
                 ARCHIVAGE=_F(LIST_INST=L_ARCH_R,),);

UR=CALC_ELEM(reuse =UR,
             RESULTAT=UR,
             OPTION=('SIEF_ELNO','VARI_ELNO_ELGA',),);

UR=CALC_NO(reuse =UR,
           RESULTAT=UR,
           OPTION='REAC_NODA',);

# DEUXIEME CALCUL : GDEF_HYPO_ELAS
# ------------------------------------------------------------

UL=STAT_NON_LINE(MODELE=MO,
                 CHAM_MATER=CM,
                 EXCIT=(_F(CHARGE=CH,),
                        _F(CHARGE=CHT,
                           FONC_MULT=FCT_R,),),
                 COMP_INCR=_F(RELATION='VMIS_ISOT_LINE',
                              DEFORMATION = 'GDEF_HYPO_ELAS',),
                 INCREMENT=_F(LIST_INST=L_INST_R,),
                 NEWTON=_F(REAC_INCR=1,
                           MATRICE='TANGENTE',
                           REAC_ITER=1,),
                 CONVERGENCE=_F(ITER_GLOB_MAXI=20,),
                 ARCHIVAGE=_F(LIST_INST=L_ARCH_R,),);

UL=CALC_ELEM(reuse =UL,
             RESULTAT=UL,
             OPTION=('SIEF_ELNO','VARI_ELNO_ELGA',),);

UL=CALC_NO(reuse =UL,
           RESULTAT=UL,
           OPTION='REAC_NODA',);

IMPR_RESU(FORMAT='MED',
          RESU=(_F(RESULTAT=UL,),
                _F(RESULTAT=UR,),),);

#-----------------------------------------------------------
# DEPOUILLEMENT DES RESULTATS
# ----------------------------------------------------------

CONTR_R=POST_RELEVE_T(ACTION=_F(OPERATION='EXTRACTION',
                                INTITULE='Contraction diametrale',
                                RESULTAT=UR,
                                NOM_CHAM='DEPL',
                                GROUP_NO='NO_ENT',
                                NOM_CMP='DX',),);

EFFORT_R=POST_RELEVE_T(ACTION=_F(OPERATION='EXTRACTION',
                                 INTITULE='force',
                                 RESULTAT=UR,
                                 NOM_CHAM='REAC_NODA',
                                 GROUP_NO='EFFO',
                                 RESULTANTE='DY',),);

# IMPR_TABLE ( FORMAT = 'TABLEAU',
#              TABLE = EFFORT_R,
#              NOM_PARA=('INST','DY'));
# 
# IMPR_TABLE ( FORMAT = 'TABLEAU',
#              TABLE = CONTR_R,
#              NOM_PARA=('INST','DX'));

TEST_TABLE(TABLE=EFFORT_R,
           FILTRE=_F(NOM_PARA='NUME_ORDRE',
                     VALE_I=5,),
           NOM_PARA='DY',
           VALE=6616.59,
           PRECISION=0.005,
           REFERENCE='AUTRE_ASTER',);

TEST_TABLE(TABLE=CONTR_R,
           FILTRE=_F(NOM_PARA='NUME_ORDRE',
                     VALE_I=5,),
           NOM_PARA='DX',
           VALE=-0.0845,
           PRECISION=0.005,
           REFERENCE='AUTRE_ASTER',);

TEST_TABLE(TABLE=EFFORT_R,
           FILTRE=_F(NOM_PARA='NUME_ORDRE',
                     VALE_I=25,),
           NOM_PARA='DY',
           VALE=21541.57,
           PRECISION=0.005,
           REFERENCE='AUTRE_ASTER',);

TEST_TABLE(TABLE=CONTR_R,
           FILTRE=_F(NOM_PARA='NUME_ORDRE',
                     VALE_I=25,),
           NOM_PARA='DX',
           VALE=-0.3766,
           PRECISION=0.005,
           REFERENCE='AUTRE_ASTER',);

TEST_TABLE(TABLE=EFFORT_R,
           FILTRE=_F(NOM_PARA='NUME_ORDRE',
                     VALE_I=50,),
           NOM_PARA='DY',
           VALE=33821.03,
           PRECISION=0.005,
           REFERENCE='AUTRE_ASTER',);

TEST_TABLE(TABLE=CONTR_R,
           FILTRE=_F(NOM_PARA='NUME_ORDRE',
                     VALE_I=50,),
           NOM_PARA='DX',
           VALE=-0.826,
           PRECISION=0.005,
           REFERENCE='AUTRE_ASTER',);

CONTR_L=POST_RELEVE_T(ACTION=_F(OPERATION='EXTRACTION',
                                INTITULE='Contraction diametrale',
                                RESULTAT=UL,
                                NOM_CHAM='DEPL',
                                GROUP_NO='NO_ENT',
                                NOM_CMP='DX',),);

EFFORT_L=POST_RELEVE_T(ACTION=_F(OPERATION='EXTRACTION',
                                 INTITULE='force',
                                 RESULTAT=UL,
                                 NOM_CHAM='REAC_NODA',
                                 GROUP_NO='EFFO',
                                 RESULTANTE='DY',),);

# IMPR_TABLE ( FORMAT = 'TABLEAU',
#              TABLE = EFFORT_L,
#              NOM_PARA=('INST','DY'));
# 
# IMPR_TABLE ( FORMAT = 'TABLEAU',
#              TABLE = CONTR_L,
#              NOM_PARA=('INST','DX'));

TEST_TABLE(TABLE=EFFORT_L,
           FILTRE=_F(NOM_PARA='NUME_ORDRE',
                     VALE_I=5,),
           NOM_PARA='DY',
           VALE=6616.59,
           PRECISION=0.01,
           REFERENCE='AUTRE_ASTER',);

TEST_TABLE(TABLE=CONTR_L,
           FILTRE=_F(NOM_PARA='NUME_ORDRE',
                     VALE_I=5,),
           NOM_PARA='DX',
           VALE=-0.0845,
           PRECISION=0.01,
           REFERENCE='AUTRE_ASTER',);

TEST_TABLE(TABLE=EFFORT_L,
           FILTRE=_F(NOM_PARA='NUME_ORDRE',
                     VALE_I=25,),
           NOM_PARA='DY',
           VALE=21541.57,
           PRECISION=0.01,
           REFERENCE='AUTRE_ASTER',);

TEST_TABLE(TABLE=CONTR_L,
           FILTRE=_F(NOM_PARA='NUME_ORDRE',
                     VALE_I=25,),
           NOM_PARA='DX',
           VALE=-0.3766,
           PRECISION=0.01,
           REFERENCE='AUTRE_ASTER',);

TEST_TABLE(TABLE=EFFORT_L,
           FILTRE=_F(NOM_PARA='NUME_ORDRE',
                     VALE_I=50,),
           NOM_PARA='DY',
           VALE=33821.0,
           PRECISION=0.01,
           REFERENCE='AUTRE_ASTER',);

TEST_TABLE(TABLE=CONTR_L,
           FILTRE=_F(NOM_PARA='NUME_ORDRE',
                     VALE_I=50,),
           NOM_PARA='DX',
           VALE=-0.826,
           PRECISION=0.01,
           REFERENCE='AUTRE_ASTER',);

FIN();
