# MODIF  DATE 29/04/2013   AUTEUR LAVERNE J.LAVERNE 
# TITRE DEPOUILLEMENT WEIBULL EPROUVETTE AE2 M=8 OPTION GAUSS
# ssna108a.para = tps_job 60 mem_job 512Mo ncpus 1 liste_test R
#            CONFIGURATION MANAGEMENT OF EDF VERSION
# ======================================================================
# COPYRIGHT (C) 1991 - 2013  EDF R&D                  WWW.CODE-ASTER.ORG
# THIS PROGRAM IS FREE SOFTWARE; YOU CAN REDISTRIBUTE IT AND/OR MODIFY
# IT UNDER THE TERMS OF THE GNU GENERAL PUBLIC LICENSE AS PUBLISHED BY
# THE FREE SOFTWARE FOUNDATION; EITHER VERSION 2 OF THE LICENSE, OR
# (AT YOUR OPTION) ANY LATER VERSION.
#
# THIS PROGRAM IS DISTRIBUTED IN THE HOPE THAT IT WILL BE USEFUL, BUT
# WITHOUT ANY WARRANTY; WITHOUT EVEN THE IMPLIED WARRANTY OF
# MERCHANTABILITY OR FITNESS FOR A PARTICULAR PURPOSE. SEE THE GNU
# GENERAL PUBLIC LICENSE FOR MORE DETAILS.
#
# YOU SHOULD HAVE RECEIVED A COPY OF THE GNU GENERAL PUBLIC LICENSE
# ALONG WITH THIS PROGRAM; IF NOT, WRITE TO EDF R&D CODE_ASTER,
#    1 AVENUE DU GENERAL DE GAULLE, 92141 CLAMART CEDEX, FRANCE.
# ======================================================================

DEBUT(CODE=_F(NOM='SSNA108A',NIV_PUB_WEB='INTERNET'),DEBUG=_F(SDVERI='OUI'))

#......................................................................


M=LIRE_MAILLAGE(FORMAT='MED', )

MO=AFFE_MODELE(   MAILLAGE=M,
            AFFE=_F( TOUT = 'OUI',PHENOMENE = 'MECANIQUE',MODELISATION = 'AXIS')
           )

COMP=DEFI_FONCTION(    NOM_PARA='EPSI',
                                         PROL_DROITE='LINEAIRE',
                                         PROL_GAUCHE='LINEAIRE',
                                        VALE=(0.002775,  555.,
                                              0.005000,  588.7,
                                              0.010000,  631.,
                                              0.0150,    657.,
                                              0.0200,    676.,
                                              0.0250,    691.,
                                              0.0300,    704.,
                                              0.0400,    725.,
                                              0.0500,    741.,
                                              0.0750,    772.,
                                              0.1000,    794.,
                                              0.1250,    812.,
                                              0.1500,    827.,
                                              0.2000,    851.,
                                              0.3000,    887.,
                                              0.4000,    912.,
                                              0.5000,    933.,
                                              0.6000,    950.,
                                              0.7000,    965.,
                                              0.8000,    978.,
                                              0.9000,    990.,
                                              ))

ACIER=DEFI_MATERIAU(
               ELAS=_F(  E = 200000.,  NU = 0.3,  ALPHA = 0.),
               TRACTION=_F(  SIGM = COMP),
               WEIBULL=_F( M = 8., VOLU_REFE = 1.E-3, SIGM_REFE = 2630.0E0)
             )

CM=AFFE_MATERIAU(   MAILLAGE=M,
                         AFFE=_F(  TOUT = 'OUI', MATER = ACIER)  )

ZERO=DEFI_FONCTION(        NOM_PARA='INST',
                             PROL_DROITE='EXCLU',
                            PROL_GAUCHE='EXCLU',
                            VALE=(   0.,  0.,
                                   100.,  0., )    )

TRAC=DEFI_FONCTION(        NOM_PARA='INST',
                             PROL_DROITE='EXCLU',
                            PROL_GAUCHE='EXCLU',
                            VALE=(   0.,  0.,
                                   100.,  1., )    )

CHARG=AFFE_CHAR_MECA_F(   MODELE=MO,DDL_IMPO=(
                    _F(  GROUP_NO = 'DEPLIMPO',  DY = TRAC),
                    _F(  GROUP_NO = 'SYMETRIE',  DX = ZERO),
                    _F(  GROUP_NO = 'LIGAMENT',  DY = ZERO))
                          )

L_INST=DEFI_LIST_REEL(    DEBUT=0.,
                            INTERVALLE=_F(  JUSQU_A = 100.,  NOMBRE = 100)
                        )

T=STAT_NON_LINE(
                            MODELE=MO,
                        CHAM_MATER=CM,
                             EXCIT=_F(
                CHARGE = CHARG),
                         COMP_INCR=_F(
                RELATION = 'VMIS_ISOT_TRAC'),
                         INCREMENT=_F(
                LIST_INST = L_INST,
                NUME_INST_FIN = 10),
                       CONVERGENCE=_F(
                RESI_GLOB_RELA = 1.0E-04,
                ITER_GLOB_MAXI = 25)
              )

U=EXTR_RESU(RESULTAT=T,ARCHIVAGE=_F(NUME_ORDRE=(1,2,3,4,5,6,7,8,9,10),))

U=CALC_CHAMP(reuse=U,
             RESULTAT=U,
             CONTRAINTE=('SIGM_ELNO'),
             VARI_INTERNE=('VARI_ELNO'),
             DEFORMATION=('EPSG_ELGA',))

#

TEST_RESU(RESU=(_F(NUME_ORDRE=10,
                   PARA='INST',
                   RESULTAT=U,
                   VALE_CALC=10.0,
                   TOLE_MACHINE=1.E-3,),
                _F(NUME_ORDRE=10,
                   PARA='ITER_GLOB',
                   VALE_CALC_I=8,
                   RESULTAT=U,
                   CRITERE='ABSOLU',
                   ),
                ),
          )


# WEIBULL AVEC OPTION SIGM_ELGA
WEIB=POST_ELEM(
                      RESULTAT=U,
                      NUME_ORDRE=(1,2,3,4,5,6,7,8,9,10),
                       WEIBULL=_F(  TOUT = 'OUI',
                                    OPTION = 'SIGM_ELGA',
                                    CORR_PLAST = 'NON')
                   )

# WEIBULL AVEC OPTION SIGM_ELMOY ET COOR_PLAST = NON
WEIB2=POST_ELEM(
                      RESULTAT=U,
                      NUME_ORDRE=(1,2,3,4,5,6,7,8,9,10),
                       WEIBULL=_F(  TOUT = 'OUI',
                                    OPTION = 'SIGM_ELMOY',
                                    CORR_PLAST = 'NON')
                   )

# WEIBULL AVEC OPTION SIGM_ELMOY ET COOR_PLAST = OUI
WEIB3=POST_ELEM(
                      RESULTAT=U,
                      NUME_ORDRE=(1,2,3,4,5,6,7,8,9,10),
                       WEIBULL=_F(  TOUT = 'OUI',
                                    OPTION = 'SIGM_ELMOY',
                                    CORR_PLAST = 'OUI')
                   )

# RICE ET TRACEY
RET=POST_ELEM(
                      RESULTAT=U,
                      NUME_ORDRE=(1,2,3,4,5,6,7,8,9,10),
                       RICE_TRACEY=_F(  TOUT = 'OUI',
                                        OPTION = 'SIGM_ELMOY',
                                        LOCAL = 'OUI')
                   )


# TESTS WEIBULL

TEST_TABLE(VALE_CALC=1407.895313,
           TOLE_MACHINE=1.E-3,
           NOM_PARA='SIGMA_WEIBULL',
           TABLE=WEIB,
           FILTRE=(_F(NOM_PARA='NUME_ORDRE',
                      VALE_I=2,),
                   _F(NOM_PARA='LIEU',
                      VALE_K='M',),
                   ),
           )

TEST_TABLE(VALE_CALC=2497.2700690000001,
           TOLE_MACHINE=1.E-3,
           NOM_PARA='SIGMA_WEIBULL',
           TABLE=WEIB,
           FILTRE=(_F(NOM_PARA='NUME_ORDRE',
                      VALE_I=4,),
                   _F(NOM_PARA='LIEU',
                      VALE_K='M',),
                   ),
           )

TEST_TABLE(VALE_CALC=3333.235482,
           TOLE_MACHINE=1.E-3,
           NOM_PARA='SIGMA_WEIBULL',
           TABLE=WEIB,
           FILTRE=(_F(NOM_PARA='NUME_ORDRE',
                      VALE_I=6,),
                   _F(NOM_PARA='LIEU',
                      VALE_K='M',),
                   ),
           )

TEST_TABLE(VALE_CALC=3753.6938460000001,
           TOLE_MACHINE=1.E-3,
           NOM_PARA='SIGMA_WEIBULL',
           TABLE=WEIB,
           FILTRE=(_F(NOM_PARA='NUME_ORDRE',
                      VALE_I=8,),
                   _F(NOM_PARA='LIEU',
                      VALE_K='M',),
                   ),
           )

TEST_TABLE(VALE_CALC=4047.6550569999999,
           TOLE_MACHINE=1.E-3,
           NOM_PARA='SIGMA_WEIBULL',
           TABLE=WEIB,
           FILTRE=(_F(NOM_PARA='NUME_ORDRE',
                      VALE_I=10,),
                   _F(NOM_PARA='LIEU',
                      VALE_K='M',),
                   ),
           )


TEST_TABLE(VALE_CALC=1406.307054201,
           TOLE_MACHINE=1.E-3,
           NOM_PARA='SIGMA_WEIBULL',
           TABLE=WEIB2,
           FILTRE=(_F(NOM_PARA='NUME_ORDRE',
                      VALE_I=2,),
                   _F(NOM_PARA='LIEU',
                      VALE_K='M',),
                   ),
           )

TEST_TABLE(VALE_CALC=2488.7671171928,
           TOLE_MACHINE=1.E-3,
           NOM_PARA='SIGMA_WEIBULL',
           TABLE=WEIB2,
           FILTRE=(_F(NOM_PARA='NUME_ORDRE',
                      VALE_I=4,),
                   _F(NOM_PARA='LIEU',
                      VALE_K='M',),
                   ),
           )

TEST_TABLE(VALE_CALC=3325.5503711247,
           TOLE_MACHINE=1.E-3,
           NOM_PARA='SIGMA_WEIBULL',
           TABLE=WEIB2,
           FILTRE=(_F(NOM_PARA='NUME_ORDRE',
                      VALE_I=6,),
                   _F(NOM_PARA='LIEU',
                      VALE_K='M',),
                   ),
           )

TEST_TABLE(VALE_CALC=3744.3088132144,
           TOLE_MACHINE=1.E-3,
           NOM_PARA='SIGMA_WEIBULL',
           TABLE=WEIB2,
           FILTRE=(_F(NOM_PARA='NUME_ORDRE',
                      VALE_I=8,),
                   _F(NOM_PARA='LIEU',
                      VALE_K='M',),
                   ),
           )

TEST_TABLE(VALE_CALC=4035.8940259689,
           TOLE_MACHINE=1.E-3,
           NOM_PARA='SIGMA_WEIBULL',
           TABLE=WEIB2,
           FILTRE=(_F(NOM_PARA='NUME_ORDRE',
                      VALE_I=10,),
                   _F(NOM_PARA='LIEU',
                      VALE_K='M',),
                   ),
           )


TEST_TABLE(VALE_CALC=1404.061994738,
           TOLE_MACHINE=1.E-3,
           NOM_PARA='SIGMA_WEIBULL',
           TABLE=WEIB3,
           FILTRE=(_F(NOM_PARA='NUME_ORDRE',
                      VALE_I=2,),
                   _F(NOM_PARA='LIEU',
                      VALE_K='M',),
                   ),
           )

TEST_TABLE(VALE_CALC=2482.4246018405,
           TOLE_MACHINE=1.E-3,
           NOM_PARA='SIGMA_WEIBULL',
           TABLE=WEIB3,
           FILTRE=(_F(NOM_PARA='NUME_ORDRE',
                      VALE_I=4,),
                   _F(NOM_PARA='LIEU',
                      VALE_K='M',),
                   ),
           )

TEST_TABLE(VALE_CALC=3313.5233545773,
           TOLE_MACHINE=1.E-3,
           NOM_PARA='SIGMA_WEIBULL',
           TABLE=WEIB3,
           FILTRE=(_F(NOM_PARA='NUME_ORDRE',
                      VALE_I=6,),
                   _F(NOM_PARA='LIEU',
                      VALE_K='M',),
                   ),
           )

TEST_TABLE(VALE_CALC=3723.1508660462,
           TOLE_MACHINE=1.E-3,
           NOM_PARA='SIGMA_WEIBULL',
           TABLE=WEIB3,
           FILTRE=(_F(NOM_PARA='NUME_ORDRE',
                      VALE_I=8,),
                   _F(NOM_PARA='LIEU',
                      VALE_K='M',),
                   ),
           )

TEST_TABLE(VALE_CALC=4003.8339538114,
           TOLE_MACHINE=1.E-3,
           NOM_PARA='SIGMA_WEIBULL',
           TABLE=WEIB3,
           FILTRE=(_F(NOM_PARA='NUME_ORDRE',
                      VALE_I=10,),
                   _F(NOM_PARA='LIEU',
                      VALE_K='M',),
                   ),
           )


# TESTS RICE ET TRACEY

TEST_TABLE(VALE_CALC=1.0,
           TOLE_MACHINE=1.E-3,
           NOM_PARA='TX_CROIS_CAVITES',
           TABLE=RET,
           FILTRE=(_F(NOM_PARA='NUME_ORDRE',
                      VALE_I=1,),
                   _F(NOM_PARA='LIEU',
                      VALE_K='MA101',),
                   ),
           )

TEST_TABLE(VALE_CALC=3.75,
           TOLE_MACHINE=1.E-3,
           NOM_PARA='VOLUME_CONCERNE',
           TABLE=RET,
           FILTRE=(_F(NOM_PARA='NUME_ORDRE',
                      VALE_I=1,),
                   _F(NOM_PARA='LIEU',
                      VALE_K='MA101',),
                   ),
           )

TEST_TABLE(VALE_CALC=1.0014000000000001,
           TOLE_MACHINE=1.E-3,
           NOM_PARA='TX_CROIS_CAVITES',
           TABLE=RET,
           FILTRE=(_F(NOM_PARA='NUME_ORDRE',
                      VALE_I=3,),
                   _F(NOM_PARA='LIEU',
                      VALE_K='MA281',),
                   ),
           )

TEST_TABLE(VALE_CALC=0.62372000000000005,
           TOLE_MACHINE=1.E-3,
           NOM_PARA='VOLUME_CONCERNE',
           TABLE=RET,
           FILTRE=(_F(NOM_PARA='NUME_ORDRE',
                      VALE_I=3,),
                   _F(NOM_PARA='LIEU',
                      VALE_K='MA281',),
                   ),
           )

TEST_TABLE(VALE_CALC=1.0076000000000001,
           TOLE_MACHINE=1.E-3,
           NOM_PARA='TX_CROIS_CAVITES',
           TABLE=RET,
           FILTRE=(_F(NOM_PARA='NUME_ORDRE',
                      VALE_I=5,),
                   _F(NOM_PARA='LIEU',
                      VALE_K='MA281',),
                   ),
           )

TEST_TABLE(VALE_CALC=1.0169999999999999,
           TOLE_MACHINE=1.E-3,
           NOM_PARA='TX_CROIS_CAVITES',
           TABLE=RET,
           FILTRE=(_F(NOM_PARA='NUME_ORDRE',
                      VALE_I=7,),
                   _F(NOM_PARA='LIEU',
                      VALE_K='MA281',),
                   ),
           )

TEST_TABLE(VALE_CALC=1.0315000000000001,
           TOLE_MACHINE=1.E-3,
           NOM_PARA='TX_CROIS_CAVITES',
           TABLE=RET,
           FILTRE=(_F(NOM_PARA='NUME_ORDRE',
                      VALE_I=10,),
                   _F(NOM_PARA='LIEU',
                      VALE_K='MA281',),
                   ),
           )

#####################################################
#Pour validation de POST_BORDET

SIGY=DEFI_FONCTION(NOM_PARA='TEMP',VALE=(0.,555.,
                         100.,555.,
                         ),PROL_DROITE='CONSTANT',PROL_GAUCHE='CONSTANT',)

SIGU=DEFI_FONCTION(NOM_PARA='TEMP',VALE=(0.,2630.,
                         100.,2630.,
                         ),PROL_DROITE='CONSTANT',PROL_GAUCHE='CONSTANT',)


#Calcul de bordet
BORDET=POST_BORDET(
            TOUT='OUI',
            INST=9.9999,
            CRITERE='ABSOLU',
            PRECISION=0.0001,
            PROBA_NUCL='NON',
            PARAM=_F(M=8.,
                     SIG_CRIT=600,
                     SEUIL_REFE=555.,
                     VOLU_REFE=1.E-3,
                     SIGM_REFE=SIGU,
                     SEUIL_CALC=SIGY,
                     ),
            RESULTAT=U,
            TEMP=20,
             )




TEST_TABLE(VALE_CALC=0.0,
           TOLE_MACHINE=1.E-3,
           NOM_PARA='SIG_BORDET',
           TABLE=BORDET,
           FILTRE=_F(NOM_PARA='INST',
                     VALE=2.0,),
           )

TEST_TABLE(VALE_CALC=721.79999999999995,
           TOLE_MACHINE=1.E-3,
           NOM_PARA='SIG_BORDET',
           TABLE=BORDET,
           FILTRE=_F(NOM_PARA='INST',
                     VALE=4.0,),
           )

TEST_TABLE(VALE_CALC=1302.4000000000001,
           TOLE_MACHINE=1.E-3,
           NOM_PARA='SIG_BORDET',
           TABLE=BORDET,
           FILTRE=_F(NOM_PARA='INST',
                     VALE=6.0,),
           )

TEST_TABLE(VALE_CALC=1730.5,
           TOLE_MACHINE=1.E-3,
           NOM_PARA='SIG_BORDET',
           TABLE=BORDET,
           FILTRE=_F(NOM_PARA='INST',
                     VALE=8.0,),
           )

TEST_TABLE(VALE_CALC=2022.5,
           TOLE_MACHINE=1.E-3,
           NOM_PARA='SIG_BORDET',
           TABLE=BORDET,
           FILTRE=_F(NOM_PARA='INST',
                     VALE=10.0,),
           )

FIN( )
#
