# MODIF  DATE 28/01/2008   AUTEUR PELLET J.PELLET 
# RESPONSABLE F6BHHBO P.DEBONNIERES
# TITRE CYLINDRE INFINI SOUS PRESSION (VISCOELASTICITE CYRANO3)
#            CONFIGURATION MANAGEMENT OF EDF VERSION
# ======================================================================
# COPYRIGHT (C) 1991 - 2001  EDF R&D                  WWW.CODE-ASTER.ORG
# THIS PROGRAM IS FREE SOFTWARE; YOU CAN REDISTRIBUTE IT AND/OR MODIFY
# IT UNDER THE TERMS OF THE GNU GENERAL PUBLIC LICENSE AS PUBLISHED BY
# THE FREE SOFTWARE FOUNDATION; EITHER VERSION 2 OF THE LICENSE, OR
# (AT YOUR OPTION) ANY LATER VERSION.
#
# THIS PROGRAM IS DISTRIBUTED IN THE HOPE THAT IT WILL BE USEFUL, BUT
# WITHOUT ANY WARRANTY; WITHOUT EVEN THE IMPLIED WARRANTY OF
# MERCHANTABILITY OR FITNESS FOR A PARTICULAR PURPOSE. SEE THE GNU
# GENERAL PUBLIC LICENSE FOR MORE DETAILS.
#
# YOU SHOULD HAVE RECEIVED A COPY OF THE GNU GENERAL PUBLIC LICENSE
# ALONG WITH THIS PROGRAM; IF NOT, WRITE TO EDF R&D CODE_ASTER,
#    1 AVENUE DU GENERAL DE GAULLE, 92141 CLAMART CEDEX, FRANCE.
# ======================================================================

DEBUT(CODE=_F(NOM='SSNA01A',NIV_PUB_WEB='INTERNET'),DEBUG=_F(SDVERI='OUI'),
          BASE=_F( FICHIER = 'GLOBALE',LONG_REPE = 15000)  )

#......................................................................
# CYLINDRE INFINI SOUS PRESSION CALCUL 2D AXI
# LOI DE LEMAITRE
#......................................................................
#

M=LIRE_MAILLAGE( )

MO=AFFE_MODELE(
            MAILLAGE=M,    VERIF='MAILLE',
           AFFE=_F( TOUT = 'OUI',PHENOMENE = 'MECANIQUE',MODELISATION = 'AXIS')
           )

ACIER=DEFI_MATERIAU(
                ELAS=_F( E = 210000., NU = 0.3, ALPHA = 0.,  RHO = 1.),
            LEMAITRE=_F( N = 11.,UN_SUR_K = 0.00032840723,UN_SUR_M = 0.178571429)
           )

CM=AFFE_MATERIAU(
            MAILLAGE=M,
           AFFE=_F( TOUT = 'OUI',MATER = ACIER) )

P100=DEFI_FONCTION(
           NOM_PARA='INST',PROL_DROITE='CONSTANT',PROL_GAUCHE='LINEAIRE',
           VALE=(0.0, 0.0, 60.0, 100.0,)
           )

CH1=AFFE_CHAR_MECA(
            MODELE=MO,
           DDL_IMPO=_F( GROUP_NO = 'NOEHGFE', DY = 0.),LIAISON_DDL=(
           _F( NOEUD = ('N1', 'N2',  ), DDL = ('DY','DY',),
                        COEF_MULT = (1.,-1.,),COEF_IMPO = 0.),
           _F( NOEUD = ('N1', 'N9',  ), DDL = ('DY','DY',),
                        COEF_MULT = (1.,-1.,),COEF_IMPO = 0.),
           _F( NOEUD = ('N1', 'N10', ), DDL = ('DY','DY',),
                        COEF_MULT = (1.,-1.,),COEF_IMPO = 0.),
           _F( NOEUD = ('N1', 'N17', ), DDL = ('DY','DY',),
                        COEF_MULT = (1.,-1.,),COEF_IMPO = 0.),
           _F( NOEUD = ('N1', 'N18', ), DDL = ('DY','DY',),
                        COEF_MULT = (1.,-1.,),COEF_IMPO = 0.),
           _F( NOEUD = ('N1', 'N25', ), DDL = ('DY','DY',),
                        COEF_MULT = (1.,-1.,),COEF_IMPO = 0.),
           _F( NOEUD = ('N1', 'N26', ), DDL = ('DY','DY',),
                        COEF_MULT = (1.,-1.,),COEF_IMPO = 0.),
           _F( NOEUD = ('N1', 'N33', ), DDL = ('DY','DY',),
                        COEF_MULT = (1.,-1.,),COEF_IMPO = 0.),
           _F( NOEUD = ('N1', 'N34', ), DDL = ('DY','DY',),
                        COEF_MULT = (1.,-1.,),COEF_IMPO = 0.),
           _F( NOEUD = ('N1', 'N41', ), DDL = ('DY','DY',),
                        COEF_MULT = (1.,-1.,),COEF_IMPO = 0.),
           _F( NOEUD = ('N1', 'N42', ), DDL = ('DY','DY',),
                        COEF_MULT = (1.,-1.,),COEF_IMPO = 0.),
           _F( NOEUD = ('N1', 'N49', ), DDL = ('DY','DY',),
                        COEF_MULT = (1.,-1.,),COEF_IMPO = 0.),
           _F( NOEUD = ('N1', 'N50', ), DDL = ('DY','DY',),
                        COEF_MULT = (1.,-1.,),COEF_IMPO = 0.),
           _F( NOEUD = ('N1', 'N57', ), DDL = ('DY','DY',),
                        COEF_MULT = (1.,-1.,),COEF_IMPO = 0.),
           _F( NOEUD = ('N1', 'N58', ), DDL = ('DY','DY',),
                        COEF_MULT = (1.,-1.,),COEF_IMPO = 0.),
           _F( NOEUD = ('N1', 'N65', ), DDL = ('DY','DY',),
                        COEF_MULT = (1.,-1.,),COEF_IMPO = 0.),
           _F( NOEUD = ('N1', 'N66', ), DDL = ('DY','DY',),
                        COEF_MULT = (1.,-1.,),COEF_IMPO = 0.),
           _F( NOEUD = ('N1', 'N73', ), DDL = ('DY','DY',),
                        COEF_MULT = (1.,-1.,),COEF_IMPO = 0.),
           _F( NOEUD = ('N1', 'N74', ), DDL = ('DY','DY',),
                        COEF_MULT = (1.,-1.,),COEF_IMPO = 0.),
           _F( NOEUD = ('N1', 'N81', ), DDL = ('DY','DY',),
                        COEF_MULT = (1.,-1.,),COEF_IMPO = 0.),
# ... 147 like lines cut
                        COEF_MULT = (1.,-1.,),COEF_IMPO = 0.))
           )

CH2=AFFE_CHAR_MECA_F(
            MODELE=MO,
#          FORCE_NODALE:(NOEUD:(N372 N373 N377 N378 N381) FX:P20)
           PRES_REP=_F( GROUP_MA = 'AH',PRES = P100)
                          )

L_INST=DEFI_LIST_REEL(  DEBUT=0.0,
             INTERVALLE=_F( JUSQU_A = 60.0,       NOMBRE = 15)
           )

L_ARCH=DEFI_LIST_REEL(  DEBUT=40.0,
             INTERVALLE=_F( JUSQU_A = 60.0,       NOMBRE = 1)
           )

U=STAT_NON_LINE(
                            MODELE=MO,
                        CHAM_MATER=CM,EXCIT=(
                             _F(
                CHARGE = CH1), _F(
                CHARGE = CH2)),
                         COMP_INCR=_F( PARM_THETA = 0.5,
                RELATION = 'LEMAITRE',
                ITER_INTE_MAXI = 1000),
                         INCREMENT=_F(
                LIST_INST = L_INST,
                NUME_INST_FIN = 5),
                            NEWTON=_F(
                MATRICE = 'TANGENTE',
                REAC_ITER = 1),
                       CONVERGENCE=_F(
                RESI_GLOB_MAXI = 1.E-6,
                ITER_GLOB_MAXI = 25),
                         ARCHIVAGE=_F(
                INST = 20.),
                           SOLVEUR=_F(
                METHODE = 'LDLT',
                RENUM = 'RCMK')
              )

U=STAT_NON_LINE( reuse=U,
                            MODELE=MO,
                        CHAM_MATER=CM,EXCIT=(
                             _F(
                CHARGE = CH1), _F(
                CHARGE = CH2)),
                         ETAT_INIT=_F(
                EVOL_NOLI = U,
                INST = 20.),
                         COMP_INCR=_F( PARM_THETA = 0.5,
                RELATION = 'LEMAITRE',
                ITER_INTE_MAXI = 1000),
                         INCREMENT=_F(
                LIST_INST = L_INST),
                            NEWTON=_F(
                MATRICE = 'TANGENTE',
                REAC_ITER = 1),
                       CONVERGENCE=_F(
                RESI_GLOB_MAXI = 1.E-6,
                ITER_GLOB_MAXI = 25),
                         ARCHIVAGE=_F(
                LIST_INST = L_ARCH),
                           SOLVEUR=_F(
                METHODE = 'LDLT',
                RENUM = 'RCMK')
              )

U=CALC_ELEM( reuse=U,
                            OPTION=(
                  'SIEF_ELNO_ELGA',  'VARI_ELNO_ELGA',),
                          RESULTAT=U,
              )

#

TEST_RESU(RESU=(
           _F(  RESULTAT = U,              INST = 60.,
             PARA = 'INST',             VALE = 6.00000E+01),
           _F(  RESULTAT = U,              INST = 60.,
             CRITERE = 'ABSOLU',         PRECISION = 5.,
             PARA = 'ITER_GLOB',        VALE_I = 0),
           _F(  RESULTAT = U,              INST = 60.,
             CRITERE = 'ABSOLU',        PRECISION = 1.E-7,
             PARA = 'RESI_GLOB_RELA',   VALE = 0.),
           _F(  RESULTAT = U,              INST = 60.,
             CRITERE = 'ABSOLU',        PRECISION = 1.E-7,
             PARA = 'RESI_GLOB',        VALE = 0.),
           _F(  RESULTAT = U,              INST = 60.,
             CRITERE = 'ABSOLU',         PRECISION = 2.,
             PARA = 'ITER_LINE',        VALE_I = 0))
           )

U=CALC_ELEM(reuse=U,         RESULTAT=U,
                OPTION='EPSI_ELNO_DEPL')

U=CALC_ELEM(reuse=U,         RESULTAT=U,
                OPTION='EPSP_ELNO')

TEST_RESU(RESU=(
   _F(  RESULTAT = U,    NOM_CHAM = 'EPSP_ELNO',
     MAILLE = 'M1',   NOEUD = 'N376',
     INST = 60.,   NOM_CMP = 'EPXX',
     VALE = -1.08E-04,     PRECISION = 0.005),
   _F(  RESULTAT = U,    NOM_CHAM = 'EPSP_ELNO',
     MAILLE = 'M1',   NOEUD = 'N376',
     INST = 60.,   NOM_CMP = 'EPYY',
     VALE = -1.84E-05,     PRECISION = 0.005))
         )

MASSES=POST_ELEM(        MODELE=MO,
                         CHAM_MATER=CM,
                          MASS_INER=_F(  TOUT = 'OUI')
                     )

TEST_TABLE(  TABLE=MASSES,
                 NOM_PARA='MASSE',
                  FILTRE=_F(  NOM_PARA = 'LIEU', VALE_K = 'M'),
                  VALE=3.76991E+03
#                      PI*1200
              )

TEST_TABLE(  TABLE=MASSES,
                 NOM_PARA='IX_G',
                  FILTRE=_F(  NOM_PARA = 'LIEU', VALE_K = 'M'),
                  VALE=1.88527E+06
#                      PI*600100
              )

TEST_TABLE(  TABLE=MASSES,
                 NOM_PARA='IY_G',
                  FILTRE=_F(  NOM_PARA = 'LIEU', VALE_K = 'M'),
                  VALE=1.88527E+06
#                      PI*600100
              )

TEST_TABLE(  TABLE=MASSES,
                 NOM_PARA='IZ_G',
                  FILTRE=_F(  NOM_PARA = 'LIEU', VALE_K = 'M'),
                  VALE=3.76991E+06
#                      PI*1200000
              )

FIN( )
#
