# TITRE : ESSAI TRIAXIAL DRAINE AVEC LE MODELE DE HOEK_BROWN
# ======================================================================
# COPYRIGHT (C) 1991 - 2012  EDF R&D                  WWW.CODE-ASTER.ORG
# THIS PROGRAM IS FREE SOFTWARE; YOU CAN REDISTRIBUTE IT AND/OR MODIFY
# IT UNDER THE TERMS OF THE GNU GENERAL PUBLIC LICENSE AS PUBLISHED BY
# THE FREE SOFTWARE FOUNDATION; EITHER VERSION 2 OF THE LICENSE, OR
# (AT YOUR OPTION) ANY LATER VERSION.
#
# THIS PROGRAM IS DISTRIBUTED IN THE HOPE THAT IT WILL BE USEFUL, BUT
# WITHOUT ANY WARRANTY; WITHOUT EVEN THE IMPLIED WARRANTY OF
# MERCHANTABILITY OR FITNESS FOR A PARTICULAR PURPOSE. SEE THE GNU
# GENERAL PUBLIC LICENSE FOR MORE DETAILS.
#
# YOU SHOULD HAVE RECEIVED A COPY OF THE GNU GENERAL PUBLIC LICENSE
# ALONG WITH THIS PROGRAM; IF NOT, WRITE TO EDF R&D CODE_ASTER,
#    1 AVENUE DU GENERAL DE GAULLE, 92141 CLAMART CEDEX, FRANCE.
# ======================================================================
#      CAS PARTICULIER D UNE DEFORMATION VOLUMIQUE PLASTIQUE CONSTANTE
# ======================================================================
#   HOEK-BROWN MODIFIE POUR UN OCNFINEMENT DE 5 MPA
# ======================================================================
CONFINEMENT=5.0;
DEBUT(CODE=_F(NIV_PUB_WEB='INTERNET', VISU_EFICAS='OUI'), DEBUG=_F(SDVERI='OUI'))

#***********************************************************************
#    MAILLAGE + MODELE
#***********************************************************************

MAILLAGE=LIRE_MAILLAGE( )

MODELE=AFFE_MODELE(     MAILLAGE=MAILLAGE,
                             AFFE=_F(  TOUT = 'OUI',
                                    PHENOMENE = 'MECANIQUE',
                                    MODELISATION = 'AXIS')
                           )

#***********************************************************************
#    LISTE DES INSTANTS DE CALCUL
#***********************************************************************

TEMPS1=DEFI_LIST_REEL(   DEBUT=0.,
                           INTERVALLE=_F(  JUSQU_A = 2.0,   NOMBRE = 1)
                         )

#***********************************************************************
#    CARACTERISTIQUES DU MATERIAU
#***********************************************************************

SOL=DEFI_MATERIAU(    ELAS=_F(  E  = 4500.0,
                                NU = 0.3  ,
                                ALPHA = 0.0
                                ),
                                HOEK_BROWN =
                                _F(GAMMA_RUP            =0.005,
                                   GAMMA_RES            =0.017,
                                     S_END              =225.0,
                                     S_RUP              =482.5675,
                                     M_END              =13.5,
                                     M_RUP              =83.75,
                                     BETA              =3.0,
                                     ALPHAHB           =3.3,
                                     PHI_RUP           =15.0,
                                     PHI_RES           =15.0,
                                     PHI_END           =15.0)

                                     )

CHMAT=AFFE_MATERIAU(    MAILLAGE=MAILLAGE,
                             AFFE=_F(  TOUT = 'OUI',  MATER = SOL)
                          )

#***********************************************************************
#    CHARGEMENT MECANIQUE : FORCE DE COMPRESSION + DDL IMPOSES
#***********************************************************************

CHAR_U1=AFFE_CHAR_MECA(    MODELE=MODELE,
                              PRES_REP=_F(   MAILLE = 'M4',
                                          PRES = 1.)
                       )

CHAR_U2=AFFE_CHAR_MECA(    MODELE=MODELE,
                             PRES_REP=_F(   MAILLE = 'M3',
                                         PRES = 1.)
                        )

DEPL_1=AFFE_CHAR_MECA(    MODELE=MODELE,
                              FACE_IMPO=_F(  MAILLE = 'M2',
                                          DY = 0.)
                            )

COEF1=DEFI_FONCTION(      NOM_PARA='INST',
                           PROL_DROITE='CONSTANT',
                         VALE=( 0.0,  0.0,
                                2.0,  CONFINEMENT,)
                       )

#***********************************************************************
#    CALCUL DE LA SOLUTION DEFINISSANT L ETAT INITIAL
#***********************************************************************

U1=STAT_NON_LINE(
                            MODELE=MODELE,
                        CHAM_MATER=CHMAT,EXCIT=(
                             _F(
                CHARGE = CHAR_U1,
                FONC_MULT = COEF1), _F(
                CHARGE = CHAR_U2,
                FONC_MULT = COEF1), _F(
                CHARGE = DEPL_1)),
                         COMPORTEMENT=_F(
                RELATION = 'HOEK_BROWN',
                RESI_INTE_RELA = 1.E-6,
                ITER_INTE_MAXI = 100),
                            NEWTON=_F(
                MATRICE = 'TANGENTE'),
                       CONVERGENCE=_F(
                RESI_GLOB_RELA = 1.E-6,
                ITER_GLOB_MAXI = 50,),
                         INCREMENT=_F(
                LIST_INST = TEMPS1)
              )

U1=CALC_CHAMP(reuse=U1,CONTRAINTE=('SIGM_ELNO'),VARI_INTERNE=('VARI_ELNO'),RESULTAT=U1)


#***********************************************************************
#    LISTE DES INSTANTS DE CALCUL
#***********************************************************************

TEMPS2=DEFI_LIST_REEL(   DEBUT=2.,
                            INTERVALLE=(_F(  JUSQU_A = 15.0,   NOMBRE = 520 )
                    ))

#***********************************************************************
#    NOUVEAU CHARGEMENT MECANIQUE : DEPLACEMENT UNIAXIALE UNITAIRE
#***********************************************************************

DEPL_2=AFFE_CHAR_MECA(    MODELE=MODELE,
                              FACE_IMPO=_F(  MAILLE = 'M4',
                                          DY = 1.)
                           )

COEF2=DEFI_FONCTION(      NOM_PARA='INST',
                          PROL_DROITE='LINEAIRE',
                          PROL_GAUCHE='CONSTANT',
                         VALE=( 2.0,  0.0,
                                6.0,  -0.04, )
                       )


#***********************************************************************
#    EXTRACTION DES CONTRAINTES ET VARIABLES INTERNES DEFINISSANT
#    L ETAT INITIAL
#***********************************************************************

SIG_INI=CREA_CHAMP(  OPERATION='EXTR', TYPE_CHAM='ELGA_SIEF_R',
                     NOM_CHAM='SIEF_ELGA', RESULTAT=U1,
                     INST=2.
                      )

VAR_INI=CREA_CHAMP(  OPERATION='EXTR', TYPE_CHAM='ELGA_VARI_R',
                     NOM_CHAM='VARI_ELGA', RESULTAT=U1,
                     INST=2.
                      )


#***********************************************************************
#    CALCUL DE LA SOLUTION : SIMULATION DE L ESSAI TRIAXIAL
#***********************************************************************
U2=STAT_NON_LINE(
                            MODELE=MODELE,
                        CHAM_MATER=CHMAT,EXCIT=(
                             _F(
                CHARGE = CHAR_U2,
                FONC_MULT = COEF1), _F(
                CHARGE = DEPL_1), _F(
                CHARGE = DEPL_2,
                FONC_MULT = COEF2)
                ),
                         COMPORTEMENT=_F(
                RESI_INTE_RELA = 1.E-8,
                ITER_INTE_MAXI = 100,
                ITER_INTE_PAS  = -10,
                RELATION = 'HOEK_BROWN'),
                         ETAT_INIT=_F(
                SIGM = SIG_INI,
                VARI = VAR_INI),
                         INCREMENT=_F(
                LIST_INST = TEMPS2,
                INST_FIN=4.5),
                            NEWTON=_F(
                MATRICE = 'TANGENTE',
                REAC_ITER = 1,
                ),
                       CONVERGENCE=_F(
                RESI_GLOB_RELA = 1.E-8,
                ITER_GLOB_MAXI = 100),
              )



U2=CALC_CHAMP(reuse=U2,CONTRAINTE=('SIGM_ELNO'),RESULTAT=U2)


U2=CALC_CHAMP(  reuse      = U2,
             RESULTAT   = U2,
             TOUT_ORDRE = 'OUI',
             CONTRAINTE='SIGM_NOEU',
               )

#---------------------------------------
#    TEST_RESU AU POINT D (NOEUD N4)
#---------------------------------------


TEST_RESU(RESU=(_F(NUME_ORDRE=12,
                   REFERENCE='ANALYTIQUE',
                   RESULTAT=U2,
                   NOM_CHAM='SIGM_NOEU',
                   NOEUD='N4',
                   NOM_CMP='SIXX',
                   VALE_CALC=-5.000000000,
                   VALE_REFE=-5.0,
                   PRECISION=1.E-3,
                   ),
                _F(NUME_ORDRE=70,
                   REFERENCE='ANALYTIQUE',
                   RESULTAT=U2,
                   NOM_CHAM='SIGM_NOEU',
                   NOEUD='N4',
                   NOM_CMP='SIXX',
                   VALE_CALC=-5.000000000,
                   VALE_REFE=-5.0,
                   PRECISION=1.E-3,
                   ),
                _F(NUME_ORDRE=12,
                   REFERENCE='ANALYTIQUE',
                   RESULTAT=U2,
                   NOM_CHAM='SIGM_NOEU',
                   NOEUD='N4',
                   NOM_CMP='SIZZ',
                   VALE_CALC=-5.000000000,
                   VALE_REFE=-5.0,
                   PRECISION=1.E-3,
                   ),
                _F(NUME_ORDRE=70,
                   REFERENCE='ANALYTIQUE',
                   RESULTAT=U2,
                   NOM_CHAM='SIGM_NOEU',
                   NOEUD='N4',
                   NOM_CMP='SIZZ',
                   VALE_CALC=-5.000000000,
                   VALE_REFE=-5.0,
                   PRECISION=1.E-3,
                   ),
                _F(NUME_ORDRE=12,
                   REFERENCE='ANALYTIQUE',
                   RESULTAT=U2,
                   NOM_CHAM='SIGM_NOEU',
                   NOEUD='N4',
                   NOM_CMP='SIYY',
                   VALE_CALC=-18.500000000,
                   VALE_REFE=-18.5,
                   PRECISION=1.E-3,
                   ),
                _F(NUME_ORDRE=16,
                   REFERENCE='ANALYTIQUE',
                   RESULTAT=U2,
                   NOM_CHAM='SIGM_NOEU',
                   NOEUD='N4',
                   NOM_CMP='SIYY',
                   VALE_CALC=-22.567577837,
                   VALE_REFE=-22.567577799999999,
                   PRECISION=1.E-3,
                   ),
                _F(NUME_ORDRE=32,
                   REFERENCE='ANALYTIQUE',
                   RESULTAT=U2,
                   NOM_CHAM='SIGM_NOEU',
                   NOEUD='N4',
                   NOM_CMP='SIYY',
                   VALE_CALC=-30.879752565,
                   VALE_REFE=-30.8797526,
                   PRECISION=1.E-3,
                   ),
                _F(NUME_ORDRE=41,
                   REFERENCE='ANALYTIQUE',
                   RESULTAT=U2,
                   NOM_CHAM='SIGM_NOEU',
                   NOEUD='N4',
                   NOM_CMP='SIYY',
                   VALE_CALC=-34.934228073,
                   VALE_REFE=-34.934228099999999,
                   PRECISION=1.E-3,
                   ),
                _F(NUME_ORDRE=42,
                   REFERENCE='ANALYTIQUE',
                   RESULTAT=U2,
                   NOM_CHAM='SIGM_NOEU',
                   NOEUD='N4',
                   NOM_CMP='SIYY',
                   VALE_CALC=-32.913672202,
                   VALE_REFE=-32.913672200000001,
                   PRECISION=1.E-3,
                   ),
                _F(NUME_ORDRE=46,
                   REFERENCE='ANALYTIQUE',
                   RESULTAT=U2,
                   NOM_CHAM='SIGM_NOEU',
                   NOEUD='N4',
                   NOM_CMP='SIYY',
                   VALE_CALC=-26.821515638,
                   VALE_REFE=-26.821515600000001,
                   PRECISION=1.E-3,
                   ),
                _F(NUME_ORDRE=52,
                   REFERENCE='ANALYTIQUE',
                   RESULTAT=U2,
                   NOM_CHAM='SIGM_NOEU',
                   NOEUD='N4',
                   NOM_CMP='SIYY',
                   VALE_CALC=-22.756022373,
                   VALE_REFE=-22.756022399999999,
                   PRECISION=1.E-3,
                   ),
                _F(NUME_ORDRE=70,
                   REFERENCE='ANALYTIQUE',
                   RESULTAT=U2,
                   NOM_CHAM='SIGM_NOEU',
                   NOEUD='N4',
                   NOM_CMP='SIYY',
                   VALE_CALC=-20.721511972,
                   VALE_REFE=-20.721512000000001,
                   PRECISION=1.E-3,
                   ),
                ),
          )

TEST_RESU(RESU=(_F(NUME_ORDRE=12,
                   REFERENCE='ANALYTIQUE',
                   RESULTAT=U2,
                   NOM_CHAM='DEPL',
                   NOEUD='N4',
                   NOM_CMP='DX',
                   VALE_CALC= 9.00000000E-04,
                   VALE_REFE=8.9999999999999998E-4,
                   PRECISION=1.E-3,
                   ),
                _F(NUME_ORDRE=16,
                   REFERENCE='ANALYTIQUE',
                   RESULTAT=U2,
                   NOM_CHAM='DEPL',
                   NOEUD='N4',
                   NOM_CMP='DX',
                   VALE_CALC= 1.24643795E-03,
                   VALE_REFE=1.2464399999999999E-3,
                   PRECISION=1.E-3,
                   ),
                _F(NUME_ORDRE=32,
                   REFERENCE='ANALYTIQUE',
                   RESULTAT=U2,
                   NOM_CHAM='DEPL',
                   NOEUD='N4',
                   NOM_CMP='DX',
                   VALE_CALC= 3.48681659E-03,
                   VALE_REFE=3.4868199999999999E-3,
                   PRECISION=1.E-3,
                   ),
                _F(NUME_ORDRE=41,
                   REFERENCE='ANALYTIQUE',
                   RESULTAT=U2,
                   NOM_CHAM='DEPL',
                   NOEUD='N4',
                   NOM_CMP='DX',
                   VALE_CALC= 4.81373215E-03,
                   VALE_REFE=4.8137299999999996E-3,
                   PRECISION=1.E-3,
                   ),
                _F(NUME_ORDRE=42,
                   REFERENCE='ANALYTIQUE',
                   RESULTAT=U2,
                   NOM_CHAM='DEPL',
                   NOEUD='N4',
                   NOM_CMP='DX',
                   VALE_CALC= 5.22653439E-03,
                   VALE_REFE=5.2265300000000001E-3,
                   PRECISION=1.E-3,
                   ),
                _F(NUME_ORDRE=46,
                   REFERENCE='ANALYTIQUE',
                   RESULTAT=U2,
                   NOM_CHAM='DEPL',
                   NOEUD='N4',
                   NOM_CMP='DX',
                   VALE_CALC= 6.66402946E-03,
                   VALE_REFE=6.6640299999999996E-3,
                   PRECISION=1.E-3,
                   ),
                _F(NUME_ORDRE=52,
                   REFERENCE='ANALYTIQUE',
                   RESULTAT=U2,
                   NOM_CHAM='DEPL',
                   NOEUD='N4',
                   NOM_CMP='DX',
                   VALE_CALC= 8.27550872E-03,
                   VALE_REFE=8.2755099999999998E-3,
                   PRECISION=1.E-3,
                   ),
                _F(NUME_ORDRE=70,
                   REFERENCE='ANALYTIQUE',
                   RESULTAT=U2,
                   NOM_CHAM='DEPL',
                   NOEUD='N4',
                   NOM_CMP='DX',
                   VALE_CALC=0.012018649,
                   VALE_REFE=0.012018650000000001,
                   PRECISION=1.E-3,
                   ),
                _F(NUME_ORDRE=12,
                   REFERENCE='ANALYTIQUE',
                   RESULTAT=U2,
                   NOM_CHAM='DEPL',
                   NOEUD='N4',
                   NOM_CMP='DY',
                   VALE_CALC=-3.00000000E-03,
                   VALE_REFE=-3.0000000000000001E-3,
                   PRECISION=1.E-3,
                   ),
                _F(NUME_ORDRE=70,
                   REFERENCE='ANALYTIQUE',
                   RESULTAT=U2,
                   NOM_CHAM='DEPL',
                   NOEUD='N4',
                   NOM_CMP='DY',
                   VALE_CALC=-0.017500000,
                   VALE_REFE=-0.017500000000000002,
                   PRECISION=1.E-3,
                   ),
                ),
          )

FIN()
#
