# MODIF  DATE 07/08/2007   AUTEUR SALMONA L.SALMONA 

# TITRE CONTACT MULTICORPS ELASTIQUES
#            CONFIGURATION MANAGEMENT OF EDF VERSION
# ======================================================================
# COPYRIGHT (C) 1991 - 2006  EDF R&D                  WWW.CODE-ASTER.ORG
# THIS PROGRAM IS FREE SOFTWARE; YOU CAN REDISTRIBUTE IT AND/OR MODIFY  
# IT UNDER THE TERMS OF THE GNU GENERAL PUBLIC LICENSE AS PUBLISHED BY  
# THE FREE SOFTWARE FOUNDATION; EITHER VERSION 2 OF THE LICENSE, OR     
# (AT YOUR OPTION) ANY LATER VERSION.                                                    
#                                                                       
# THIS PROGRAM IS DISTRIBUTED IN THE HOPE THAT IT WILL BE USEFUL, BUT   
# WITHOUT ANY WARRANTY; WITHOUT EVEN THE IMPLIED WARRANTY OF            
# MERCHANTABILITY OR FITNESS FOR A PARTICULAR PURPOSE. SEE THE GNU      
# GENERAL PUBLIC LICENSE FOR MORE DETAILS.                              
#                                                                       
# YOU SHOULD HAVE RECEIVED A COPY OF THE GNU GENERAL PUBLIC LICENSE     
# ALONG WITH THIS PROGRAM; IF NOT, WRITE TO EDF R&D CODE_ASTER,         
#    1 AVENUE DU GENERAL DE GAULLE, 92141 CLAMART CEDEX, FRANCE.        
# ======================================================================

# REFERENCE : CALCULS AVEC ABAQUS, SYSTUS, SAMCEF 

DEBUT(CODE=_F(NOM='SSNA102E',
              NIV_PUB_WEB='INTERNET',),);
# --------------------------------------------------------------------
#       LECTURE DU MAILLAGE ET CREATION DE GROUPES DE NOEUDS
# --------------------------------------------------------------------

PRE_GIBI();

MAIL=LIRE_MAILLAGE();
#

MAIL=DEFI_GROUP(reuse =MAIL,
                MAILLAGE=MAIL,
                CREA_GROUP_NO=(_F(GROUP_MA='LCD1',),
                               _F(GROUP_MA='LBC4',),
                               _F(GROUP_MA='LAB1',),
                               _F(GROUP_MA='CEP2',),
                               _F(GROUP_MA='CME2',),
                               _F(GROUP_MA='CEP3',),
                               _F(GROUP_MA='CME3',),
                               _F(GROUP_MA='LCD4',),
                               _F(GROUP_MA='LCD4I',),
                               _F(DIFFE=('LCD4I','PC4',),
                                  NOM='LCD4P',),),);
#
# --------------------------------------------------------------------
#                   MODELISATION 2D AXISYMETRIQUE
# --------------------------------------------------------------------

MOD=AFFE_MODELE(MAILLAGE=MAIL,
                AFFE=_F(TOUT='OUI',
                        PHENOMENE='MECANIQUE',
                        MODELISATION='AXIS',),);
#
# --------------------------------------------------------------------
#         DEFINITION ET AFFECTATION D'UN MATERIAU ELASTIQUE
# --------------------------------------------------------------------

ELAS=DEFI_MATERIAU(ELAS=_F(E=200000.,
                           NU=0.3,),);
#

CHMAT=AFFE_MATERIAU(MAILLAGE=MAIL,
                    AFFE=_F(TOUT='OUI',
                            MATER=ELAS,),);
#
# --------------------------------------------------------------------
#                   ENCASTREMENT DE LA LIGNE LBC4
# --------------------------------------------------------------------

BLOQ=AFFE_CHAR_MECA(MODELE=MOD,
                    DDL_IMPO=_F(GROUP_NO='LBC4',
                                DX=0.0,
                                DY=0.0,),);
#
# --------------------------------------------------------------------
#               DEPLACEMENT IMPOSE SUR LA LIGNE LCD1
# --------------------------------------------------------------------

DEPL=AFFE_CHAR_MECA(MODELE=MOD,
                    DDL_IMPO=_F(GROUP_NO='LCD1',
                                DY=-2.0,),);
#
# --------------------------------------------------------------------
#     SUPPRESSION DES MOUVEMENTS DE CORPS RIGIDE DES DEUX SPHERES
# --------------------------------------------------------------------

LIAI=AFFE_CHAR_MECA(MODELE=MOD,
                    LIAISON_DDL=(_F(GROUP_NO=('PA1','PP2',),
                                    DDL=('DY','DY',),
                                    COEF_MULT=(1.,-1.,),
                                    COEF_IMPO=0.,),
                                 _F(GROUP_NO=('PM3','PD4',),
                                    DDL=('DY','DY',),
                                    COEF_MULT=(1.,-1.,),
                                    COEF_IMPO=0.,),),);

CONT=AFFE_CHAR_MECA(MODELE=MOD,
                    CONTACT=(_F(APPARIEMENT='MAIT_ESCL',
                                RECHERCHE='NOEUD_BOUCLE',
                                METHODE='GCP',
                                ITER_GCP_MAXI=500,
                                RESI_ABSO=1.E-3,
                                GROUP_MA_MAIT='LAB1',
                                GROUP_MA_ESCL='CEP2',),
                             _F(APPARIEMENT='MAIT_ESCL',
                                RECHERCHE='NOEUD_BOUCLE',
                                METHODE='GCP',
                                ITER_GCP_MAXI=500,
                                RESI_ABSO=1.E-3,
                                GROUP_MA_MAIT='CME2',
                                GROUP_MA_ESCL='CEP3',),
                             _F(APPARIEMENT='MAIT_ESCL',
                                RECHERCHE='NOEUD_BOUCLE',
                                METHODE='GCP',
                                ITER_GCP_MAXI=500,
                                RESI_ABSO=1.E-3,
                                GROUP_MA_MAIT='CME3',
                                GROUP_MA_ESCL='LCD4',),),
                    INFO=1,);
#
# --------------------------------------------------------------------
#         DECOUPAGE EN INCREMENTS DE CHARGE (1 EN ELASTICITE)
#         ET RAMPE MULTIPLICATRICE POUR LE DEPLACEMENT IMPOSE
# --------------------------------------------------------------------

FONC=DEFI_FONCTION(NOM_PARA='INST',
                   VALE=(0.,0.,1.,1.,),);
#

LINST=DEFI_LIST_REEL(DEBUT=0.0,
                     INTERVALLE=_F(JUSQU_A=1.,
                                   NOMBRE=1,),);
#
# --------------------------------------------------------------------
#                            CALCUL NON LINEAIRE
# --------------------------------------------------------------------

RESU=STAT_NON_LINE(SOLVEUR=_F(SYME='OUI',),
                   MODELE=MOD,
                   CHAM_MATER=CHMAT,
                   EXCIT=(_F(CHARGE=BLOQ,),
                          _F(CHARGE=DEPL,
                             FONC_MULT=FONC,),
                          _F(CHARGE=LIAI,),
                          _F(CHARGE=CONT,),),
                   COMP_ELAS=_F(RELATION='ELAS',),
                   INCREMENT=_F(LIST_INST=LINST,),
                   NEWTON=_F(MATRICE='ELASTIQUE',),
                   CONVERGENCE=_F(RESI_GLOB_MAXI=1.E-6,
                                  ITER_GLOB_MAXI=50,
                                  ARRET='OUI',),
                   INFO=1,);
#
# --------------------------------------------------------------------
#                    CALCUL DES CONTRAINTES AUX NOEUDS
# --------------------------------------------------------------------
#  

RESU=CALC_ELEM(reuse =RESU,
               RESULTAT=RESU,
               OPTION='SIEF_ELNO_ELGA',);

RESU=CALC_NO(reuse =RESU,
             RESULTAT=RESU,
             OPTION='SIEF_NOEU_ELGA',);
#
# --------------------------------------------------------------------
#          CALCUL DES FORCES NODALES ET DES REACTIONS NODALES
# --------------------------------------------------------------------

RESU=CALC_NO(reuse =RESU,
             RESULTAT=RESU,
             OPTION='REAC_NODA',
             EXCIT=(_F(CHARGE=BLOQ,),
                    _F(CHARGE=DEPL,
                       FONC_MULT=FONC,),
                    _F(CHARGE=LIAI,),
                    _F(CHARGE=CONT,),),);
#
# --------------------------------------------------------------------
#             IMPRESSIONS AU FORMAT CASTEM ET ENSIGHT
#       IMPRESSION AU FORMAT LISTING DU DEPLACEMENT DU POINT PA4
# --------------------------------------------------------------------
#                COMPARAISON SOURCE EXTRENE
# --------------------------------------------------------------------

TEST_RESU(RESU=_F(RESULTAT=RESU,
                  NUME_ORDRE=1,
                  NOM_CHAM='DEPL',
                  NOM_CMP='DY',
                  GROUP_NO='PA4',
                  VALE=-0.81,
                  CRITERE='RELATIF',
                  PRECISION=0.04,
                  REFERENCE='SOURCE_EXTERNE',),);
# --------------------------------------------------------------------
#                NON REGRESSION
# --------------------------------------------------------------------

TEST_RESU(RESU=_F(RESULTAT=RESU,
                  NUME_ORDRE=1,
                  NOM_CHAM='DEPL',
                  NOM_CMP='DY',
                  GROUP_NO='PA4',
                  VALE=-0.840525775283,
                  CRITERE='RELATIF',
                  PRECISION=1.2E-3,
                  REFERENCE='AUTRE_ASTER',
                  VERSION='9.1.6',),);
#
# --------------------------------------------------------------------
#                CALCUL DE LA REACTION A L'ENCASTREMENT
# --------------------------------------------------------------------
#                COMPARAISON SOURCE EXTRENE
# --------------------------------------------------------------------

REACENC=POST_RELEVE_T(ACTION=_F(INTITULE='ENCASTREMENT',
                                GROUP_NO='LBC4',
                                RESULTAT=RESU,
                                NOM_CHAM='REAC_NODA',
                                INST=1.,
                                RESULTANTE=('DX','DY',),
                                REPERE='GLOBAL',
                                OPERATION='EXTRACTION',),);
#

TEST_TABLE(TABLE=REACENC,
           NOM_PARA='DY',
           VALE=17229.58,
           CRITERE='RELATIF',
           PRECISION=0.015,
           REFERENCE='SOURCE_EXTERNE',);
# --------------------------------------------------------------------
#                NON REGRESSION
# --------------------------------------------------------------------

TEST_TABLE(TABLE=REACENC,
           NOM_PARA='DY',
           VALE=17475.2913183,
           CRITERE='RELATIF',
           PRECISION=1.2e-3,
           REFERENCE='NON_REGRESSION',
           VERSION='9.1.6',);



FIN();
#
