# MODIF  DATE 07/08/2007   AUTEUR SALMONA L.SALMONA 
# TITRE FOND DE RESERVOIR EPAIS PRESSURISE
#            CONFIGURATION MANAGEMENT OF EDF VERSION
# ======================================================================
# COPYRIGHT (C) 1991 - 2001  EDF R&D                  WWW.CODE-ASTER.ORG
# THIS PROGRAM IS FREE SOFTWARE; YOU CAN REDISTRIBUTE IT AND/OR MODIFY
# IT UNDER THE TERMS OF THE GNU GENERAL PUBLIC LICENSE AS PUBLISHED BY
# THE FREE SOFTWARE FOUNDATION; EITHER VERSION 2 OF THE LICENSE, OR   
# (AT YOUR OPTION) ANY LATER VERSION.                                 
#
# THIS PROGRAM IS DISTRIBUTED IN THE HOPE THAT IT WILL BE USEFUL, BUT 
# WITHOUT ANY WARRANTY; WITHOUT EVEN THE IMPLIED WARRANTY OF          
# MERCHANTABILITY OR FITNESS FOR A PARTICULAR PURPOSE. SEE THE GNU    
# GENERAL PUBLIC LICENSE FOR MORE DETAILS.                            
#
# YOU SHOULD HAVE RECEIVED A COPY OF THE GNU GENERAL PUBLIC LICENSE   
# ALONG WITH THIS PROGRAM; IF NOT, WRITE TO EDF R&D CODE_ASTER,       
#    1 AVENUE DU GENERAL DE GAULLE, 92141 CLAMART CEDEX, FRANCE.      
# ======================================================================
#
# CALCUL AXISYMETRIQUE
# ELEMENTS QUAD8 ET SEG3 POUR APPLICATION DE LA PRESSION
#.....................................................................

DEBUT(   CODE=_F(  NOM = 'SSNA301B',NIV_PUB_WEB='INTERNET'))

MAYA=LIRE_MAILLAGE( )

MODEL=AFFE_MODELE(    MAILLAGE=MAYA,
                                VERIF='MAILLE',
                                 AFFE=_F(  TOUT = 'OUI',
                                        PHENOMENE = 'MECANIQUE',
                                        MODELISATION = 'AXIS')
                         )

ACIER=DEFI_MATERIAU(         ELAS=_F(  E = 3.E7,
                                      NU = 0.3),
                          ECRO_LINE=_F(  D_SIGM_EPSI = 0.,
                                      SY = 3.E4)

                      )

MATER=AFFE_MATERIAU(   MAILLAGE=MAYA,
                                AFFE=_F(  TOUT = 'OUI',
                                       MATER = ACIER)
                         )

PRES_FO=DEFI_FONCTION(       NOM_PARA='INST',
                             PROL_DROITE='EXCLU',
                            PROL_GAUCHE='EXCLU',
                                   VALE=( 0.,    0.,
                                          1.,    1143.392, )
                        )

PRES=AFFE_CHAR_MECA_F(      MODELE=MODEL,
                            PRES_REP=_F(  GROUP_MA = 'FACE',
                                       PRES = PRES_FO)
                        )

CONDLIM=AFFE_CHAR_MECA(     MODELE=MODEL,DDL_IMPO=(
                             
                                _F(  GROUP_NO = 'FIX_C1',   DX = 0.),
                                _F(  GROUP_NO = 'FIX_C2',   DY = 0.))
                          )

CAT=DEFI_LIST_REEL(    DEBUT=0.0,
                         INTERVALLE=_F(  JUSQU_A = 1.,    NOMBRE = 50)
                     )

CALCNL=STAT_NON_LINE( 
                            MODELE=MODEL,
                        CHAM_MATER=MATER,
                         COMP_INCR=_F( 
                RELATION = 'VMIS_ISOT_LINE',
                DEFORMATION = 'PETIT_REAC'),
                         INCREMENT=_F( 
                LIST_INST = CAT),
                            NEWTON=_F( 
                MATRICE = 'TANGENTE',
                REAC_ITER = 1),
                       CONVERGENCE=_F( 
                RESI_GLOB_RELA = 1.E-6,
                ITER_GLOB_MAXI = 50),EXCIT=(
                             _F( 
                CHARGE = PRES), _F( 
                CHARGE = CONDLIM)),
                     RECH_LINEAIRE=_F( 
                ITER_LINE_MAXI = 3)
              )

CALCNL=CALC_ELEM( reuse=CALCNL,
                            OPTION=(
                  'SIEF_ELNO_ELGA',  'VARI_ELNO_ELGA',),
                          RESULTAT=CALCNL,
                            MODELE=MODEL,
                        CHAM_MATER=MATER
              )

TEST_RESU(RESU=( 
          _F(  RESULTAT = CALCNL,
            NOM_CHAM = 'SIEF_ELNO_ELGA',
            NUME_ORDRE = 50,
            MAILLE = 'MA000544',
            NOEUD = 'NO002329',
            NOM_CMP = 'SIZZ',
            CRITERE = 'RELATIF',
            PRECISION = 5.E-2,
            VALE = 29983.1791),

          _F(  RESULTAT = CALCNL,
            NOM_CHAM = 'SIEF_ELNO_ELGA',
            NUME_ORDRE = 50,
            MAILLE = 'MA000256',
            NOEUD = 'NO001105',
            NOM_CMP = 'SIZZ',
            CRITERE = 'RELATIF',
            PRECISION = 5.E-2,
            VALE = -30514.8566),

          _F(  RESULTAT = CALCNL,
            NOM_CHAM = 'SIEF_ELNO_ELGA',
            NUME_ORDRE = 50,
            MAILLE = 'MA000008',
            NOEUD = 'NO000017',
            NOM_CMP = 'SIZZ',
            CRITERE = 'RELATIF',
            PRECISION = 5.E-2,
            VALE = 27559.1872),

          _F(  RESULTAT = CALCNL,
            NOM_CHAM = 'SIEF_ELNO_ELGA',
            NUME_ORDRE = 50,
            MAILLE = 'MA000537',
            NOEUD = 'NO002313',
            NOM_CMP = 'SIZZ',
            CRITERE = 'RELATIF',
            PRECISION = 5.E-2,
            VALE = 28848.9338),

          _F(  RESULTAT = CALCNL,
            NOM_CHAM = 'SIEF_ELNO_ELGA',
            NUME_ORDRE = 50,
            MAILLE = 'MA000433',
            NOEUD = 'NO001871',
            NOM_CMP = 'SIZZ',
            CRITERE = 'RELATIF',
            PRECISION = 5.E-2,
            VALE = 31910.9387),

          _F(  RESULTAT = CALCNL,
            NOM_CHAM = 'SIEF_ELNO_ELGA',
            NUME_ORDRE = 50,
            MAILLE = 'MA000321',
            NOEUD = 'NO001361',
            NOM_CMP = 'SIZZ',
            CRITERE = 'RELATIF',
            PRECISION = 5.E-2,
            VALE = -14533.6609),

          _F(  RESULTAT = CALCNL,
            NOM_CHAM = 'SIEF_ELNO_ELGA',
            NUME_ORDRE = 50,
            MAILLE = 'MA000193',
            NOEUD = 'NO000851',
            NOM_CMP = 'SIZZ',
            CRITERE = 'RELATIF',
            PRECISION = 5.E-2,
            VALE = -9336.0276),

          _F(  RESULTAT = CALCNL,
            NOM_CHAM = 'SIEF_ELNO_ELGA',
            NUME_ORDRE = 50,
            MAILLE = 'MA000001',
            NOEUD = 'NO000001',
            NOM_CMP = 'SIZZ',
            CRITERE = 'RELATIF',
            PRECISION = 5.E-2,
            VALE = 28702.5796),

          _F(  RESULTAT = CALCNL,
            NOM_CHAM = 'DEPL',
            NOEUD = 'NO002313',
            NUME_ORDRE = 25,
            NOM_CMP = 'DY',
            CRITERE = 'RELATIF',
            PRECISION = 5.E-2,
            VALE = 0.0990524),

          _F(  RESULTAT = CALCNL,
            NOM_CHAM = 'DEPL',
            NOEUD = 'NO002313',
            NUME_ORDRE = 50,
            NOM_CMP = 'DY',
            VALE = 0.244347,
            CRITERE = 'RELATIF',
            PRECISION = 5.E-2))
          )

FIN()
#
