#
# TITRE ETUDE: TUBE BETON SOUS PRESSION INTERNE AVEC LE MODELE UMLV
# ======================================================================
# COPYRIGHT (C) 1991 - 2013  EDF R&D                  WWW.CODE-ASTER.ORG
# THIS PROGRAM IS FREE SOFTWARE; YOU CAN REDISTRIBUTE IT AND/OR MODIFY
# IT UNDER THE TERMS OF THE GNU GENERAL PUBLIC LICENSE AS PUBLISHED BY
# THE FREE SOFTWARE FOUNDATION; EITHER VERSION 2 OF THE LICENSE, OR
# (AT YOUR OPTION) ANY LATER VERSION.
#
# THIS PROGRAM IS DISTRIBUTED IN THE HOPE THAT IT WILL BE USEFUL, BUT
# WITHOUT ANY WARRANTY; WITHOUT EVEN THE IMPLIED WARRANTY OF
# MERCHANTABILITY OR FITNESS FOR A PARTICULAR PURPOSE. SEE THE GNU
# GENERAL PUBLIC LICENSE FOR MORE DETAILS.
#
# YOU SHOULD HAVE RECEIVED A COPY OF THE GNU GENERAL PUBLIC LICENSE
# ALONG WITH THIS PROGRAM; IF NOT, WRITE TO EDF R&D CODE_ASTER,
#    1 AVENUE DU GENERAL DE GAULLE, 92141 CLAMART CEDEX, FRANCE.
# ======================================================================
# -----------------------------------------------------
# MODELISATION AXIS : FLUAGE PROPRE UMLV
# -----------------------------------------------------

DEBUT(CODE=_F(NIV_PUB_WEB='INTERNET', VISU_EFICAS='NON'), DEBUG=_F(SDVERI='OUI'))

# PARAMETRE D'ETUDE

PRES_INT=1E6;

#------------------------------------------------------------------
# 1- LLECTURE MAILLAGE
#------------------------------------------------------------------

MAILME=LIRE_MAILLAGE(INFO=2,FORMAT='MED');


#------------------------------------------------------------------
# 2- DEFINITION DU MODELE MECANIQUE
#------------------------------------------------------------------

MODELEME=AFFE_MODELE(MAILLAGE=MAILME,
                   AFFE=(
                          _F(TOUT='OUI',
                             PHENOMENE='MECANIQUE',
                             MODELISATION='AXIS'),
                            ),
                         );

MAILME=DEFI_GROUP(reuse=MAILME,
                  MAILLAGE=MAILME,
                  CREA_GROUP_NO=(_F( GROUP_MA = 'SINTERI'),
                                 _F( GROUP_MA = 'SBASSE'),
                                 _F( GROUP_MA = 'SHAUTE'),
                                 _F( GROUP_MA = 'SEXTERI'),),
                  );

MAILME=MODI_MAILLAGE(reuse =MAILME,MAILLAGE=MAILME,ORIE_PEAU_2D=_F(GROUP_MA='SINTERI',),);


#------------------------------------------------------------------
# 3 DEFINITION DES CONSTANTES MATERIAU
#------------------------------------------------------------------

# 3.1. LE BETON

E = DEFI_CONSTANTE(VALE = 31.0E9)

NU=DEFI_CONSTANTE(VALE=0.200,);

ALPHA=DEFI_CONSTANTE(VALE=0.0,);

FCTD=DEFI_FONCTION(NOM_PARA='SECH',
                   VALE=(0.0,0.0,
                         1.0,1.0,  ),
                   PROL_DROITE='LINEAIRE',
                   PROL_GAUCHE='LINEAIRE',);

BETON=DEFI_MATERIAU(ELAS_FO=_F(E=E,
                               NU=NU,
                               TEMP_DEF_ALPHA=0.0,
                               ALPHA= ALPHA,
                               FONC_DESORP=FCTD,
                               ),
                    BETON_UMLV_FP=_F(K_RS   = 2.0E11,      #[Pa]
                                     ETA_RS = 4.0E16,      #[Pa.s]
                                     K_IS   = 5.0E10,     #[Pa]
                                     ETA_IS = 1.0E17,      #[Pa.s]
                                     K_RD   = 5.0E11,      #[Pa]
                                     ETA_RD = 1.0E16,    #[Pa.s]
                                     ETA_ID = 1.0E17 ,  # [Pa.s]
                                     ),
               );



# #-------------------------------------------------
# 4.  Definition des temps caracteristiques
# #------------------------------------------------

#TEMPS 10 HEURES
TPS_10H=10*3600.;
TPS_1AN=3600*365.25*24;
# #-------------------------------------------------
# 5.  DEFINITION LISTE D'INSTANTS
# #------------------------------------------------

LINST=DEFI_LIST_REEL(DEBUT=-1.0,
                        INTERVALLE=(_F(JUSQU_A = 0.0,      NOMBRE = 1),
                                    _F(JUSQU_A = TPS_10H,  NOMBRE = 10),
                                    _F(JUSQU_A = TPS_1AN,  NOMBRE = 100),
                                    ),);

DEFLIST =DEFI_LIST_INST(DEFI_LIST=_F(LIST_INST = LINST),
                        ECHEC=_F(ACTION='DECOUPE',
                                 SUBD_METHODE='MANUEL',
                                 SUBD_PAS=3,
                                 SUBD_PAS_MINI =1E-6 ),)

# #---------------------------------------------------------------------------------
# 6. CALCUL THERMIQUE
# #---------------------------------------------------------------------------------


# CHAMP DE TEMPERATURE

TEMP=CREA_CHAMP(OPERATION='AFFE',
                TYPE_CHAM='NOEU_TEMP_R',
                MAILLAGE=MAILME,
                AFFE=_F(TOUT = 'OUI',
                        NOM_CMP = 'TEMP',
                        VALE = 20.),
                );

# CHAMP DE SECHAGE

SECH=CREA_CHAMP(OPERATION='AFFE',
                TYPE_CHAM='NOEU_TEMP_R',
                MAILLAGE=MAILME,
                AFFE=_F(TOUT = 'OUI',
                        NOM_CMP = 'TEMP',
                        VALE = 1.0)
                       )

# #---------------------------------------------------------------------------------
# 7. AFFECTATION MATERIAU AVEC PRISE EN COMPTE THERMIQUE
# #---------------------------------------------------------------------------------

CHMAT=AFFE_MATERIAU(MAILLAGE=MAILME,
                    AFFE=(_F(TOUT='OUI',MATER=BETON,),
                         ),
                    AFFE_VARC=(
                               _F(TOUT='OUI',CHAM_GD=TEMP,NOM_VARC='TEMP',VALE_REF=20.,),
                               _F(TOUT='OUI',CHAM_GD=SECH,NOM_VARC='SECH',VALE_REF=1.,),
                              ),
                    );


# #---------------------------------------------------------------------------------
# 8. CALCUL MECANIQUE
# #---------------------------------------------------------------------------------

# 8.1.CONDITIONS AUX LIMITES

CLIM=AFFE_CHAR_MECA(MODELE=MODELEME,
                    DDL_IMPO=_F(GROUP_NO='SBASSE',DY=0.0,),
                    LIAISON_UNIF=(_F(GROUP_NO ='SEXTERI',DDL = 'DX',),
                                  _F(GROUP_NO ='SHAUTE',DDL = 'DY',),
                                 ),
                   );

# 8.2 CHARGEMENT EN PRESSION

CH_P = AFFE_CHAR_MECA(MODELE=MODELEME,PRES_REP=_F(GROUP_MA='SINTERI',PRES = PRES_INT),);



# 8.3. CALCUL

RESUMECA=STAT_NON_LINE(
                       MODELE=MODELEME,
                       CHAM_MATER=CHMAT,
                       EXCIT=(
                               _F(CHARGE=CLIM,),
                               _F(CHARGE=CH_P,),
                              ),
                       COMPORTEMENT=_F(RELATION='BETON_UMLV_FP'),
                       INCREMENT=_F(LIST_INST=DEFLIST,
                                   ),
                       NEWTON=_F(PREDICTION = 'ELASTIQUE',MATRICE='TANGENTE',REAC_ITER=1),
                       CONVERGENCE=_F(
                                      ITER_GLOB_MAXI=10,
                                    ),

                       OBSERVATION=(_F(LIST_INST=LINST,
                                       NOM_CHAM='VARI_ELGA',
                                       POINT = 1,
                                       NOM_CMP='V1',
                                       MAILLE='M1',),
                                       _F(NOM_CHAM='VARI_ELGA',
                                       POINT = 1,
                                       NOM_CMP='V2',
                                       MAILLE='M1',),
                                      ),
                        ARCHIVAGE =_F(LIST_INST =LINST),
             );


# #---------------------------------------------------------------------------------
# 9. DEPOUILLEMENT
# #---------------------------------------------------------------------------------

# 9.1. CALCUL DES GRANDEURS A DEPOUILLER

RESUMECA=CALC_CHAMP(reuse=RESUMECA,RESULTAT=RESUMECA,DEFORMATION=('EPSI_ELGA'))



CHAMELG=CALC_CHAM_ELEM(MODELE=MODELEME,MAILLE='M1',OPTION='COOR_ELGA')

TABLE=RECU_TABLE(CO=RESUMECA,NOM_TABLE='OBSERVATION',);

TEST_TABLE(CRITERE='ABSOLU',
           REFERENCE='ANALYTIQUE',
           PRECISION=9.9999999999999995E-07,
           VALE_CALC= 0.00000000E+00,
           VALE_REFE=0.0,
           NOM_PARA='VALE',
           TYPE_TEST='SOMM',
           TABLE=TABLE,
           FILTRE=_F(CRIT_COMP='EQ',
                     NOM_PARA='NOM_CMP',
                     VALE_K='V2',),
           )

FIN()
