# TITRE MODELE VISC_CIN2_CHAB A 550 DEGRES, VISCOSIET PREDOMINANTE
# ======================================================================
# COPYRIGHT (C) 1991 - 2015  EDF R&D                  WWW.CODE-ASTER.ORG
# THIS PROGRAM IS FREE SOFTWARE; YOU CAN REDISTRIBUTE IT AND/OR MODIFY
# IT UNDER THE TERMS OF THE GNU GENERAL PUBLIC LICENSE AS PUBLISHED BY
# THE FREE SOFTWARE FOUNDATION; EITHER VERSION 2 OF THE LICENSE, OR
# (AT YOUR OPTION) ANY LATER VERSION.
#
# THIS PROGRAM IS DISTRIBUTED IN THE HOPE THAT IT WILL BE USEFUL, BUT
# WITHOUT ANY WARRANTY; WITHOUT EVEN THE IMPLIED WARRANTY OF
# MERCHANTABILITY OR FITNESS FOR A PARTICULAR PURPOSE. SEE THE GNU
# GENERAL PUBLIC LICENSE FOR MORE DETAILS.
#
# YOU SHOULD HAVE RECEIVED A COPY OF THE GNU GENERAL PUBLIC LICENSE
# ALONG WITH THIS PROGRAM; IF NOT, WRITE TO EDF R&D CODE_ASTER,
#    1 AVENUE DU GENERAL DE GAULLE, 92141 CLAMART CEDEX, FRANCE.
# ======================================================================
# person_in_charge: jean-michel.proix at edf.fr


DEBUT(CODE=_F(NIV_PUB_WEB='INTERNET'),DEBUG=_F(SDVERI='NON'))
# SDVERI='NON' car la verification est trop couteuse en CPU

MAILLAGE=LIRE_MAILLAGE();

YOUNG=143006.0
NU=0.33

R0= 0.1893467592e-1;

PETITB=0.2709891156

RINF=0.4392231516e-1

PETITK=2.751852265

PETITW=-1.157794066
#PETITW=1.157794066

GAMA1=211.5567568

GAMA2=0.9105873193

C1INF=3946.594428

C2INF=49.33873423

AINF=10.60515818

EXP_N=14.97577311

ETA=278.5754646;

UNSURETA= 1./ETA ;

UNSURM=0.0

P10CD910=DEFI_MATERIAU(ELAS=_F(E=YOUNG,
                                  NU=NU,),
                       CIN2_CHAB=_F(R_0=R0,
                                       R_I=RINF,
                                       B=PETITB,
                                       C1_I=C1INF,
                                       C2_I=C2INF,
                                       K=PETITK,
                                       W=PETITW,
                                       G1_0=GAMA1,
                                       G2_0=GAMA2,
                                       A_I=AINF,),
                       LEMAITRE=_F(N=EXP_N,
                                      UN_SUR_K=UNSURETA,
                                      UN_SUR_M=UNSURM,),
                                      );

MAT_PLAS=AFFE_MATERIAU(MAILLAGE=MAILLAGE,
                       AFFE=_F(TOUT='OUI',
                               MATER=P10CD910,
                               ),);


TPS_FIN=10000.0;
NBRE_INC=100;

L_INST=DEFI_LIST_REEL(DEBUT=0.0,
                      INTERVALLE=(
                      _F(JUSQU_A=TPS_FIN,NOMBRE=NBRE_INC,),
                                     ),);

HAUTEUR=0.01;

EPS_FIN=0.01;

EPS_IMPO= HAUTEUR*EPS_FIN;

DY_IMPO=DEFI_FONCTION(NOM_PARA='INST',
                    VALE=
                    (0.0,0.0,
                     10000.0,EPS_IMPO),
                    INTERPOL='LIN',
                    PROL_DROITE='LINEAIRE',
                    PROL_GAUCHE='LINEAIRE',);

MODMECA=AFFE_MODELE(MAILLAGE=MAILLAGE,
                    AFFE=(_F(TOUT='OUI',
                             PHENOMENE='MECANIQUE',
                             MODELISATION='AXIS',),),);

BLOCAGES=AFFE_CHAR_MECA(MODELE=MODMECA,
                        DDL_IMPO=(_F(GROUP_MA='BLOC_X',
                                      DX=0.0,),
                                   _F(GROUP_MA='BLOC_Y',
                                      DY=0.0,),
                                      ),);

PRESSION=AFFE_CHAR_MECA_F(MODELE=MODMECA,
                          FACE_IMPO=(_F(GROUP_MA=('LOAD'),
                                        DY=DY_IMPO,),),);

RESUPLAS=STAT_NON_LINE(MODELE=MODMECA,
                       CHAM_MATER=MAT_PLAS,
                       EXCIT=(_F(CHARGE=BLOCAGES,),
                              _F(CHARGE=PRESSION,),),
                       COMPORTEMENT=_F(RELATION='VISC_CIN2_CHAB',
                                    DEFORMATION='PETIT',
                                    RESI_INTE_RELA=1.E-6,
                                    ITER_INTE_MAXI=100,
                                    TOUT='OUI',),
                       INCREMENT=_F(LIST_INST=L_INST,),
                       NEWTON=_F(REAC_INCR=1,
                                 REAC_ITER=1,
                                 PREDICTION='TANGENTE',
                                 MATRICE='TANGENTE',),
                       INFO=1,);

RESUPLAS=CALC_CHAMP(reuse=RESUPLAS,LIST_INST=L_INST,CONTRAINTE=('SIGM_ELNO'),VARI_INTERNE=('VARI_ELNO'),DEFORMATION=('EPSI_ELNO'),RESULTAT=RESUPLAS)

RESUPLAS=CALC_CHAMP(reuse =RESUPLAS,
                 RESULTAT=RESUPLAS,
                 LIST_INST=L_INST,
                 CONTRAINTE='SIGM_NOEU',DEFORMATION='EPSI_NOEU',VARI_INTERNE='VARI_NOEU',

                );


SYYP=RECU_FONCTION(RESULTAT=RESUPLAS,INTERPOL='LIN',
                   NOM_CHAM='SIGM_NOEU',

                   NOM_CMP='SIYY',
                   NOEUD='N1',);


EXP1=DEFI_FONCTION(NOM_PARA='INST',
                    VALE=(0.00000E+00  , 0.00000E+00 ,
20.0401, 2.85155,
40.0802, 5.7174,
60.1202, 8.58325,
80.1603, 11.4491,
100.2004, 14.315,
120.24, 17.1808,
140.281, 20.0467,
160.321, 22.9125,
180.361, 25.7784,
200.401, 28.6442,
220.441, 31.5101,
240.481, 34.3759,
260.521, 37.2418,
280.561, 40.1076,
300.601, 42.9735,
320.641, 45.8393,
340.681, 48.7052,
360.721, 51.571,
380.762, 54.4368,
400.802, 57.3025,
# ... 478 like lines cut
10000, 155.233,),)


IMPR_FONCTION(FORMAT='XMGRACE',
            UNITE=29,
            TITRE='SYY EN FONCTION DE EPYY',
            LEGENDE_X='EPYY',
            LEGENDE_Y='SIGMA YY',
            COURBE=(
                   _F( FONCTION=SYYP,
                       LEGENDE='CALC',
                       COULEUR=7,
                       MARQUEUR=0,),
                    _F(FONCTION=EXP1,
                       LEGENDE='EXP1',
                       COULEUR=3,
                       MARQUEUR=1,),
                      ),)

TEST_FONCTION(VALEUR=(_F(VALE_CALC=14.3292584024,
                         VALE_REFE=14.315,
                         VALE_PARA=100.2004,
                         REFERENCE='SOURCE_EXTERNE',
                         FONCTION=SYYP,),
                      _F(VALE_CALC=111.903411059,
                         VALE_REFE=112.471,
                         VALE_PARA=1002.004,
                         REFERENCE='SOURCE_EXTERNE',
                         PRECISION=6.0000000000000001E-3,
                         FONCTION=SYYP,),
                      _F(VALE_CALC=155.083873972,
                         VALE_REFE=155.233,
                         VALE_PARA=1.E4,
                         REFERENCE='SOURCE_EXTERNE',
                         FONCTION=SYYP,),
                      ),
              )

FIN();
