# TITRE FOND DE RESERVOIR EPAIS PRESSURISE
# ======================================================================
# COPYRIGHT (C) 1991 - 2015  EDF R&D                  WWW.CODE-ASTER.ORG
# THIS PROGRAM IS FREE SOFTWARE; YOU CAN REDISTRIBUTE IT AND/OR MODIFY
# IT UNDER THE TERMS OF THE GNU GENERAL PUBLIC LICENSE AS PUBLISHED BY
# THE FREE SOFTWARE FOUNDATION; EITHER VERSION 2 OF THE LICENSE, OR
# (AT YOUR OPTION) ANY LATER VERSION.
#
# THIS PROGRAM IS DISTRIBUTED IN THE HOPE THAT IT WILL BE USEFUL, BUT
# WITHOUT ANY WARRANTY; WITHOUT EVEN THE IMPLIED WARRANTY OF
# MERCHANTABILITY OR FITNESS FOR A PARTICULAR PURPOSE. SEE THE GNU
# GENERAL PUBLIC LICENSE FOR MORE DETAILS.
#
# YOU SHOULD HAVE RECEIVED A COPY OF THE GNU GENERAL PUBLIC LICENSE
# ALONG WITH THIS PROGRAM; IF NOT, WRITE TO EDF R&D CODE_ASTER,
#    1 AVENUE DU GENERAL DE GAULLE, 92141 CLAMART CEDEX, FRANCE.
# ======================================================================
#
# CALCUL AXISYMETRIQUE
# ELEMENTS QUAD8 ET SEG3 POUR APPLICATION DE LA PRESSION
#.....................................................................

DEBUT(   CODE=_F(NIV_PUB_WEB='INTERNET'))

MAYA=LIRE_MAILLAGE(FORMAT='MED', )

MODEL=AFFE_MODELE(    MAILLAGE=MAYA,
                                
                                 AFFE=_F(  TOUT = 'OUI',
                                        PHENOMENE = 'MECANIQUE',
                                        MODELISATION = 'AXIS')
                         )

ACIER=DEFI_MATERIAU(         ELAS=_F(  E = 3.E7,
                                      NU = 0.3),
                          ECRO_LINE=_F(  D_SIGM_EPSI = 0.,
                                      SY = 3.E4)

                      )

MATER=AFFE_MATERIAU(   MAILLAGE=MAYA,
                                AFFE=_F(  TOUT = 'OUI',
                                       MATER = ACIER)
                         )

PRES_FO=DEFI_FONCTION(       NOM_PARA='INST',
                             PROL_DROITE='EXCLU',
                            PROL_GAUCHE='EXCLU',
                                   VALE=( 0.,    0.,
                                          1.,    1143.392, )
                        )

PRES=AFFE_CHAR_MECA_F(      MODELE=MODEL,
                            PRES_REP=_F(  GROUP_MA = 'FACE',
                                       PRES = PRES_FO)
                        )

CONDLIM=AFFE_CHAR_MECA(     MODELE=MODEL,DDL_IMPO=(

                                _F(  GROUP_NO = 'FIX_C1',   DX = 0.),
                                _F(  GROUP_NO = 'FIX_C2',   DY = 0.))
                          )

CAT=DEFI_LIST_REEL(    DEBUT=0.0,
                         INTERVALLE=_F(  JUSQU_A = 1.,    NOMBRE = 50)
                     )

CALCNL=STAT_NON_LINE(
                            MODELE=MODEL,
                        CHAM_MATER=MATER,
                         COMPORTEMENT=_F(
                RELATION = 'VMIS_ISOT_LINE',
                DEFORMATION = 'PETIT_REAC'),
                         INCREMENT=_F(
                LIST_INST = CAT),
                            NEWTON=_F(
                MATRICE = 'TANGENTE',
                REAC_ITER = 1),
                       CONVERGENCE=_F(
                RESI_GLOB_RELA = 1.E-6,
                ITER_GLOB_MAXI = 50),EXCIT=(
                             _F(
                CHARGE = PRES), _F(
                CHARGE = CONDLIM)),
                     RECH_LINEAIRE=_F(
                ITER_LINE_MAXI = 3)
              )

CALCNL=CALC_CHAMP(reuse=CALCNL,CONTRAINTE=('SIGM_ELNO'),VARI_INTERNE=('VARI_ELNO'),RESULTAT=CALCNL)

TEST_RESU(RESU=(_F(NUME_ORDRE=50,
                   RESULTAT=CALCNL,
                   NOM_CHAM='SIGM_ELNO',
                   NOEUD='NO002329',
                   NOM_CMP='SIZZ',
                   VALE_CALC= 2.99907510E+04,
                   VALE_REFE=2.9983179100000001E4,
                   REFERENCE='NON_DEFINI',
                   CRITERE='RELATIF',
                   PRECISION=0.050000000000000003,
                   MAILLE='MA000544',),
                _F(NUME_ORDRE=50,
                   RESULTAT=CALCNL,
                   NOM_CHAM='SIGM_ELNO',
                   NOEUD='NO001105',
                   NOM_CMP='SIZZ',
                   VALE_CALC=-3.10508704E+04,
                   VALE_REFE=-3.0514856599999999E4,
                   REFERENCE='NON_DEFINI',
                   CRITERE='RELATIF',
                   PRECISION=0.050000000000000003,
                   MAILLE='MA000256',),
                _F(NUME_ORDRE=50,
                   RESULTAT=CALCNL,
                   NOM_CHAM='SIGM_ELNO',
                   NOEUD='NO000017',
                   NOM_CMP='SIZZ',
                   VALE_CALC= 2.74621388E+04,
                   VALE_REFE=2.75591872E4,
                   REFERENCE='NON_DEFINI',
                   CRITERE='RELATIF',
                   PRECISION=0.050000000000000003,
                   MAILLE='MA000008',),
                _F(NUME_ORDRE=50,
                   RESULTAT=CALCNL,
                   NOM_CHAM='SIGM_ELNO',
                   NOEUD='NO002313',
                   NOM_CMP='SIZZ',
                   VALE_CALC= 2.88548522E+04,
                   VALE_REFE=2.8848933799999999E4,
                   REFERENCE='NON_DEFINI',
                   CRITERE='RELATIF',
                   PRECISION=0.050000000000000003,
                   MAILLE='MA000537',),
                _F(NUME_ORDRE=50,
                   RESULTAT=CALCNL,
                   NOM_CHAM='SIGM_ELNO',
                   NOEUD='NO001871',
                   NOM_CMP='SIZZ',
                   VALE_CALC= 3.21144294E+04,
                   VALE_REFE=3.1910938699999999E4,
                   REFERENCE='NON_DEFINI',
                   CRITERE='RELATIF',
                   PRECISION=0.050000000000000003,
                   MAILLE='MA000433',),
                _F(NUME_ORDRE=50,
                   RESULTAT=CALCNL,
                   NOM_CHAM='SIGM_ELNO',
                   NOEUD='NO001361',
                   NOM_CMP='SIZZ',
                   VALE_CALC=-1.49734857E+04,
                   VALE_REFE=-1.4533660900000001E4,
                   REFERENCE='NON_DEFINI',
                   CRITERE='RELATIF',
                   PRECISION=0.050000000000000003,
                   MAILLE='MA000321',),
                _F(NUME_ORDRE=50,
                   RESULTAT=CALCNL,
                   NOM_CHAM='SIGM_ELNO',
                   NOEUD='NO000851',
                   NOM_CMP='SIZZ',
                   VALE_CALC=-9.63443001E+03,
                   VALE_REFE=-9336.0275999999994,
                   REFERENCE='NON_DEFINI',
                   CRITERE='RELATIF',
                   PRECISION=0.050000000000000003,
                   MAILLE='MA000193',),
                _F(NUME_ORDRE=50,
                   RESULTAT=CALCNL,
                   NOM_CHAM='SIGM_ELNO',
                   NOEUD='NO000001',
                   NOM_CMP='SIZZ',
                   VALE_CALC= 2.86057207E+04,
                   VALE_REFE=2.8702579600000001E4,
                   REFERENCE='NON_DEFINI',
                   CRITERE='RELATIF',
                   PRECISION=0.050000000000000003,
                   MAILLE='MA000001',),
                _F(NUME_ORDRE=25,
                   RESULTAT=CALCNL,
                   NOM_CHAM='DEPL',
                   NOEUD='NO002313',
                   NOM_CMP='DY',
                   VALE_CALC=0.099191772,
                   VALE_REFE=0.099052399999999999,
                   REFERENCE='NON_DEFINI',
                   CRITERE='RELATIF',
                   PRECISION=0.050000000000000003,),
                _F(NUME_ORDRE=50,
                   RESULTAT=CALCNL,
                   NOM_CHAM='DEPL',
                   NOEUD='NO002313',
                   NOM_CMP='DY',
                   VALE_CALC=0.246979933,
                   VALE_REFE=0.24434700000000001,
                   REFERENCE='NON_DEFINI',
                   CRITERE='RELATIF',
                   PRECISION=0.050000000000000003,),
                ),
          )

FIN()
#
