# TITRE ETUDE : ESSAI BIAXIAL DRAINE (MODELISATION D_PLAN)
# ======================================================================
# COPYRIGHT (C) 1991 - 2012  EDF R&D                  WWW.CODE-ASTER.ORG
# THIS PROGRAM IS FREE SOFTWARE; YOU CAN REDISTRIBUTE IT AND/OR MODIFY
# IT UNDER THE TERMS OF THE GNU GENERAL PUBLIC LICENSE AS PUBLISHED BY
# THE FREE SOFTWARE FOUNDATION; EITHER VERSION 2 OF THE LICENSE, OR
# (AT YOUR OPTION) ANY LATER VERSION.
#
# THIS PROGRAM IS DISTRIBUTED IN THE HOPE THAT IT WILL BE USEFUL, BUT
# WITHOUT ANY WARRANTY; WITHOUT EVEN THE IMPLIED WARRANTY OF
# MERCHANTABILITY OR FITNESS FOR A PARTICULAR PURPOSE. SEE THE GNU
# GENERAL PUBLIC LICENSE FOR MORE DETAILS.
#
# YOU SHOULD HAVE RECEIVED A COPY OF THE GNU GENERAL PUBLIC LICENSE
# ALONG WITH THIS PROGRAM; IF NOT, WRITE TO EDF R&D CODE_ASTER,
#    1 AVENUE DU GENERAL DE GAULLE, 92141 CLAMART CEDEX, FRANCE.
# ======================================================================
#               AVEC LE MODELE DE TYPE DRUCKER-PRAGER A ECROUISSAGE
#               NEGATIF LINEAIRE POUR UN CONFINEMENT DE 2 MPA
# ======================================================================
# Dans ce cas de test, on simule un cas avec les deux lois de
# comportement DRUCKER-PRAGER en condition associee et non-associee
# =====================================================================
DEBUT(CODE=_F(NIV_PUB_WEB='INTERNET'),DEBUG=_F(SDVERI='NON'))
# SDVERI='NON' car la verification est trop couteuse en CPU

MAILLAGE = LIRE_MAILLAGE( );


MATER3    = DEFI_MATERIAU(
                    ELAS  = _F( E           =  1.0E9,
                                NU          =  0.3,
                                RHO         =  2764.0,
                                ALPHA       =  0.0,),
                    DRUCK_PRAGER  = _F( ECROUISSAGE = 'PARABOLIQUE',
                                           ALPHA       =    0.328     ,
                                           P_ULTM      =    1.225E-2  ,
                                           SY          =    2.11E6    ,
                                           SY_ULTM     =    1.00E6    ,),);

CHMAT3    = AFFE_MATERIAU(  MAILLAGE = MAILLAGE,
                           AFFE     = _F(  TOUT  = 'OUI',
                                           MATER = MATER3 ));

MODELE   = AFFE_MODELE(    MAILLAGE = MAILLAGE,
                           AFFE     = _F(  TOUT         = 'OUI',
                                           PHENOMENE    = 'MECANIQUE',
                                           MODELISATION = 'D_PLAN'),
                      );

#***********************************************************************
# *** CHARGEMENT MECANIQUE : FORCE DE COMPRESSION + DDL IMPOSES ********
#***********************************************************************
SIGINIT=CREA_CHAMP(TYPE_CHAM='CART_SIEF_R',
                  OPERATION='AFFE',
                  MODELE=MODELE,
                  AFFE=_F(TOUT='OUI',
                          NOM_CMP=('SIXX','SIYY','SIZZ','SIXY',),
                          VALE=(0.0,0.0,0.0,0.0,),),);

CHAR_UM3 = AFFE_CHAR_MECA( MODELE   = MODELE,
                           PRES_REP = _F(  MAILLE = 'M3',
                                           PRES   = 0.0)
                        )

CHAR_UM4 = AFFE_CHAR_MECA( MODELE   = MODELE,
                           PRES_REP = _F(  MAILLE = 'M4',
                                           PRES = 0.0)
                        )

CHAR_UM5 = AFFE_CHAR_MECA( MODELE   = MODELE,
                           PRES_REP = _F(  MAILLE = 'M5',
                                           PRES = 0.0)
                        )

DEPL_M2  = AFFE_CHAR_MECA( MODELE   = MODELE,
                           DDL_IMPO = _F(  MAILLE = 'M2',
                                           DY     = 0.)
                        )

DEPL_M5  = AFFE_CHAR_MECA( MODELE   = MODELE,
                           DDL_IMPO = _F(  MAILLE = 'M5',
                                           DX     = 0.)
                         )

DEPL_M4  = AFFE_CHAR_MECA( MODELE   = MODELE,
                           FACE_IMPO= _F(  MAILLE = 'M4',
                                           DY = 1.)
                         )

COEF2    = DEFI_FONCTION(  NOM_PARA    = 'INST',
                           PROL_DROITE = 'CONSTANT',
                           PROL_GAUCHE = 'CONSTANT',
                           VALE=( 1.0,  -0.000,
                                  2.0,  -0.008,
                                  3.0,  -0.016,    )
                        )

TEMPS    = DEFI_LIST_REEL( DEBUT       = 1.,
                           INTERVALLE  = (
                                           _F(  JUSQU_A = 3.000, NOMBRE = 400, ),),
                          )

U3       = STAT_NON_LINE(
                          MODELE     = MODELE,
                          CHAM_MATER = CHMAT3,
                          EXCIT      = (
                                        _F( CHARGE        = CHAR_UM3,),
                                        _F( CHARGE        = DEPL_M5, ),
                                        _F( CHARGE        = DEPL_M2, ),
                                        _F( CHARGE        = DEPL_M4,
                                            FONC_MULT     = COEF2,),),
                         COMPORTEMENT   = _F( RELATION       = 'DRUCK_PRAGER'),
                         NEWTON      = _F( MATRICE        = 'TANGENTE',
                                           REAC_ITER      = 1,),
                         ETAT_INIT   = _F( SIGM           = SIGINIT,),
                         CONVERGENCE = _F( RESI_GLOB_RELA = 1.E-10,
                                           ITER_GLOB_MAXI = 50),
                         INCREMENT   = _F( LIST_INST      = TEMPS,)
                        )

U3=CALC_CHAMP(reuse=U3,CONTRAINTE=('SIGM_ELNO'),VARI_INTERNE=('VARI_ELNO'),DEFORMATION=('EPSI_ELGA','EPSI_ELNO'),RESULTAT=U3)


U3       = CALC_CHAMP( reuse    = U3,
                    RESULTAT = U3,
                    CONTRAINTE='SIGM_NOEU',VARI_INTERNE='VARI_NOEU'
                  )

TEST_RESU(RESU=(_F(INST=1.07,
                   RESULTAT=U3,
                   NOM_CHAM='SIGM_NOEU',
                   NOEUD='N4',
                   NOM_CMP='SIYY',
                   VALE_CALC=-6.1538461538460001E5,
                   ),
                _F(INST=1.1599999999999999,
                   RESULTAT=U3,
                   NOM_CHAM='SIGM_NOEU',
                   NOEUD='N4',
                   NOM_CMP='SIYY',
                   VALE_CALC=-1.4065934065934001E6,
                   ),
                _F(INST=1.34,
                   RESULTAT=U3,
                   NOM_CHAM='SIGM_NOEU',
                   NOEUD='N4',
                   NOM_CMP='SIYY',
                   VALE_CALC=-2.9890109890108998E6,
                   ),
                _F(INST=1.53,
                   RESULTAT=U3,
                   NOM_CHAM='SIGM_NOEU',
                   NOEUD='N4',
                   NOM_CMP='SIYY',
                   VALE_CALC=-4.6060233642649E6,
                   ),
                _F(INST=1.07,
                   RESULTAT=U3,
                   NOM_CHAM='VARI_NOEU',
                   NOEUD='N4',
                   NOM_CMP='V1',
                   VALE_CALC=0.0,
                   CRITERE='ABSOLU',
                   ),
                _F(INST=1.1599999999999999,
                   RESULTAT=U3,
                   NOM_CHAM='VARI_NOEU',
                   NOEUD='N4',
                   NOM_CMP='V1',
                   VALE_CALC=0.0,
                   ),
                _F(INST=1.3400000000000001,
                   RESULTAT=U3,
                   NOM_CHAM='VARI_NOEU',
                   NOEUD='N4',
                   NOM_CMP='V1',
                   VALE_CALC=0.0,
                   ),
                _F(INST=1.53,
                   RESULTAT=U3,
                   NOM_CHAM='VARI_NOEU',
                   NOEUD='N4',
                   NOM_CMP='V1',
                   VALE_CALC=1.0493478771833E-4,
                   ),
                _F(INST=1.0700000000000001,
                   REFERENCE='ANALYTIQUE',
                   RESULTAT=U3,
                   NOM_CHAM='DEPL',
                   NOEUD='N4',
                   NOM_CMP='DY',
                   VALE_CALC=-5.60000000E-04,
                   VALE_REFE=-5.5999999999998998E-4,
                   PRECISION=1.E-3,),
                _F(INST=1.1599999999999999,
                   REFERENCE='ANALYTIQUE',
                   RESULTAT=U3,
                   NOM_CHAM='DEPL',
                   NOEUD='N4',
                   NOM_CMP='DY',
                   VALE_CALC=-1.28000000E-03,
                   VALE_REFE=-1.2800000000000001E-3,
                   PRECISION=1.E-3,),
                _F(INST=1.3400000000000001,
                   REFERENCE='ANALYTIQUE',
                   RESULTAT=U3,
                   NOM_CHAM='DEPL',
                   NOEUD='N4',
                   NOM_CMP='DY',
                   VALE_CALC=-2.72000000E-03,
                   VALE_REFE=-2.7199999999999E-3,
                   PRECISION=1.E-3,),
                _F(INST=1.53,
                   REFERENCE='ANALYTIQUE',
                   RESULTAT=U3,
                   NOM_CHAM='DEPL',
                   NOEUD='N4',
                   NOM_CMP='DY',
                   VALE_CALC=-4.24000000E-03,
                   VALE_REFE=-4.2399999999999001E-3,
                   PRECISION=1.E-3,),
                ),
          )

#######################################################################

MATER4    = DEFI_MATERIAU(  ELAS      = _F( E           =  1.0E9,
                                     NU          =  0.3,
                                     RHO         =  2764.0,
                                     ALPHA       =  0.0,),
                    DRUCK_PRAGER  = _F( ECROUISSAGE = 'PARABOLIQUE',
                                           ALPHA       =    0.328     ,
                                           DILAT       =    0.328     ,
                                           P_ULTM      =    1.225E-2  ,
                                           SY          =    2.11E6    ,
                                           SY_ULTM     =    1.00E6    ,),);

CHMAT4   = AFFE_MATERIAU(  MAILLAGE = MAILLAGE,
                           AFFE     = _F(  TOUT  = 'OUI',
                                           MATER = MATER4 ));
U4       = STAT_NON_LINE(
                          MODELE     = MODELE,
                          CHAM_MATER = CHMAT4,
                          EXCIT      = (
                                        _F( CHARGE        = CHAR_UM3,),
                                        _F( CHARGE        = DEPL_M5, ),
                                        _F( CHARGE        = DEPL_M2, ),
                                        _F( CHARGE        = DEPL_M4,
                                            FONC_MULT     = COEF2,),),
                         COMPORTEMENT   = _F( RELATION       = 'DRUCK_PRAG_N_A'),
                         NEWTON      = _F( MATRICE        = 'TANGENTE',
                                           REAC_ITER      = 1,),
                         ETAT_INIT   = _F( SIGM           = SIGINIT,),
                         CONVERGENCE = _F( RESI_GLOB_RELA = 1.E-10,
                                           ITER_GLOB_MAXI = 50),
                         INCREMENT   = _F( LIST_INST      = TEMPS,)
                        )

U4=CALC_CHAMP(reuse=U4,CONTRAINTE=('SIGM_ELNO'),VARI_INTERNE=('VARI_ELNO'),DEFORMATION=('EPSI_ELGA','EPSI_ELNO'),RESULTAT=U4)

U4       = CALC_CHAMP( reuse    = U4,
                    RESULTAT = U4,
                    CONTRAINTE='SIGM_NOEU',VARI_INTERNE='VARI_NOEU'
                  )

TEST_RESU(RESU=(_F(INST=1.0700000000000001,
                   RESULTAT=U4,
                   NOM_CHAM='SIGM_NOEU',
                   NOEUD='N4',
                   NOM_CMP='SIYY',
                   VALE_CALC=-6.1538461538460001E5,
                   ),
                _F(INST=1.1599999999999999,
                   RESULTAT=U4,
                   NOM_CHAM='SIGM_NOEU',
                   NOEUD='N4',
                   NOM_CMP='SIYY',
                   VALE_CALC=-1.4065934065934001E6,
                   ),
                _F(INST=1.3400000000000001,
                   RESULTAT=U4,
                   NOM_CHAM='SIGM_NOEU',
                   NOEUD='N4',
                   NOM_CMP='SIYY',
                   VALE_CALC=-2.9890109890108998E6,
                   ),
                _F(INST=1.53,
                   RESULTAT=U4,
                   NOM_CHAM='SIGM_NOEU',
                   NOEUD='N4',
                   NOM_CMP='SIYY',
                   VALE_CALC=-4.6057566374666002E6,
                   ),
                _F(INST=1.0700000000000001,
                   RESULTAT=U4,
                   NOM_CHAM='VARI_NOEU',
                   NOEUD='N4',
                   NOM_CMP='V1',
                   VALE_CALC=0.0,
                   CRITERE='ABSOLU',
                   ),
                _F(INST=1.1599999999999999,
                   RESULTAT=U4,
                   NOM_CHAM='VARI_NOEU',
                   NOEUD='N4',
                   NOM_CMP='V1',
                   VALE_CALC=0.0,
                   ),
                _F(INST=1.3400000000000001,
                   RESULTAT=U4,
                   NOM_CHAM='VARI_NOEU',
                   NOEUD='N4',
                   NOM_CMP='V1',
                   VALE_CALC=0.0,
                   ),
                _F(INST=1.53,
                   RESULTAT=U4,
                   NOM_CHAM='VARI_NOEU',
                   NOEUD='N4',
                   NOM_CMP='V1',
                   VALE_CALC=1.0486981491849E-4,
                   ),
                _F(INST=1.0700000000000001,
                   REFERENCE='ANALYTIQUE',
                   RESULTAT=U4,
                   NOM_CHAM='DEPL',
                   NOEUD='N4',
                   NOM_CMP='DY',
                   VALE_CALC=-5.60000000E-04,
                   VALE_REFE=-5.5999999999998998E-4,
                   PRECISION=1.E-3,),
                _F(INST=1.1599999999999999,
                   REFERENCE='ANALYTIQUE',
                   RESULTAT=U4,
                   NOM_CHAM='DEPL',
                   NOEUD='N4',
                   NOM_CMP='DY',
                   VALE_CALC=-1.28000000E-03,
                   VALE_REFE=-1.2800000000000001E-3,
                   PRECISION=1.E-3,),
                _F(INST=1.3400000000000001,
                   REFERENCE='ANALYTIQUE',
                   RESULTAT=U4,
                   NOM_CHAM='DEPL',
                   NOEUD='N4',
                   NOM_CMP='DY',
                   VALE_CALC=-2.72000000E-03,
                   VALE_REFE=-2.7199999999999E-3,
                   PRECISION=1.E-3,),
                _F(INST=1.53,
                   REFERENCE='ANALYTIQUE',
                   RESULTAT=U4,
                   NOM_CHAM='DEPL',
                   NOEUD='N4',
                   NOM_CMP='DY',
                   VALE_CALC=-4.24000000E-03,
                   VALE_REFE=-4.2399999999999001E-3,
                   PRECISION=1.E-3,),
                ),
          )

FIN();
