# TITRE LOI DE COMPORTEMENT BILINEAIRE SUR UN ELEMENT DISCRET (SOLLICITATION TRIAXIALE)
# ======================================================================
# COPYRIGHT (C) 1991 - 2012  EDF R&D                  WWW.CODE-ASTER.ORG
# THIS PROGRAM IS FREE SOFTWARE; YOU CAN REDISTRIBUTE IT AND/OR MODIFY
# IT UNDER THE TERMS OF THE GNU GENERAL PUBLIC LICENSE AS PUBLISHED BY
# THE FREE SOFTWARE FOUNDATION; EITHER VERSION 2 OF THE LICENSE, OR
# (AT YOUR OPTION) ANY LATER VERSION.
#
# THIS PROGRAM IS DISTRIBUTED IN THE HOPE THAT IT WILL BE USEFUL, BUT
# WITHOUT ANY WARRANTY; WITHOUT EVEN THE IMPLIED WARRANTY OF
# MERCHANTABILITY OR FITNESS FOR A PARTICULAR PURPOSE. SEE THE GNU
# GENERAL PUBLIC LICENSE FOR MORE DETAILS.
#
# YOU SHOULD HAVE RECEIVED A COPY OF THE GNU GENERAL PUBLIC LICENSE
# ALONG WITH THIS PROGRAM; IF NOT, WRITE TO EDF R&D CODE_ASTER,
#    1 AVENUE DU GENERAL DE GAULLE, 92141 CLAMART CEDEX, FRANCE.
# ======================================================================

DEBUT(CODE=_F(NOM='SSND103C',NIV_PUB_WEB='INTERNET'), DEBUG=_F(SDVERI='OUI'))

MaMeca=LIRE_MAILLAGE()

MOMEQ=AFFE_MODELE(
   MAILLAGE=MaMeca,
   AFFE=_F(GROUP_MA='DISC',PHENOMENE='MECANIQUE', MODELISATION='DIS_T'),
)

Kinit= 1.0E+02
CAREL= AFFE_CARA_ELEM(
   MODELE= MOMEQ,
   DISCRET= _F(GROUP_MA= 'DISC',CARA='K_T_D_L',REPERE='LOCAL',
               VALE = (Kinit, Kinit, Kinit,),),
)

ACIER=DEFI_MATERIAU(
   ELAS=_F(E=2.0E+11, NU=0.3, ALPHA=0.0),)

# Liste de temperature pour la definition des nappes
LTEM=DEFI_LIST_REEL(DEBUT=0.0  , INTERVALLE=_F(JUSQU_A= 450.0, PAS=10.0,),)
def RaideurK1L(TEMP):
   xxx = 4.0E+06*(50 - TEMP)
   return xxx
def RaideurK2L(TEMP):
   xxx = 2.0E+06*(50 - TEMP)
   return xxx
#
FRK1L = FORMULE(NOM_PARA=('TEMP') , VALE='RaideurK1L(TEMP)');
FRK2L = FORMULE(NOM_PARA=('TEMP') , VALE='RaideurK2L(TEMP)');
#
RK1L = CALC_FONC_INTERP(FONCTION = FRK1L, NOM_RESU ='RK1L', NOM_PARA = 'TEMP',
   LIST_PARA = LTEM, PROL_DROITE ='LINEAIRE', PROL_GAUCHE ='LINEAIRE',)
RK2L = CALC_FONC_INTERP(FONCTION = FRK2L, NOM_RESU ='RK2L', NOM_PARA = 'TEMP',
   LIST_PARA = LTEM, PROL_DROITE ='LINEAIRE', PROL_GAUCHE ='LINEAIRE',)

def RaideurK1L_Z(TEMP):
   xxx = 2.0E+06*(50 - TEMP)
   return xxx
def RaideurK2L_Z(TEMP):
   xxx = 1.0E+06*(50 - TEMP)
   return xxx
#
FRK1L_Z = FORMULE(NOM_PARA=('TEMP') , VALE='RaideurK1L_Z(TEMP)');
FRK2L_Z = FORMULE(NOM_PARA=('TEMP') , VALE='RaideurK2L_Z(TEMP)');
#
RK1L_Z = CALC_FONC_INTERP(FONCTION = FRK1L_Z, NOM_RESU ='RK1L_Z', NOM_PARA = 'TEMP',
   LIST_PARA = LTEM, PROL_DROITE ='LINEAIRE', PROL_GAUCHE ='LINEAIRE',)
RK2L_Z = CALC_FONC_INTERP(FONCTION = FRK2L_Z, NOM_RESU ='RK2L_Z', NOM_PARA = 'TEMP',
   LIST_PARA = LTEM, PROL_DROITE ='LINEAIRE', PROL_GAUCHE ='LINEAIRE',)


chth00 = CREA_CHAMP(TYPE_CHAM='NOEU_TEMP_R',OPERATION='AFFE',MAILLAGE=MaMeca,
      AFFE=_F(TOUT='OUI', NOM_CMP = 'TEMP', VALE = 0.0, ),)
# Definition du champ thermique
TEMPER=CREA_RESU(OPERATION='AFFE',TYPE_RESU='EVOL_THER',NOM_CHAM ='TEMP',
   AFFE=(
      _F(CHAM_GD=chth00,INST=  0.0 ),
      _F(CHAM_GD=chth00,INST= 10.0 ),
   ),
)

DISCR=DEFI_MATERIAU(
   ELAS=_F(E=2.0E+11, NU=0.3, ALPHA=0.0),
   DIS_BILI_ELAS= _F(KDEB_DX=RK1L, KFIN_DX=RK2L,     FPRE_DX=5E+04,
                     KDEB_DY=RK1L, KFIN_DY=RK2L,     FPRE_DY=5E+04,
                     KDEB_DZ=RK1L_Z, KFIN_DZ=RK2L_Z, FPRE_DZ=5E+04,
                     ),
)

CHMAT=AFFE_MATERIAU(
   MAILLAGE=MaMeca,
   AFFE_VARC=_F(TOUT='OUI',EVOL=TEMPER,NOM_VARC='TEMP',VALE_REF=0.0),
   AFFE=_F(TOUT='OUI',MATER=DISCR),
)

ZERO=DEFI_CONSTANTE(VALE=0.0,);

FSerraXY=DEFI_FONCTION(
   NOM_PARA='INST',
   VALE=(    0.0,  0.0,
            10.0,  0.001,),
   PROL_DROITE='CONSTANT',
   PROL_GAUCHE='CONSTANT',
)

CLIM=AFFE_CHAR_MECA_F(
   MODELE=MOMEQ,
   DDL_IMPO=(
      _F(GROUP_NO='PT1',DX=ZERO,DY=ZERO,DZ=ZERO,),
      _F(GROUP_NO='PT2',DX=FSerraXY,DY=FSerraXY,DZ=FSerraXY,),
   ),
)

linst=DEFI_LIST_REEL(
   DEBUT= 0.0,
   INTERVALLE=_F(JUSQU_A= 10.0, NOMBRE= 10,),
)


CALCULG=STAT_NON_LINE(
   MODELE    = MOMEQ,
   CHAM_MATER= CHMAT,
   CARA_ELEM= CAREL,
   EXCIT=_F(CHARGE=CLIM),
   INCREMENT=_F(LIST_INST=linst),
   ARCHIVAGE=_F(LIST_INST=linst),
   COMPORTEMENT=_F(RELATION='DIS_BILI_ELAS',TOUT='OUI',),
)

CALCULG = CALC_CHAMP(
   reuse         = CALCULG,

   RESULTAT      = CALCULG,

   FORCE='REAC_NODA',
)

#IMPR_RESU(RESU=_F(RESULTAT=CALCULG))
TEST_RESU(RESU=(_F(INST=2.0,
                   REFERENCE='ANALYTIQUE',
                   RESULTAT=CALCULG,
                   NOM_CHAM='REAC_NODA',
                   NOEUD='N2',
                   NOM_CMP='DX',
                   VALE_CALC= 4.00000000E+04,
                   VALE_REFE=4.E4,
                   PRECISION=1.E-08,),
                _F(INST=2.0,
                   REFERENCE='ANALYTIQUE',
                   RESULTAT=CALCULG,
                   NOM_CHAM='REAC_NODA',
                   NOEUD='N2',
                   NOM_CMP='DY',
                   VALE_CALC= 4.00000000E+04,
                   VALE_REFE=4.E4,
                   PRECISION=1.E-08,),
                _F(INST=2.0,
                   REFERENCE='ANALYTIQUE',
                   RESULTAT=CALCULG,
                   NOM_CHAM='REAC_NODA',
                   NOEUD='N2',
                   NOM_CMP='DZ',
                   VALE_CALC= 2.00000000E+04,
                   VALE_REFE=2.E4,
                   PRECISION=1.E-08,),
                _F(INST=8.0,
                   REFERENCE='ANALYTIQUE',
                   RESULTAT=CALCULG,
                   NOM_CHAM='REAC_NODA',
                   NOEUD='N2',
                   NOM_CMP='DX',
                   VALE_CALC= 1.05000000E+05,
                   VALE_REFE=1.05000E5,
                   PRECISION=1.E-08,),
                _F(INST=8.0,
                   REFERENCE='ANALYTIQUE',
                   RESULTAT=CALCULG,
                   NOM_CHAM='REAC_NODA',
                   NOEUD='N2',
                   NOM_CMP='DY',
                   VALE_CALC= 1.05000000E+05,
                   VALE_REFE=1.05000E5,
                   PRECISION=1.E-08,),
                _F(INST=8.0,
                   REFERENCE='ANALYTIQUE',
                   RESULTAT=CALCULG,
                   NOM_CHAM='REAC_NODA',
                   NOEUD='N2',
                   NOM_CMP='DZ',
                   VALE_CALC= 6.50000000E+04,
                   VALE_REFE=6.5000E4,
                   PRECISION=1.E-08,),
                ),
          )

FIN()
