
# MODIF  DATE 16/10/2007   AUTEUR SALMONA L.SALMONA 
# TITRE BARRE ENCASTREE A UNE EXTREMITE ET CHARGEE PAR UNE TRACTION
#            CONFIGURATION MANAGEMENT OF EDF VERSION
# ======================================================================
# COPYRIGHT (C) 1991 - 2004  EDF R&D                  WWW.CODE-ASTER.ORG
# THIS PROGRAM IS FREE SOFTWARE; YOU CAN REDISTRIBUTE IT AND/OR MODIFY
# IT UNDER THE TERMS OF THE GNU GENERAL PUBLIC LICENSE AS PUBLISHED BY
# THE FREE SOFTWARE FOUNDATION; EITHER VERSION 2 OF THE LICENSE, OR
# (AT YOUR OPTION) ANY LATER VERSION.
#
# THIS PROGRAM IS DISTRIBUTED IN THE HOPE THAT IT WILL BE USEFUL, BUT
# WITHOUT ANY WARRANTY; WITHOUT EVEN THE IMPLIED WARRANTY OF
# MERCHANTABILITY OR FITNESS FOR A PARTICULAR PURPOSE. SEE THE GNU
# GENERAL PUBLIC LICENSE FOR MORE DETAILS.
#
# YOU SHOULD HAVE RECEIVED A COPY OF THE GNU GENERAL PUBLIC LICENSE
# ALONG WITH THIS PROGRAM; IF NOT, WRITE TO EDF R&D CODE_ASTER,
#    1 AVENUE DU GENERAL DE GAULLE, 92141 CLAMART CEDEX, FRANCE.
# ======================================================================
#            CONFIGURATION MANAGEMENT OF EDF VERSION
# ======================================================================

DEBUT(CODE=_F(NOM='SSNL127A', NIV_PUB_WEB='INTERNET'), DEBUG=_F(SDVERI='OUI'))

MA=LIRE_MAILLAGE();

MO=AFFE_MODELE(MAILLAGE=MA,
               AFFE=_F(TOUT='OUI',
                       PHENOMENE='MECANIQUE',
                       MODELISATION='BARRE',),);

CAREL=AFFE_CARA_ELEM(MODELE=MO,
                     VERIF='MAILLE',
                     BARRE=_F(GROUP_MA='TOUT',
                              SECTION='GENERALE',
                              CARA='A',
                              VALE=2.827e-05,),);
# ------ TRACTION SIMPLE AVEC ECROUISSAGE ------------------------------
# AFFECTE SUR LA SECTION CERCLE

MATC2=DEFI_MATERIAU(ELAS=_F(E=200000000000.0,
                            NU=0.3,),
                    CORR_ACIER=_F(D_CORR=0.2,
                                  ECRO_K=500000000.0,
                                  ECRO_M=2.781,
                                  SY=500000000.0,),);

CHART=AFFE_CHAR_MECA(MODELE=MO,
                     DDL_IMPO=(_F(GROUP_NO='A',
                                  DX=0.0,
                                  DY=0.0,
                                  DZ=0.0,),
                               _F(GROUP_NO='A1',
                                  DY=0.0,
                                  DZ=0.0,),
                               _F(GROUP_NO='A2',
                                  DY=0.0,
                                  DZ=0.0,),
                               _F(GROUP_NO='A3',
                                  DY=0.0,
                                  DZ=0.0,),
                               _F(GROUP_NO='A4',
                                  DY=0.0,
                                  DZ=0.0,),
                               _F(GROUP_NO='A5',
                                  DY=0.0,
                                  DZ=0.0,),
                               _F(GROUP_NO='A6',
                                  DY=0.0,
                                  DZ=0.0,),
                               _F(GROUP_NO='A7',
                                  DY=0.0,
                                  DZ=0.0,),
                               _F(GROUP_NO='A8',
                                  DY=0.0,
                                  DZ=0.0,),
                               _F(GROUP_NO='A9',
                                  DY=0.0,
                                  DZ=0.0,),
                               _F(GROUP_NO='A9',
                                  DY=0.0,
                                  DZ=0.0,),
                               _F(GROUP_NO='B',
                                  DX=1.0,
                                  DY=0.0,
                                  DZ=0.0,),),);

FONCT=DEFI_FONCTION(NOM_PARA='INST',
                    VALE=(0.0,0.0,1.0,1.0,),);
#

CHCOR=CREA_CHAMP(TYPE_CHAM='CART_CORR_R',
                 OPERATION='AFFE',
                 MAILLAGE=MA,
                 AFFE=_F(
                 TOUT='OUI',
                 NOM_CMP='CORR',
                 VALE=0.0,),);

LINST=DEFI_LIST_REEL(DEBUT=0.0,
                     INTERVALLE=(_F(JUSQU_A=0.002,
                                    NOMBRE=10,),
                                 _F(JUSQU_A=0.018,
                                    NOMBRE=20,),
                                 _F(JUSQU_A=0.02,
                                    NOMBRE=10,),),);

CHMAT1=AFFE_MATERIAU(   MAILLAGE=MA,
      AFFE=       _F( GROUP_MA = 'TOUT', MATER = MATC2),
      AFFE_VARC=_F(NOM_VARC='CORR', CHAMP_GD=CHCOR,), )

REST=STAT_NON_LINE(MODELE=MO,
                   CHAM_MATER=CHMAT1,
                   CARA_ELEM=CAREL,
                   EXCIT=_F(CHARGE=CHART,
                            FONC_MULT=FONCT,),
                   COMP_INCR=_F(RELATION='CORR_ACIER',
                                GROUP_MA='TOUT',
                                RESI_INTE_RELA=1e-06,
                                ITER_INTE_MAXI=150),
                   INCREMENT=_F(LIST_INST=LINST,
                                SUBD_METHODE='UNIFORME', SUBD_PAS=4,
                                SUBD_PAS_MINI=1e-06,),
                   NEWTON=_F(REAC_INCR=1,
                             PREDICTION='ELASTIQUE',
                             MATRICE='TANGENTE',
                             REAC_ITER=3,),
                   RECH_LINEAIRE=_F(ITER_LINE_MAXI=3,
                                    RHO_MIN=1e-06,
                                    RHO_MAX=10.0,),
                   CONVERGENCE=_F(RESI_GLOB_RELA=1e-05,
                                  ITER_GLOB_MAXI=10),
                   ARCHIVAGE=_F(ARCH_ETAT_INIT='OUI',),);

NdeU=RECU_FONCTION(RESULTAT=REST,
                   NOM_CHAM='SIEF_ELGA',
                   NOM_CMP='N',
                   MAILLE='SR1',
                   POINT=1,);

DdeU=RECU_FONCTION(RESULTAT=REST,
                   NOM_CHAM='VARI_ELGA',
                   NOM_CMP='V2',
                   MAILLE='SR1',
                   POINT=1,);

PdeU=RECU_FONCTION(RESULTAT=REST,
                   NOM_CHAM='VARI_ELGA',
                   NOM_CMP='V1',
                   MAILLE='SR1',
                   POINT=1,);

IMPR_FONCTION(FORMAT='TABLEAU',
              COURBE=_F(FONCTION=NdeU,),
              UNITE=8,);

IMPR_FONCTION(FORMAT='TABLEAU',
              COURBE=_F(FONCTION=PdeU,),
              UNITE=8,);

IMPR_FONCTION(FORMAT='TABLEAU',
              COURBE=_F(FONCTION=DdeU,),
              UNITE=8,);

CHCOR2=CREA_CHAMP(TYPE_CHAM='CART_CORR_R',
                  OPERATION='AFFE',
                  MAILLAGE=MA,
                  AFFE=_F(
                  TOUT='OUI',
                  NOM_CMP='CORR',
                  VALE=2.5,),);

LINST2=DEFI_LIST_REEL(DEBUT=0.0,
                      INTERVALLE=(_F(JUSQU_A=0.002,
                                     NOMBRE=10,),
                                  _F(JUSQU_A=0.018,
                                     NOMBRE=20,),),);

CHMAT2=AFFE_MATERIAU(   MAILLAGE=MA,
      AFFE=       _F( GROUP_MA = 'TOUT', MATER = MATC2),
      AFFE_VARC=_F(NOM_VARC='CORR', CHAMP_GD=CHCOR2,), )

REST2=STAT_NON_LINE(MODELE=MO,
                    CHAM_MATER=CHMAT2,
                    CARA_ELEM=CAREL,
                    EXCIT=_F(CHARGE=CHART,
                             FONC_MULT=FONCT,),
                    COMP_INCR=_F(RELATION='CORR_ACIER',
                                 GROUP_MA='TOUT',
                                 RESI_INTE_RELA=1e-06,
                                 ITER_INTE_MAXI=15,),
                    INCREMENT=_F(LIST_INST=LINST2,
                                 SUBD_METHODE='UNIFORME', SUBD_PAS=4,
                                 SUBD_PAS_MINI=1e-06,),
                    NEWTON=_F(REAC_INCR=1,
                              PREDICTION='ELASTIQUE',
                              MATRICE='TANGENTE',
                              PAS_MINI_ELAS=0.0001,
                              REAC_ITER=3,),
                    RECH_LINEAIRE=_F(ITER_LINE_MAXI=3,
                                     RHO_MIN=1e-06,
                                     RHO_MAX=10.0,),
                    CONVERGENCE=_F(RESI_GLOB_RELA=1e-06,
                                   ITER_GLOB_MAXI=10,
                                   ITER_GLOB_ELAS=10,),
                    ARCHIVAGE=_F(ARCH_ETAT_INIT='OUI',),);

NdeU2=RECU_FONCTION(RESULTAT=REST2,
                    NOM_CHAM='SIEF_ELGA',
                    NOM_CMP='N',
                    MAILLE='SR1',
                    POINT=1,);

DdeU2=RECU_FONCTION(RESULTAT=REST2,
                    NOM_CHAM='VARI_ELGA',
                    NOM_CMP='V2',
                    MAILLE='SR1',
                    POINT=1,);

PdeU2=RECU_FONCTION(RESULTAT=REST2,
                    NOM_CHAM='VARI_ELGA',
                    NOM_CMP='V1',
                    MAILLE='SR1',
                    POINT=1,);

IMPR_FONCTION(FORMAT='TABLEAU',
              COURBE=_F(FONCTION=NdeU2,),
              UNITE=8,);

IMPR_FONCTION(FORMAT='TABLEAU',
              COURBE=_F(FONCTION=PdeU2,),
              UNITE=8,);

IMPR_FONCTION(FORMAT='TABLEAU',
              COURBE=_F(FONCTION=DdeU2,),
              UNITE=8,);

CHCOR3=CREA_CHAMP(TYPE_CHAM='CART_CORR_R',
                  OPERATION='AFFE',
                  MAILLAGE=MA,
                  AFFE=_F(
                  TOUT='OUI',
                  NOM_CMP='CORR',
                  VALE=13.0,),);

LINST3=DEFI_LIST_REEL(DEBUT=0.0,
                      INTERVALLE=(_F(JUSQU_A=0.003,
                                     NOMBRE=10,),
                                  _F(JUSQU_A=0.008,
                                     NOMBRE=30,),),);

CHMAT3=AFFE_MATERIAU(   MAILLAGE=MA,
      AFFE=       _F( GROUP_MA = 'TOUT', MATER = MATC2),
      AFFE_VARC=_F(NOM_VARC='CORR', CHAMP_GD=CHCOR3,), )

REST3=STAT_NON_LINE(MODELE=MO,
                    CHAM_MATER=CHMAT3,
                    CARA_ELEM=CAREL,
                    EXCIT=_F(CHARGE=CHART,
                             FONC_MULT=FONCT,),
                    COMP_INCR=_F(RELATION='CORR_ACIER',
                                 GROUP_MA='TOUT',
                                 RESI_INTE_RELA=1e-06,
                                 ITER_INTE_MAXI=15,),
                    INCREMENT=_F(LIST_INST=LINST3,
                                 SUBD_METHODE='UNIFORME', SUBD_PAS=4,
                                 SUBD_PAS_MINI=1e-06,),
                    NEWTON=_F(REAC_INCR=1,
                              PREDICTION='ELASTIQUE',
                              MATRICE='TANGENTE',
                              PAS_MINI_ELAS=0.0001,
                              REAC_ITER=3,),
                    RECH_LINEAIRE=_F(ITER_LINE_MAXI=3,
                                     RHO_MIN=1e-06,
                                     RHO_MAX=10.0,),
                    CONVERGENCE=_F(RESI_GLOB_RELA=1e-06,
                                   ITER_GLOB_MAXI=10,
                                   ITER_GLOB_ELAS=10,),
                    ARCHIVAGE=_F(ARCH_ETAT_INIT='OUI',),);

NdeU3=RECU_FONCTION(RESULTAT=REST3,
                    NOM_CHAM='SIEF_ELGA',
                    NOM_CMP='N',
                    MAILLE='SR1',
                    POINT=1,);

DdeU3=RECU_FONCTION(RESULTAT=REST3,
                    NOM_CHAM='VARI_ELGA',
                    NOM_CMP='V2',
                    MAILLE='SR1',
                    POINT=1,);

PdeU3=RECU_FONCTION(RESULTAT=REST3,
                    NOM_CHAM='VARI_ELGA',
                    NOM_CMP='V1',
                    MAILLE='SR1',
                    POINT=1,);

IMPR_FONCTION(FORMAT='TABLEAU',
              COURBE=_F(FONCTION=NdeU3,),
              UNITE=8,);

IMPR_FONCTION(FORMAT='TABLEAU',
              COURBE=_F(FONCTION=PdeU3,),
              UNITE=8,);

IMPR_FONCTION(FORMAT='TABLEAU',
              COURBE=_F(FONCTION=DdeU3,),
              UNITE=8,);

TEST_RESU(RESU=(_F(RESULTAT=REST,
                   INST=0.019,
                   NOM_CHAM='SIEF_ELGA',
                   NOM_CMP='N',
                   MAILLE='SR1',
                   POINT=1,
                   VALE=2.18571E+04,
                   PRECISION=0.0001,
                   REFERENCE='NON_REGRESSION',),
                _F(RESULTAT=REST,
                   INST=0.02,
                   NOM_CHAM='SIEF_ELGA',
                   NOM_CMP='N',
                   MAILLE='SR1',
                   POINT=1,
                   VALE=2.11937E+04,
                   PRECISION=0.0001,
                   REFERENCE='NON_REGRESSION',
                   VERSION='NEW8',),
                _F(RESULTAT=REST,
                   INST=0.02,
                   NOM_CHAM='VARI_ELGA',
                   NOM_CMP='V1',
                   MAILLE='SR1',
                   POINT=1,
                   VALE=1.96252E-01,
                   PRECISION=0.0001,
                   REFERENCE='NON_REGRESSION',
                   VERSION='NEW8',),
                _F(RESULTAT=REST,
                   INST=0.0192,
                   NOM_CHAM='VARI_ELGA',
                   NOM_CMP='V2',
                   MAILLE='SR1',
                   POINT=1,
                   VALE=2.29350E-03,
                   PRECISION=0.0001,
                   REFERENCE='NON_REGRESSION',
                   VERSION='NEW8',),),);

TEST_RESU(RESU=(_F(RESULTAT=REST2,
                   INST=0.0164,
                   NOM_CHAM='SIEF_ELGA',
                   NOM_CMP='N',
                   MAILLE='SR1',
                   POINT=1,
                   VALE=2.14516E+04,
                   PRECISION=0.0001,
                   REFERENCE='NON_REGRESSION',),
                _F(RESULTAT=REST2,
                   INST=0.018,
                   NOM_CHAM='SIEF_ELGA',
                   NOM_CMP='N',
                   MAILLE='SR1',
                   POINT=1,
                   VALE=2.05576E+04,
                   PRECISION=0.0001,
                   REFERENCE='NON_REGRESSION',
                   VERSION='NEW8',),
                _F(RESULTAT=REST2,
                   INST=1.80000E-02 ,
                   NOM_CHAM='VARI_ELGA',
                   NOM_CMP='V1',
                   MAILLE='SR1',
                   POINT=1,
                   VALE=1.76364E-01,
                   PRECISION=0.0001,
                   REFERENCE='NON_REGRESSION',
                   VERSION='NEW8',),
                _F(RESULTAT=REST2,
                   INST=1.72000E-02,
                   NOM_CHAM='VARI_ELGA',
                   NOM_CMP='V2',
                   MAILLE='SR1',
                   POINT=1,
                   VALE=1.37138E-02,
                   PRECISION=0.0001,
                   REFERENCE='NON_REGRESSION',
                   VERSION='NEW8',),),);


TEST_RESU(RESU=(_F(RESULTAT=REST3,
                   INST=7.50000E-03,
                   NOM_CHAM='SIEF_ELGA',
                   NOM_CMP='N',
                   MAILLE='SR1',
                   POINT=1,
                   VALE=1.96101E+04,
                   PRECISION=0.0001,
                   REFERENCE='NON_REGRESSION',),
                _F(RESULTAT=REST3,
                   INST=8.00000E-03,
                   NOM_CHAM='SIEF_ELGA',
                   NOM_CMP='N',
                   MAILLE='SR1',
                   POINT=1,
                   VALE=1.87586E+04,
                   PRECISION=0.0001,
                   REFERENCE='NON_REGRESSION',
                   VERSION='NEW8',),
                _F(RESULTAT=REST3,
                   INST=8.00000E-03 ,
                   NOM_CHAM='VARI_ELGA',
                   NOM_CMP='V1',
                   MAILLE='SR1',
                   POINT=1,
                   VALE=7.66822E-02,
                   PRECISION=0.0001,
                   REFERENCE='NON_REGRESSION',
                   VERSION='NEW8',),
                _F(RESULTAT=REST3,
                   INST=7.66667E-03,
                   NOM_CHAM='VARI_ELGA',
                   NOM_CMP='V2',
                   MAILLE='SR1',
                   POINT=1,
                   VALE=1.18779E-02,
                   PRECISION=0.0001,
                   REFERENCE='NON_REGRESSION',
                   VERSION='NEW8',),),);

IMPR_FONCTION(FORMAT='XMGRACE',
              PILOTE='POSTSCRIPT',UNITE=24,
              COURBE=(_F(FONCTION=NdeU,
                         LEGENDE='O% CORROSION',),
                      _F(FONCTION=NdeU2,
                         LEGENDE='2.5% CORROSION',),
                      _F(FONCTION=NdeU3,
                         LEGENDE='13% CORROSION',),),);

FIN();
