# MODIF  DATE 23/10/2012   AUTEUR DELMAS J.DELMAS 
# RESPONSABLE PROIX J.M.PROIX
# TITRE COUDE EN FLEXION EN ELASTOPLASTICITE
# ssnl117b.para = tps_job 60 mem_job 512Mo ncpus 1 liste_test R
#            CONFIGURATION MANAGEMENT OF EDF VERSION
# ======================================================================
# COPYRIGHT (C) 1991 - 2012  EDF R&D                  WWW.CODE-ASTER.ORG
# THIS PROGRAM IS FREE SOFTWARE; YOU CAN REDISTRIBUTE IT AND/OR MODIFY
# IT UNDER THE TERMS OF THE GNU GENERAL PUBLIC LICENSE AS PUBLISHED BY
# THE FREE SOFTWARE FOUNDATION; EITHER VERSION 2 OF THE LICENSE, OR
# (AT YOUR OPTION) ANY LATER VERSION.
#
# THIS PROGRAM IS DISTRIBUTED IN THE HOPE THAT IT WILL BE USEFUL, BUT
# WITHOUT ANY WARRANTY; WITHOUT EVEN THE IMPLIED WARRANTY OF
# MERCHANTABILITY OR FITNESS FOR A PARTICULAR PURPOSE. SEE THE GNU
# GENERAL PUBLIC LICENSE FOR MORE DETAILS.
#
# YOU SHOULD HAVE RECEIVED A COPY OF THE GNU GENERAL PUBLIC LICENSE
# ALONG WITH THIS PROGRAM; IF NOT, WRITE TO EDF R&D CODE_ASTER,
#    1 AVENUE DU GENERAL DE GAULLE, 92141 CLAMART CEDEX, FRANCE.
# ======================================================================
# GEOMETRIE PROCHE DU CPP N4

from Contrib.macro_rota_globale import MACR_ROTA_GLOBALE

DEBUT(CODE=_F(NOM='SSNL117B', NIV_PUB_WEB='INTERNET', VISU_EFICAS='NON'), DEBUG=_F(SDVERI='OUI'))

MOMENTMZ=1.

PRESSION=0.

EP=0.077

RMOY=0.3955

RMOYN=-RMOY

REXT=RMOY + (EP/2.)

RC=1.25

YOUNG=2.E11

POISSON=0.3

SIGY=200.E6

H=2.E10

MLSURMLS=0.8

RINT=RMOY - (EP/2.)

LAMBDA=EP*RC/RMOY/RMOY

SURF=pi* (REXT*REXT-RINT*RINT)

IY=pi*(REXT**4-RINT**4)/4.

IZ=IY

IX=IY + IZ

MEDR=SIGY*IY/REXT

MPDR=4.0*MEDR/pi

MPX=SIGY*IX/REXT

GAMMA=RC/RMOY

STHETA1=1.89/(LAMBDA**(0.666667))

STHETA2=0.96/(LAMBDA**(0.333333))/GAMMA

STHETA=STHETA1 - STHETA2

MEFL=MEDR / STHETA

MPFL=MPDR * MLSURMLS

M1=LIRE_MAILLAGE()

M1=DEFI_GROUP( reuse=M1,   MAILLAGE=M1,
  CREA_GROUP_MA=_F(  NOM = 'TOUT', TOUT = 'OUI'))

MA=CREA_MAILLAGE(     MAILLAGE=M1,
       MODI_MAILLE=_F(  OPTION = 'SEG3_4', TOUT = 'OUI')
)

MA=DEFI_GROUP(reuse=MA,  MAILLAGE=MA,
                 CREA_GROUP_NO=_F( GROUP_MA = 'AD'))

MO=AFFE_MODELE(        MAILLAGE=MA,
     AFFE=_F(  TOUT = 'OUI',   PHENOMENE = 'MECANIQUE',
     MODELISATION = 'TUYAU_3M')
               )

CAREL=AFFE_CARA_ELEM(   MODELE=MO,
          POUTRE=( _F( GROUP_MA = 'TOUT', SECTION = 'CERCLE', TUYAU_NCOU=1,
                       CARA = (   'R',  'EP', ), VALE = (  REXT,  EP, ),MODI_METRIQUE = 'OUI'),
                   _F( GROUP_MA = 'BC', SECTION = 'CERCLE', TUYAU_NCOU=3,
                       CARA = (   'R',  'EP', ), VALE = (  REXT,  EP, ),MODI_METRIQUE = 'OUI'),),

          ORIENTATION=_F( GROUP_NO = 'D', CARA = 'GENE_TUYAU', VALE = (0., 0., 1.,))
                              )

MAT=DEFI_MATERIAU(    ELAS=_F( E = YOUNG, NU = POISSON),
                         ECRO_LINE=_F( D_SIGM_EPSI = H, SY = SIGY)
                        )

CHMAT=AFFE_MATERIAU(   MAILLAGE=MA,
                       AFFE=_F( TOUT = 'OUI', MATER = MAT))

EFOND=pi*PRESSION*RINT*RINT

CHART=AFFE_CHAR_MECA(  MODELE=MO,
     DDL_IMPO=_F( GROUP_NO = 'A', DX = 0., DY = 0., DZ = 0., DRX = 0., DRY = 0., DRZ = 0.),
     FORCE_NODALE=_F( GROUP_NO = 'D', MZ = MOMENTMZ)
    )

CHARP=AFFE_CHAR_MECA(   MODELE=MO,
     FORCE_NODALE=_F( GROUP_NO = 'D', FX = EFOND),
        FORCE_TUYAU=_F(  TOUT = 'OUI',
                   PRES = PRESSION)
                  )

FONCT=DEFI_FONCTION(   NOM_PARA='INST',
                      VALE=( 0., 0., MPFL, MPFL, ) )

LINST=DEFI_LIST_REEL(DEBUT=0.,INTERVALLE=(
               _F( JUSQU_A = MEFL, NOMBRE = 1),
               _F( JUSQU_A = MPFL, NOMBRE = 10))
                        )

U1=STAT_NON_LINE(
                            MODELE=MO,
                        CHAM_MATER=CHMAT,
                         CARA_ELEM=CAREL,EXCIT=(
                             _F(
                CHARGE = CHART,
                FONC_MULT = FONCT), _F(
                CHARGE = CHARP)),
                         INCREMENT=_F(
                LIST_INST = LINST,
                NUME_INST_FIN = 8
                ),COMP_INCR=(
                         _F( GROUP_MA = 'BC',  RELATION = 'VMIS_ISOT_LINE',
                             RESI_INTE_RELA = 1.E-6 ),
                         _F( GROUP_MA = ( 'AB',  'CD',), RELATION = 'ELAS', )),
                            NEWTON=_F(
                MATRICE = 'TANGENTE',
                REAC_ITER = 3),
                       CONVERGENCE=_F(
                RESI_GLOB_RELA = 1.E-4,
                ITER_GLOB_MAXI = 100),
                     RECH_LINEAIRE=_F(
                ITER_LINE_MAXI = 3)
              )

U1=CALC_CHAMP(reuse=U1,
              RESULTAT=U1,
              CRITERES=('SIEQ_ELGA','EPEQ_ELGA'),
              VARI_INTERNE=('VARI_ELNO'),
              DEFORMATION=('EPSI_ELGA','DEGE_ELNO'),
              CONTRAINTE=('EFGE_ELNO'),);

IMPR_RESU(RESU=_F(RESULTAT=U1, NOM_CHAM='SIEQ_ELGA',
                  NOM_CMP='VMIS',
                  VALE_MAX='OUI',VALE_MIN='OUI',
                  GROUP_MA='AB',NUME_ORDRE=4),)

IMPR_RESU(RESU=_F(RESULTAT=U1, NOM_CHAM='SIEQ_ELGA',
                  NOM_CMP='VMIS',
                  VALE_MAX='OUI',VALE_MIN='OUI',
                  MAILLE=('M1','M2'),NUME_ORDRE=4,
                  BORNE_SUP=1.1E8,BORNE_INF=1.0E+8),)

U1=CALC_CHAMP( reuse=U1,
            FORCE='FORC_NODA',
            RESULTAT=U1,
            )

# CALCUL DE LA ROTATION "GLOBALE" DANS LE COUDE EN FONCTION DE L INSTANT

RG = MACR_ROTA_GLOBALE( RESULTAT=U1,
                        GROUP_NO_ORIG='B',
                        GROUP_NO_EXTR='C',
                      )

TEST_FONCTION(VALEUR=_F(VALE_CALC=0.00926450047989,
                        VALE_REFE=9.2645100000000001E-3,
                        VALE_PARA=5.889810E6,
                        REFERENCE='AUTRE_ASTER',
                        FONCTION=RG,),
              )

# REFERENCE : CALCUL 3D-POUTRES

TEST_RESU(RESU=(_F(NUME_ORDRE=1,
                   GROUP_NO='D',
                   REFERENCE='AUTRE_ASTER',
                   RESULTAT=U1,
                   NOM_CHAM='FORC_NODA',
                   NOM_CMP='DRZ',
                   VALE_CALC= 3.08670215E+06,
                   VALE_REFE=3.086700E6,),
                _F(NUME_ORDRE=1,
                   GROUP_NO='D',
                   REFERENCE='AUTRE_ASTER',
                   RESULTAT=U1,
                   NOM_CHAM='DEPL',
                   NOM_CMP='DY',
                   VALE_CALC=0.010972327,
                   VALE_REFE=0.010934899999999999,
                   PRECISION=0.029999999999999999,),
                _F(NUME_ORDRE=8,
                   GROUP_NO='D',
                   REFERENCE='AUTRE_ASTER',
                   RESULTAT=U1,
                   NOM_CHAM='FORC_NODA',
                   NOM_CMP='DRZ',
                   VALE_CALC= 5.88981326E+06,
                   VALE_REFE=5.889810E6,),
                _F(NUME_ORDRE=8,
                   GROUP_NO='D',
                   REFERENCE='AUTRE_ASTER',
                   RESULTAT=U1,
                   NOM_CHAM='DEPL',
                   NOM_CMP='DY',
                   VALE_CALC=0.021841320,
                   VALE_REFE=0.022083599999999998,
                   PRECISION=0.029999999999999999,),
                ),
          )

TEST_RESU(RESU=(_F(NUME_ORDRE=1,
                   GROUP_NO='A',
                   REFERENCE='AUTRE_ASTER',
                   RESULTAT=U1,
                   NOM_CHAM='FORC_NODA',
                   NOM_CMP='DRZ',
                   VALE_CALC=-3.08670215E+06,
                   VALE_REFE=-3.086700E6,),
                _F(NUME_ORDRE=8,
                   GROUP_NO='A',
                   REFERENCE='AUTRE_ASTER',
                   RESULTAT=U1,
                   NOM_CHAM='FORC_NODA',
                   NOM_CMP='DRZ',
                   VALE_CALC=-5.88981326E+06,
                   VALE_REFE=-5.889810E6,),
                ),
          )

# NON REGRESSION


TEST_RESU(RESU=(_F(NUME_ORDRE=1,
                   GROUP_NO='D',
                   RESULTAT=U1,
                   NOM_CHAM='DEPL',
                   NOM_CMP='DY',
                   VALE_CALC=0.010970891398655,
                   TOLE_MACHINE=1.E-3,),
                _F(NUME_ORDRE=8,
                   GROUP_NO='D',
                   RESULTAT=U1,
                   NOM_CHAM='DEPL',
                   NOM_CMP='DY',
                   VALE_CALC=0.021850083894570001,
                   TOLE_MACHINE=1.E-3,),
                ),
          )

TEST_RESU(RESU=(_F(NUME_ORDRE=1,
                   REFERENCE='NON_DEFINI',
                   POINT=2,
                   SOUS_POINT=61,
                   RESULTAT=U1,
                   NOM_CHAM='SIEQ_ELGA',
                   NOM_CMP='VMIS',
                   VALE_CALC= 4.67555458E+07,
                   VALE_REFE=4.6755545829999998E7,
                   PRECISION=1.E-2,
                   MAILLE='M1',),
                _F(NUME_ORDRE=3,
                   REFERENCE='NON_DEFINI',
                   POINT=3,
                   SOUS_POINT=55,
                   RESULTAT=U1,
                   NOM_CHAM='SIEQ_ELGA',
                   NOM_CMP='VMIS',
                   VALE_CALC= 5.60814117E+07,
                   VALE_REFE=5.6081411689999998E7,
                   PRECISION=1.E-2,
                   MAILLE='M1',),
                _F(NUME_ORDRE=8,
                   REFERENCE='NON_DEFINI',
                   POINT=2,
                   SOUS_POINT=98,
                   RESULTAT=U1,
                   NOM_CHAM='SIEQ_ELGA',
                   NOM_CMP='VMIS_SG',
                   VALE_CALC=-1.55006532E+08,
                   VALE_REFE=-1.5500653230000001E8,
                   PRECISION=1.E-2,
                   MAILLE='M1',),
                _F(NUME_ORDRE=8,
                   REFERENCE='NON_DEFINI',
                   POINT=3,
                   SOUS_POINT=42,
                   RESULTAT=U1,
                   NOM_CHAM='SIEQ_ELGA',
                   NOM_CMP='VMIS_SG',
                   VALE_CALC=-7.14370627E+06,
                   VALE_REFE=-7.1437062719999999E6,
                   PRECISION=1.E-2,
                   MAILLE='M1',),
                _F(NUME_ORDRE=4,
                   REFERENCE='NON_DEFINI',
                   POINT=1,
                   SOUS_POINT=77,
                   RESULTAT=U1,
                   NOM_CHAM='EPEQ_ELGA',
                   NOM_CMP='INVA_2',
                   VALE_CALC= 2.59028148E-04,
                   VALE_REFE=2.5902814769999998E-4,
                   PRECISION=1.E-2,
                   MAILLE='M1',),
                _F(NUME_ORDRE=5,
                   REFERENCE='NON_DEFINI',
                   POINT=1,
                   SOUS_POINT=8,
                   RESULTAT=U1,
                   NOM_CHAM='EPEQ_ELGA',
                   NOM_CMP='INVA_2',
                   VALE_CALC= 1.76927936E-04,
                   VALE_REFE=1.7692793619999999E-4,
                   PRECISION=1.E-2,
                   MAILLE='M1',),
                _F(NUME_ORDRE=8,
                   REFERENCE='NON_DEFINI',
                   POINT=1,
                   SOUS_POINT=61,
                   RESULTAT=U1,
                   NOM_CHAM='EPEQ_ELGA',
                   NOM_CMP='INVA_2SG',
                   VALE_CALC=-3.52768376E-04,
                   VALE_REFE=-3.5276837559999999E-4,
                   PRECISION=1.E-2,
                   MAILLE='M1',),
                _F(NUME_ORDRE=8,
                   REFERENCE='NON_DEFINI',
                   POINT=3,
                   SOUS_POINT=9,
                   RESULTAT=U1,
                   NOM_CHAM='EPEQ_ELGA',
                   NOM_CMP='INVA_2SG',
                   VALE_CALC=-8.94014194E-05,
                   VALE_REFE=-8.9401419390000003E-05,
                   PRECISION=1.E-2,
                   MAILLE='M1',),
                ),
          )

# A l extremite D
TAB1=POST_RELEVE_T(ACTION=_F(INTITULE='POST',
                             GROUP_NO='D',
                             RESULTAT=U1,
                             NOM_CHAM='DEGE_ELNO',
                             TOUT_CMP='OUI',
                             OPERATION='EXTRACTION',),);

# Initialisation des constantes

K1 = 1.
Lambda = EP*RC/RMOY/RMOY
ALPHAN = 1
ALPHAT = 1
GAMMAD = 1
ALPHAF = pi/4*GAMMAD

# Definition des formules pour le calcul de EN, ET, EFY, EFZ et ESTAR

form_EN  = FORMULE(NOM_PARA=('EPXX'),VALE='(EPXX)')
form_ET  = FORMULE(NOM_PARA=('GAT'), VALE='(RMOY*GAT/2.)')
form_EFY = FORMULE(NOM_PARA=('KY'),  VALE='(RMOY*KY/K1)')
form_EFZ = FORMULE(NOM_PARA=('KZ'),  VALE='(RMOY*KZ/K1)')
fo_ESTAR = FORMULE(NOM_PARA=('ET','EN','EFY','EFZ'),
                   VALE='((ALPHAN*EN)**2+(ALPHAT*ET)**2+(ALPHAF*EFY)**2+(ALPHAF*EFZ)**2)**(0.5)')

# Partie droite

TAB1  = CALC_TABLE(TABLE=TAB1,reuse=TAB1,
                   ACTION=(_F(OPERATION='OPER', FORMULE=form_EN, NOM_PARA='EN' ),
                           _F(OPERATION='OPER', FORMULE=form_ET, NOM_PARA='ET' ),
                           _F(OPERATION='OPER', FORMULE=form_EFY,NOM_PARA='EFY'),
                           _F(OPERATION='OPER', FORMULE=form_EFZ,NOM_PARA='EFZ'),
                           _F(OPERATION='OPER', FORMULE=fo_ESTAR,NOM_PARA='ESTAR'),
                          )
                   )

IMPR_TABLE(TABLE=TAB1)

TEST_TABLE(CRITERE='RELATIF',
           VALE_CALC=-9.0358999999999995E-08,
           TOLE_MACHINE=1.E-3,
           NOM_PARA='EN',
           TABLE=TAB1,
           FILTRE=_F(NOM_PARA='INST',
                     VALE=3.086700E6,),
           )

TEST_TABLE(CRITERE='ABSOLU',
           VALE_CALC=0.0,
           TOLE_MACHINE=1.0000000000000001E-05,
           NOM_PARA='ET',
           TABLE=TAB1,
           FILTRE=_F(NOM_PARA='INST',
                     VALE=3.487150E6,),
           )

TEST_TABLE(CRITERE='RELATIF',
           VALE_CALC=-3.0799599999999999E-10,
           TOLE_MACHINE=1.E-3,
           NOM_PARA='EFY',
           TABLE=TAB1,
           FILTRE=_F(NOM_PARA='INST',
                     VALE=4.288040E6,),
           )

TEST_TABLE(CRITERE='RELATIF',
           VALE_CALC=7.1912400000000002E-4,
           TOLE_MACHINE=1.E-3,
           NOM_PARA='EFZ',
           TABLE=TAB1,
           FILTRE=_F(NOM_PARA='INST',
                     VALE=5.489370E6,),
           )

TEST_TABLE(CRITERE='RELATIF',
           VALE_CALC=6.0599999999999998E-4,
           TOLE_MACHINE=1.E-3,
           NOM_PARA='ESTAR',
           TABLE=TAB1,
           FILTRE=_F(NOM_PARA='INST',
                     VALE=5.889810E6,),
           )

# Initialisation des constantes

K2 = max(1.0,1.65/Lambda)
GAMMAC  = 8/9*(Lambda**(-0.66667))
GAMMA   = max(1,GAMMAC)
ALPHAF2 = pi/4*GAMMA

# Definition des formules pour le calcul de EFY, EFZ et ESTAR

for_EFY = FORMULE(NOM_PARA=('KY'),  VALE='(RMOY*KY/K2)')
for_EFZ = FORMULE(NOM_PARA=('KZ'),  VALE='(RMOY*KZ/K2)')
f_ESTAR = FORMULE(NOM_PARA=('ET','EN','EFY','EFZ'),
                   VALE='((ALPHAN*EN)**2+(ALPHAT*ET)**2+(ALPHAF2*EFY)**2+(ALPHAF2*EFZ)**2)**(0.5)')

# A l entree C du coude

TAB2=POST_RELEVE_T(ACTION=_F(INTITULE='POST',
                             GROUP_NO='C',
                             RESULTAT=U1,
                             NOM_CHAM='DEGE_ELNO',
                             TOUT_CMP='OUI',
                             OPERATION='EXTRACTION',),);

TAB2  = CALC_TABLE(TABLE=TAB2,reuse=TAB2,
                   ACTION=(_F(OPERATION='OPER', FORMULE=form_EN, NOM_PARA='EN' ),
                           _F(OPERATION='OPER', FORMULE=form_ET, NOM_PARA='ET' ),
                           _F(OPERATION='OPER', FORMULE=for_EFY,NOM_PARA='EFY'),
                           _F(OPERATION='OPER', FORMULE=for_EFZ,NOM_PARA='EFZ'),
                           _F(OPERATION='OPER', FORMULE=f_ESTAR,NOM_PARA='ESTAR'),
                           ),
                   )

IMPR_TABLE(TABLE=TAB2)

TEST_TABLE(CRITERE='RELATIF',
           VALE_CALC=1.9828900000000002E-3,
           TOLE_MACHINE=1.E-3,
           NOM_PARA='EN',
           TABLE=TAB2,
           FILTRE=_F(NOM_PARA='INST',
                     VALE=3.086700E6,),
           )

TEST_TABLE(CRITERE='RELATIF',
           VALE_CALC=1.4023699999999999E-06,
           TOLE_MACHINE=1.E-3,
           NOM_PARA='ET',
           TABLE=TAB2,
           FILTRE=_F(NOM_PARA='INST',
                     VALE=3.487150E6,),
           )

TEST_TABLE(CRITERE='RELATIF',
           VALE_CALC=6.2923999999999999E-07,
           TOLE_MACHINE=1.E-3,
           NOM_PARA='EFY',
           TABLE=TAB2,
           FILTRE=_F(NOM_PARA='INST',
                     VALE=4.288040E6,),
           )

TEST_TABLE(CRITERE='RELATIF',
           VALE_CALC=4.0685800000000001E-4,
           TOLE_MACHINE=1.E-3,
           NOM_PARA='EFZ',
           TABLE=TAB2,
           FILTRE=_F(NOM_PARA='INST',
                     VALE=5.489370E6,),
           )

TEST_TABLE(CRITERE='RELATIF',
           VALE_CALC=3.9686599999999997E-3,
           TOLE_MACHINE=1.E-3,
           NOM_PARA='ESTAR',
           TABLE=TAB2,
           FILTRE=_F(NOM_PARA='INST',
                     VALE=5.889810E6,),
           )

#---------------------------------------------------------------------------------------
# Validation de POST_CHAMP / MIN_MAX_SP :
#----------------------------------------
U1=CALC_CHAMP(reuse=U1, RESULTAT=U1, CONTRAINTE='SIGM_ELGA', NUME_ORDRE=1)
U1C=POST_CHAMP(RESULTAT=U1,
               MIN_MAX_SP =(
                 _F(NOM_CHAM='SIEQ_ELGA', NOM_CMP='VMIS', TYPE_MAXI='MAXI',     NUME_CHAM_RESU=1 ),
                 _F(NOM_CHAM='SIEQ_ELGA', NOM_CMP='VMIS', TYPE_MAXI='MINI',     NUME_CHAM_RESU=2 ),
                 _F(NOM_CHAM='SIGM_ELGA', NOM_CMP='SIYY', TYPE_MAXI='MAXI_ABS', NUME_CHAM_RESU=3 ),
                 _F(NOM_CHAM='SIGM_ELGA', NOM_CMP='SIYY', TYPE_MAXI='MINI_ABS', NUME_CHAM_RESU=4 ),
               ))
IMPR_RESU(RESU=_F(RESULTAT=U1C))
# verification des valeurs min/max relevees :
TEST_RESU(RESU=_F(NUME_ORDRE=1,
                  REFERENCE='AUTRE_ASTER',
                  POINT=1,
                  RESULTAT=U1C,
                  NOM_CHAM='UT01_ELGA',
                  NOM_CMP='VAL',
                  VALE_CALC= 1.070086736E+08,
                  VALE_REFE=1.0700867361796001E8,
                  TOLE_MACHINE=1.0000000000000001E-09,
                  PRECISION=1.0000000000000001E-09,
                  MAILLE='M3',),
          )

TEST_RESU(RESU=_F(NUME_ORDRE=1,
                  REFERENCE='AUTRE_ASTER',
                  POINT=1,
                  RESULTAT=U1C,
                  NOM_CHAM='UT02_ELGA',
                  NOM_CMP='VAL',
                  VALE_CALC= 8.387566162E+06,
                  VALE_REFE=8.3875661619263999E6,
                  TOLE_MACHINE=1.0000000000000001E-09,
                  PRECISION=1.0000000000000001E-09,
                  MAILLE='M3',),
          )

TEST_RESU(RESU=_F(NUME_ORDRE=1,
                  REFERENCE='AUTRE_ASTER',
                  POINT=2,
                  RESULTAT=U1C,
                  NOM_CHAM='UT03_ELGA',
                  NOM_CMP='VAL',
                  VALE_CALC= 8.393803524E+07,
                  VALE_REFE=8.3938035236909002E7,
                  TOLE_MACHINE=1.0000000000000001E-09,
                  PRECISION=1.0000000000000001E-09,
                  MAILLE='M3',),
          )

TEST_RESU(RESU=_F(NUME_ORDRE=1,
                  REFERENCE='AUTRE_ASTER',
                  POINT=2,
                  RESULTAT=U1C,
                  NOM_CHAM='UT04_ELGA',
                  NOM_CMP='VAL',
                  VALE_CALC= 7.004623928E+04,
                  VALE_REFE=7.0046239281736998E4,
                  TOLE_MACHINE=1.0000000000000001E-09,
                  PRECISION=1.0000000000000001E-09,
                  MAILLE='M3',),
          )

# verification de la localisation :
TEST_RESU(RESU=_F(NUME_ORDRE=1,
                  REFERENCE='AUTRE_ASTER',
                  POINT=1,
                  RESULTAT=U1C,
                  NOM_CHAM='UT01_ELGA',
                  NOM_CMP='NUCOU',
                  VALE_CALC=1.0000000000,
                  VALE_REFE=1.0,
                  TOLE_MACHINE=1.0000000000000001E-09,
                  PRECISION=1.0000000000000001E-09,
                  MAILLE='M3',),
          )

TEST_RESU(RESU=_F(NUME_ORDRE=1,
                  REFERENCE='AUTRE_ASTER',
                  POINT=1,
                  RESULTAT=U1C,
                  NOM_CHAM='UT01_ELGA',
                  NOM_CMP='NUSECT',
                  VALE_CALC=1.0000000000,
                  VALE_REFE=1.0,
                  TOLE_MACHINE=1.0000000000000001E-09,
                  PRECISION=1.0000000000000001E-09,
                  MAILLE='M3',),
          )

TEST_RESU(RESU=_F(NUME_ORDRE=1,
                  REFERENCE='AUTRE_ASTER',
                  POINT=1,
                  RESULTAT=U1C,
                  NOM_CHAM='UT01_ELGA',
                  NOM_CMP='POSIC',
                  VALE_CALC=-1.0000000000,
                  VALE_REFE=-1.0,
                  TOLE_MACHINE=1.0000000000000001E-09,
                  PRECISION=1.0000000000000001E-09,
                  MAILLE='M3',),
          )

TEST_RESU(RESU=_F(NUME_ORDRE=1,
                  REFERENCE='AUTRE_ASTER',
                  POINT=1,
                  RESULTAT=U1C,
                  NOM_CHAM='UT01_ELGA',
                  NOM_CMP='POSIS',
                  VALE_CALC=-1.0000000000,
                  VALE_REFE=-1,
                  TOLE_MACHINE=1.0000000000000001E-09,
                  PRECISION=1.0000000000000001E-09,
                  MAILLE='M3',),
          )

# ancienne validation des min/max :
TEST_RESU(RESU=(_F(NUME_ORDRE=1,
                   REFERENCE='NON_DEFINI',
                   POINT=1,
                   RESULTAT=U1C,
                   NOM_CHAM='UT01_ELGA',
                   NOM_CMP='VAL',
                   VALE_CALC= 8.84099039E+07,
                   VALE_REFE=8.8409900E7,
                   PRECISION=1.E-2,
                   MAILLE='M1',),
                _F(NUME_ORDRE=1,
                   REFERENCE='NON_DEFINI',
                   POINT=1,
                   RESULTAT=U1C,
                   NOM_CHAM='UT02_ELGA',
                   NOM_CMP='VAL',
                   VALE_CALC= 5.88318180E+06,
                   VALE_REFE=5.883180E6,
                   PRECISION=1.E-2,
                   MAILLE='M1',),
                _F(NUME_ORDRE=1,
                   REFERENCE='NON_DEFINI',
                   POINT=2,
                   RESULTAT=U1C,
                   NOM_CHAM='UT01_ELGA',
                   NOM_CMP='NUCOU',
                   VALE_CALC=1.000000000,
                   VALE_REFE=1.0,
                   PRECISION=1.E-2,
                   MAILLE='M2',),
                _F(NUME_ORDRE=1,
                   REFERENCE='NON_DEFINI',
                   POINT=3,
                   RESULTAT=U1C,
                   NOM_CHAM='UT02_ELGA',
                   NOM_CMP='NUCOU',
                   VALE_CALC=1.000000000,
                   VALE_REFE=1.0,
                   PRECISION=1.E-2,
                   MAILLE='M3',),
                _F(NUME_ORDRE=1,
                   REFERENCE='NON_DEFINI',
                   POINT=1,
                   RESULTAT=U1C,
                   NOM_CHAM='UT01_ELGA',
                   NOM_CMP='NUSECT',
                   VALE_CALC=12.000000000,
                   VALE_REFE=12.0,
                   PRECISION=1.E-2,
                   MAILLE='M4',),
                _F(NUME_ORDRE=1,
                   REFERENCE='NON_DEFINI',
                   POINT=2,
                   RESULTAT=U1C,
                   NOM_CHAM='UT02_ELGA',
                   NOM_CMP='NUSECT',
                   VALE_CALC=16.000000000,
                   VALE_REFE=16.0,
                   PRECISION=1.E-2,
                   MAILLE='M5',),
                _F(NUME_ORDRE=1,
                   REFERENCE='NON_DEFINI',
                   POINT=3,
                   RESULTAT=U1C,
                   NOM_CHAM='UT01_ELGA',
                   NOM_CMP='POSIC',
                   VALE_CALC=-1.000000000,
                   VALE_REFE=-1.0,
                   PRECISION=1.E-2,
                   MAILLE='M6',),
                _F(NUME_ORDRE=1,
                   REFERENCE='NON_DEFINI',
                   POINT=1,
                   RESULTAT=U1C,
                   NOM_CHAM='UT02_ELGA',
                   NOM_CMP='POSIC',
                   VALE_CALC= 0.00000000E+00,
                   VALE_REFE=0.0,
                   CRITERE='ABSOLU',
                   PRECISION=1.E-2,
                   MAILLE='M7',),
                _F(NUME_ORDRE=1,
                   REFERENCE='NON_DEFINI',
                   POINT=2,
                   RESULTAT=U1C,
                   NOM_CHAM='UT01_ELGA',
                   NOM_CMP='POSIS',
                   VALE_CALC=1.000000000,
                   VALE_REFE=1.0,
                   PRECISION=1.E-2,
                   MAILLE='M8',),
                _F(NUME_ORDRE=1,
                   REFERENCE='NON_DEFINI',
                   POINT=3,
                   RESULTAT=U1C,
                   NOM_CHAM='UT02_ELGA',
                   NOM_CMP='POSIS',
                   VALE_CALC=1.000000000,
                   VALE_REFE=1.0,
                   PRECISION=1.E-2,
                   MAILLE='M9',),
                _F(NUME_ORDRE=4,
                   REFERENCE='NON_DEFINI',
                   POINT=2,
                   RESULTAT=U1C,
                   NOM_CHAM='UT01_ELGA',
                   NOM_CMP='VAL',
                   VALE_CALC= 1.27694873E+08,
                   VALE_REFE=1.27695000E8,
                   PRECISION=1.E-2,
                   MAILLE='M1',),
                _F(NUME_ORDRE=5,
                   REFERENCE='NON_DEFINI',
                   POINT=3,
                   RESULTAT=U1C,
                   NOM_CHAM='UT02_ELGA',
                   NOM_CMP='VAL',
                   VALE_CALC= 2.20754509E+07,
                   VALE_REFE=2.2075500E7,
                   PRECISION=1.E-2,
                   MAILLE='M5',),
                ),
          )

NCOU_M=CREA_CHAMP( OPERATION='EXTR', TYPE_CHAM='ELGA_SPMX_R',
                   RESULTAT=U1C, NOM_CHAM='UT01_ELGA', TYPE_MAXI='MAXI', TYPE_RESU='VALE',)

NCOU_I=CREA_CHAMP( OPERATION='EXTR', TYPE_CHAM='ELGA_SPMX_R',
                   RESULTAT=U1C, NOM_CHAM='UT01_ELGA', TYPE_MAXI='MAXI', TYPE_RESU='INST',)

TEST_RESU(CHAM_ELEM=(_F(
                        POINT=1,
                        NOM_CMP='VAL',
                        MAILLE='M1',
                        CHAM_GD=NCOU_M,
                        VALE_CALC=1.68015000E8,
                        TOLE_MACHINE=1.E-3,),
                     _F(
                        POINT=1,
                        NOM_CMP='VAL',
                        MAILLE='M1',
                        CHAM_GD=NCOU_I,
                        VALE_CALC=5.889810E6,
                        TOLE_MACHINE=1.E-3,),
                     ),
          )

#---------------------------------------------------------------------------------------
# Validation de POST_CHAMP / MIN_MAX_SP pour un champ de VARI_ELNO:
#-------------------------------------------------------------------
U1D=POST_CHAMP(RESULTAT=U1, MAILLE='M5', NUME_ORDRE=1,
               MIN_MAX_SP =(
                 _F(NOM_CHAM='VARI_ELNO', NOM_CMP='V2', TYPE_MAXI='MAXI', NUME_CHAM_RESU=1 ),
               ))
IMPR_RESU(RESU=_F(RESULTAT=U1, MAILLE='M5', NUME_ORDRE=1,))
IMPR_RESU(RESU=_F(RESULTAT=U1D, MAILLE='M5', NUME_ORDRE=1,))
# verification des valeurs min/max relevees :
TEST_RESU(RESU=_F(NUME_ORDRE=1,
                  REFERENCE='AUTRE_ASTER',
                  RESULTAT=U1D,
                  NOM_CHAM='UT01_ELNO',
                  NOEUD='N13',
                  NOM_CMP='VAL',
                  VALE_CALC=0.3333333333,
                  VALE_REFE=0.33333333329999998,
                  TOLE_MACHINE=1.0000000000000001E-09,
                  PRECISION=1.0000000000000001E-09,
                  MAILLE='M5',),
          )

TEST_RESU(RESU=_F(NUME_ORDRE=1,
                  REFERENCE='AUTRE_ASTER',
                  RESULTAT=U1D,
                  NOM_CHAM='UT01_ELNO',
                  NOEUD='N13',
                  NOM_CMP='NUCOU',
                  VALE_CALC=1.0000000000,
                  VALE_REFE=1.0,
                  TOLE_MACHINE=1.0000000000000001E-09,
                  PRECISION=1.0000000000000001E-09,
                  MAILLE='M5',),
          )

TEST_RESU(RESU=_F(NUME_ORDRE=1,
                  REFERENCE='AUTRE_ASTER',
                  RESULTAT=U1D,
                  NOM_CHAM='UT01_ELNO',
                  NOEUD='N13',
                  NOM_CMP='NUSECT',
                  VALE_CALC=12.0000000000,
                  VALE_REFE=12.0,
                  TOLE_MACHINE=1.0000000000000001E-09,
                  PRECISION=1.0000000000000001E-09,
                  MAILLE='M5',),
          )

TEST_RESU(RESU=_F(NUME_ORDRE=1,
                  REFERENCE='AUTRE_ASTER',
                  RESULTAT=U1D,
                  NOM_CHAM='UT01_ELNO',
                  NOEUD='N13',
                  NOM_CMP='POSIC',
                  VALE_CALC=-1.0000000000,
                  VALE_REFE=-1.0,
                  TOLE_MACHINE=1.0000000000000001E-09,
                  PRECISION=1.0000000000000001E-09,
                  MAILLE='M5',),
          )

TEST_RESU(RESU=_F(NUME_ORDRE=1,
                  REFERENCE='AUTRE_ASTER',
                  RESULTAT=U1D,
                  NOM_CHAM='UT01_ELNO',
                  NOEUD='N13',
                  NOM_CMP='POSIS',
                  VALE_CALC=1.0000000000,
                  VALE_REFE=1.0,
                  TOLE_MACHINE=1.0000000000000001E-09,
                  PRECISION=1.0000000000000001E-09,
                  MAILLE='M5',),
          )

#---------------------------------------------------------------------------------------



FIN()
