# MODIF  DATE 27/06/2006   AUTEUR DURAND C.DURAND 
# TITRE POST-FLAMBEMENT ELASTIQUE D'UNE STRUCTURE EN L
#            CONFIGURATION MANAGEMENT OF EDF VERSION
# ======================================================================
# COPYRIGHT (C) 1991 - 2006  EDF R&D                  WWW.CODE-ASTER.ORG
# THIS PROGRAM IS FREE SOFTWARE; YOU CAN REDISTRIBUTE IT AND/OR MODIFY  
# IT UNDER THE TERMS OF THE GNU GENERAL PUBLIC LICENSE AS PUBLISHED BY  
# THE FREE SOFTWARE FOUNDATION; EITHER VERSION 2 OF THE LICENSE, OR     
# (AT YOUR OPTION) ANY LATER VERSION.                                                    
#                                                                       
# THIS PROGRAM IS DISTRIBUTED IN THE HOPE THAT IT WILL BE USEFUL, BUT   
# WITHOUT ANY WARRANTY; WITHOUT EVEN THE IMPLIED WARRANTY OF            
# MERCHANTABILITY OR FITNESS FOR A PARTICULAR PURPOSE. SEE THE GNU      
# GENERAL PUBLIC LICENSE FOR MORE DETAILS.                              
#                                                                       
# YOU SHOULD HAVE RECEIVED A COPY OF THE GNU GENERAL PUBLIC LICENSE     
# ALONG WITH THIS PROGRAM; IF NOT, WRITE TO EDF R&D CODE_ASTER,         
#    1 AVENUE DU GENERAL DE GAULLE, 92141 CLAMART CEDEX, FRANCE.        
# ======================================================================

DEBUT(CODE=_F( NOM = 'SSNL133A',NIV_PUB_WEB='INTERNET',VISU_EFICAS='OUI'));

PRE_GIBI(UNITE_GIBI=17,
         UNITE_MAILLAGE=20,);

MA=LIRE_MAILLAGE(UNITE=20,);

MA=DEFI_GROUP(reuse =MA,
              MAILLAGE=MA,
              CREA_GROUP_NO=_F(TOUT_GROUP_MA='OUI',),);

MO=AFFE_MODELE(MAILLAGE=MA,
               AFFE=_F(TOUT='OUI',
                       PHENOMENE='MECANIQUE',
                       MODELISATION='POU_D_T_GD',),);

ACIER=DEFI_MATERIAU(ELAS=_F(E=71240.0,
                            NU=0.3,),);

MAT=AFFE_MATERIAU(MAILLAGE=MA,
                  AFFE=_F(TOUT='OUI',
                          MATER=ACIER,),);

CARA=AFFE_CARA_ELEM(MODELE=MO,
                    POUTRE=_F(GROUP_MA='LAME',
                              SECTION='GENERALE',
                              CARA=('A','IY','IZ','AY','AZ','JX',),
                              VALE=(18.0,0.54,1350.0,1.2,1.2,2.16,),),
                    ORIENTATION=_F(GROUP_MA='LAME',
                                   CARA='ANGL_VRIL',
                                   VALE=0.,),);

CL=AFFE_CHAR_MECA(MODELE=MO,
                  DDL_IMPO=_F(GROUP_NO='PA',
                              DX=0.,
                              DY=0.,
                              DZ=0.,
                              DRX=0.,
                              DRY=0.,
                              DRZ=0.,),);

FORCE=AFFE_CHAR_MECA(MODELE=MO,
                     FORCE_NODALE=_F(GROUP_NO='PC',
                                     FX=1.0,
                                     FZ=0.001,),);

FORCE_F=DEFI_FONCTION(NOM_PARA='INST',
                      VALE=(0.,0.,10.0,10.0,),);
tfin = 5.0;


TEMPS=DEFI_LIST_REEL(DEBUT=0.,
                     INTERVALLE=(_F(JUSQU_A=1.0,
                                    NOMBRE=10,),
                                 _F(JUSQU_A=2.6,
                                    PAS=0.01,),
                                 _F(JUSQU_A=tfin,
                                    PAS=0.1,),),);

RESO=STAT_NON_LINE(MODELE=MO,
                   CHAM_MATER=MAT,
                   CARA_ELEM=CARA,
                   EXCIT=(_F(CHARGE=CL,),
                          _F(CHARGE=FORCE,
                             FONC_MULT=FORCE_F,),),
                   COMP_ELAS=_F(RELATION='ELAS_POUTRE_GR',
                                DEFORMATION='GREEN_GR',),
                   INCREMENT=_F(LIST_INST=TEMPS,
                                INST_FIN=tfin,
                                SUBD_PAS=4,
                                SUBD_PAS_MINI=1.0E-6,),
                   NEWTON=_F(MATRICE='TANGENTE',
                             REAC_ITER=1,),
                   CONVERGENCE=_F(RESI_GLOB_RELA=1.0E-6,
                                  ITER_GLOB_MAXI=50,),
                   SOLVEUR=_F(STOP_SINGULIER='DECOUPE',),);

##RESO=STAT_NON_LINE(
##reuse =RESO,
##MODELE=MO,
##CHAM_MATER=MAT,
##CARA_ELEM=CARA,
##
##EXCIT=(_F(CHARGE=CL,),
##       _F(CHARGE=FORCE,
##          TYPE_CHARGE='FIXE_PILO',),),
##
##COMP_ELAS=_F(RELATION='ELAS_POUTRE_GR',
##             DEFORMATION='GREEN_GR',),
##ETAT_INIT=_F(
##EVOL_NOLI=RESO,
##),
##
##INCREMENT=_F(LIST_INST=TEMPS,
##             INST_FIN=tfin,
##             SUBD_PAS=4,
##             SUBD_PAS_MINI=1.0E-6,),
##
##NEWTON=_F(MATRICE='TANGENTE',
##          REAC_ITER=1,),
##
##PILOTAGE=_F(TYPE='LONG_ARC',
##            COEF_MULT=1.0,
##            ETA_PILO_MAX=5.0,
##            SELECTION='ANGL_INCR_DEPL',
##            GROUP_NO='LAME',
##            NOM_CMP=('DX','DZ',),),
##
##CONVERGENCE=_F(RESI_GLOB_RELA=1.0E-6,
##               ITER_GLOB_MAXI=50,),
##
##SOLVEUR=_F(STOP_SINGULIER='DECOUPE',),
##);

##ETA_PILO=RECU_FONCTION(
##RESULTAT=RESO,
##NOM_PARA_RESU='ETA_PILOTAGE',
##);


DEPX=RECU_FONCTION(RESULTAT=RESO,
                   TOUT_ORDRE='OUI',
                   NOM_CHAM='DEPL',
                   NOM_CMP='DX',
                   GROUP_NO='PC',);

DEPZ=RECU_FONCTION(RESULTAT=RESO,
                   TOUT_ORDRE='OUI',
                   NOM_CHAM='DEPL',
                   NOM_CMP='DZ',
                   GROUP_NO='PC',);

IMPR_FONCTION(FORMAT='XMGRACE',
              COURBE=(_F(FONCTION=DEPX,),
                      _F(FONCTION=DEPZ,),),);

IMPR_FONCTION(FORMAT='TABLEAU',
              COURBE=(_F(FONCTION=DEPX,),
                      _F(FONCTION=DEPZ,),),);

IMPR_RESU(FORMAT='CASTEM',
          RESU=_F(MAILLAGE=MA,
                  RESULTAT=RESO,
                  NOM_CHAM='DEPL',),);

# ------------------ TESTS DE NON REGRESSION -----------------------

TEST_FONCTION(VALEUR=(_F(FONCTION=DEPX,
                         VALE_PARA=1.0,
                         VALE_REFE=1.9557897264105E-01,
                         CRITERE='RELATIF',
                         REFERENCE='NON_REGRESSION',
                         VERSION='8.3.2',),
                      _F(FONCTION=DEPZ,
                         VALE_PARA=1.0,
                         VALE_REFE=8.1895376497696E-01,
                         CRITERE='RELATIF',
                         REFERENCE='NON_REGRESSION',
                         VERSION='8.3.2',),),);

TEST_FONCTION(VALEUR=(_F(FONCTION=DEPX,
                         VALE_PARA=1.2,
                         VALE_REFE=2.2003741156650E+01,
                         CRITERE='RELATIF',
                         REFERENCE='NON_REGRESSION',
                         VERSION='8.3.2',),
                      _F(FONCTION=DEPZ,
                         VALE_PARA=1.2,
                         VALE_REFE=4.5086149006060E+01,
                         CRITERE='RELATIF',
                         REFERENCE='NON_REGRESSION',
                         VERSION='8.3.2',),),);

TEST_FONCTION(VALEUR=(_F(FONCTION=DEPX,
                         VALE_PARA=1.4,
                         VALE_REFE=5.1370567219177E+01,
                         CRITERE='RELATIF',
                         REFERENCE='NON_REGRESSION',
                         VERSION='8.3.2',),
                      _F(FONCTION=DEPZ,
                         VALE_PARA=1.4,
                         VALE_REFE=5.9127395933839E+01,
                         CRITERE='RELATIF',
                         REFERENCE='NON_REGRESSION',
                         VERSION='8.3.2',),),);

TEST_FONCTION(VALEUR=(_F(FONCTION=DEPX,
                         VALE_PARA=1.6,
                         VALE_REFE=7.2308828300357E+01,
                         CRITERE='RELATIF',
                         REFERENCE='NON_REGRESSION',
                         VERSION='8.3.2',),
                      _F(FONCTION=DEPZ,
                         VALE_PARA=1.6,
                         VALE_REFE=6.1007516217062E+01,
                         CRITERE='RELATIF',
                         REFERENCE='NON_REGRESSION',
                         VERSION='8.3.2',),),);

TEST_FONCTION(VALEUR=(_F(FONCTION=DEPX,
                         VALE_PARA=2.0,
                         VALE_REFE=9.9955783482343E+01,
                         CRITERE='RELATIF',
                         REFERENCE='NON_REGRESSION',
                         VERSION='8.3.2',),
                      _F(FONCTION=DEPZ,
                         VALE_PARA=2.0,
                         VALE_REFE=5.5986094960435E+01,
                         CRITERE='RELATIF',
                         REFERENCE='NON_REGRESSION',
                         VERSION='8.3.2',),),);

TEST_FONCTION(VALEUR=(_F(FONCTION=DEPX,
                         VALE_PARA=3.0,
                         VALE_REFE=1.3414461679369E+02,
                         CRITERE='RELATIF',
                         REFERENCE='NON_REGRESSION',
                         VERSION='8.3.2',),
                      _F(FONCTION=DEPZ,
                         VALE_PARA=3.0,
                         VALE_REFE=3.9191654438340E+01,
                         CRITERE='RELATIF',
                         REFERENCE='NON_REGRESSION',
                         VERSION='8.3.2',),),);

TEST_FONCTION(VALEUR=(_F(FONCTION=DEPX,
                         VALE_PARA=4.0,
                         VALE_REFE=1.5069734947084E+02,
                         CRITERE='RELATIF',
                         REFERENCE='NON_REGRESSION',
                         VERSION='8.3.2',),
                      _F(FONCTION=DEPZ,
                         VALE_PARA=4.0,
                         VALE_REFE=2.7663660137343E+01,
                         CRITERE='RELATIF',
                         REFERENCE='NON_REGRESSION',
                         VERSION='8.3.2',),),);

TEST_FONCTION(VALEUR=(_F(FONCTION=DEPX,
                         VALE_PARA=5.0,
                         VALE_REFE=1.6091941068726E+02,
                         CRITERE='RELATIF',
                         REFERENCE='NON_REGRESSION',
                         VERSION='8.3.2',),
                      _F(FONCTION=DEPZ,
                         VALE_PARA=5.0,
                         VALE_REFE=2.0201862127005E+01,
                         CRITERE='RELATIF',
                         REFERENCE='NON_REGRESSION',
                         VERSION='8.3.2',),),);

FIN();
