
# MODIF  DATE 06/07/2004   AUTEUR CIBHHLV L.VIVAN 
# RESPONSABLE ADBHHPM P.MASSIN
# DATE   : 13/04/2000
# AUTEUR : F. LEBOUVIER (DELTACAD)
# TITRE  : POUTRE ENCASTREE SOUMISE A UNE PRESSION UNIFORME
#            CONFIGURATION MANAGEMENT OF EDF VERSION
# ======================================================================
# COPYRIGHT (C) 1991 - 2001  EDF R&D                  WWW.CODE-ASTER.ORG
# THIS PROGRAM IS FREE SOFTWARE; YOU CAN REDISTRIBUTE IT AND/OR MODIFY
# IT UNDER THE TERMS OF THE GNU GENERAL PUBLIC LICENSE AS PUBLISHED BY
# THE FREE SOFTWARE FOUNDATION; EITHER VERSION 2 OF THE LICENSE, OR   
# (AT YOUR OPTION) ANY LATER VERSION.                                 
#
# THIS PROGRAM IS DISTRIBUTED IN THE HOPE THAT IT WILL BE USEFUL, BUT 
# WITHOUT ANY WARRANTY; WITHOUT EVEN THE IMPLIED WARRANTY OF          
# MERCHANTABILITY OR FITNESS FOR A PARTICULAR PURPOSE. SEE THE GNU    
# GENERAL PUBLIC LICENSE FOR MORE DETAILS.                            
#
# YOU SHOULD HAVE RECEIVED A COPY OF THE GNU GENERAL PUBLIC LICENSE   
# ALONG WITH THIS PROGRAM; IF NOT, WRITE TO EDF R&D CODE_ASTER,       
#    1 AVENUE DU GENERAL DE GAULLE, 92141 CLAMART CEDEX, FRANCE.      
# ======================================================================
#---------------------------------------------------------------------
#  - CALCUL QUASI-STATIQUE D'UNE POUTRE CONSTITUEE D'UN MATERIAU
#    ELASTIQUE PARFAITEMENT PLASTIQUE
#  - MODELISATION AVEC DES ELEMENTS 'DKT'(QUAD4)
#---------------------------------------------------------------------

DEBUT(CODE=_F(NOM='SSNL501C',
              NIV_PUB_WEB='INTERNET',),);

PRE_GIBI();

MAIL_C=LIRE_MAILLAGE(VERI_MAIL=_F(VERIF='OUI',),);

MAIL_C=DEFI_GROUP(reuse =MAIL_C,
                  MAILLAGE=MAIL_C,
                  CREA_GROUP_NO=(_F(GROUP_MA='LFE',),),);

MOD_C=AFFE_MODELE(MAILLAGE=MAIL_C,
                  AFFE=_F(TOUT='OUI',
                          PHENOMENE='MECANIQUE',
                          MODELISATION='DKT',),);
#
#---------------------------------------------------------------------
#                     CARACTERISTIQUES ELEMENTAIRES
#---------------------------------------------------------------------

CAR_EL_C=AFFE_CARA_ELEM(MODELE=MOD_C,
                        COQUE=_F(GROUP_MA='TOUT_ELT',
                                 EPAIS=0.025,
                                 COQUE_NCOU=3,),);
#
#---------------------------------------------------------------------
#                     CARACTERISTIQUES MATERIAUX
#---------------------------------------------------------------------

MAT_C=DEFI_MATERIAU(ELAS=_F(E=200000000000.0,
                            NU=0.3,),
                    ECRO_LINE=_F(D_SIGM_EPSI=0.0,
                                 SY=235000000.0,),);

CH_MAT_C=AFFE_MATERIAU(MAILLAGE=MAIL_C,
                       AFFE=_F(TOUT='OUI',
                               MATER=MAT_C,),);
#
#---------------------------------------------------------------------
#                     CHARGEMENTS
#---------------------------------------------------------------------

CHAR0=AFFE_CHAR_MECA(MODELE=MOD_C,
                     DDL_IMPO=(_F(GROUP_MA='LAB',
                                  DX=0.0,
                                  DY=0.0,
                                  DZ=0.0,
                                  DRX=0.0,
                                  DRY=0.0,
                                  DRZ=0.0,),
                               _F(GROUP_MA='LFE',
                                  DRZ=0.0,),),
                     LIAISON_OBLIQUE=_F(GROUP_NO='LFE',
                                        ANGL_NAUT=(135.0,0.0,0.0,),
                                        DX=0.0,),);

PRES_LIM=AFFE_CHAR_MECA(MODELE=MOD_C,
                        FORCE_COQUE=_F(TOUT='OUI',
                                       PRES=-261111.111,),);
#
#---------------------------------------------------------------------
#                        RESOLUTION
#---------------------------------------------------------------------

LIS_INST=DEFI_LIST_REEL(DEBUT=0.0,
                        INTERVALLE=(_F(JUSQU_A=5.0,
                                       NOMBRE=10,),
                                    _F(JUSQU_A=8.5,
                                       NOMBRE=20,),
                                    _F(JUSQU_A=25.0,
                                       NOMBRE=40,),),);

RESULT_C=STAT_NON_LINE(MODELE=MOD_C,
                       CHAM_MATER=CH_MAT_C,
                       CARA_ELEM=CAR_EL_C,
                       EXCIT=(_F(CHARGE=CHAR0,),
                              _F(CHARGE=PRES_LIM,
                                 TYPE_CHARGE='FIXE_PILO',),),
                       COMP_INCR=_F(RELATION='VMIS_ISOT_LINE',),
                       INCREMENT=_F(LIST_INST=LIS_INST,),
                       NEWTON=_F(MATRICE='TANGENTE',
                                 REAC_ITER=1,),
                       PILOTAGE=_F(TYPE='DDL_IMPO',
                                   COEF_MULT=-213.9708,
                                   GROUP_NO='F',
                                   NOM_CMP='DY',),
                       CONVERGENCE=_F(RESI_GLOB_RELA=1e-06,
                                      ITER_GLOB_MAXI=40,
                                      ITER_INTE_MAXI=40,),);

TABLE_DX=POST_RELEVE_T(ACTION=_F(INTITULE='TAB_DX',
                                 GROUP_NO='E',
                                 RESULTAT=RESULT_C,
                                 NOM_CHAM='DEPL',
                                 TOUT_ORDRE='OUI',
                                 NOM_CMP='DX',
                                 OPERATION='EXTRACTION',),);

IMPR_TABLE(TABLE=TABLE_DX,);

RUX=RECU_FONCTION(TABLE=TABLE_DX,
                  PARA_X='ABSC_CURV',
                  PARA_Y='DX',);

TABLE_DY=POST_RELEVE_T(ACTION=_F(INTITULE='TAB_DY',
                                 GROUP_NO='E',
                                 RESULTAT=RESULT_C,
                                 NOM_CHAM='DEPL',
                                 TOUT_ORDRE='OUI',
                                 NOM_CMP='DY',
                                 OPERATION='EXTRACTION',),);

IMPR_TABLE(TABLE=TABLE_DY,);

RUY=RECU_FONCTION(TABLE=TABLE_DY,
                  PARA_X='ABSC_CURV',
                  PARA_Y='DY',);

DEPX=RECU_FONCTION(RESULTAT=RESULT_C,
                   NOM_CHAM='DEPL',
                   TOUT_ORDRE='OUI',
                   NOM_CMP='DX',
                   GROUP_NO='E',);

DEPY=RECU_FONCTION(RESULTAT=RESULT_C,
                   NOM_CHAM='DEPL',
                   TOUT_ORDRE='OUI',
                   NOM_CMP='DY',
                   GROUP_NO='E',);

ETA=RECU_FONCTION(RESULTAT=RESULT_C,
                  NOM_PARA_RESU='ETA_PILOTAGE',
                  TOUT_ORDRE='OUI',);

IMPR_COURBE(UNITE=25,
            FORMAT='AGRAF',
            TITRE_GRAPHIQUE='Depx en fonction du temps',
            COURBE=_F(FONCTION=DEPX,),);

IMPR_COURBE(UNITE=25,
            FORMAT='AGRAF',
            TITRE_GRAPHIQUE='Eta en fonction du temps',
            COURBE=_F(FONCTION=ETA,),);

IMPR_COURBE(UNITE=25,
            FORMAT='AGRAF',
            TITRE_GRAPHIQUE='Depy en fonction du temps',
            COURBE=_F(FONCTION=DEPY,),);

DEPL=CREA_CHAMP(TYPE_CHAM='NOEU_DEPL_R',
                OPERATION='EXTR',
                RESULTAT=RESULT_C,
                NOM_CHAM='DEPL',
                NUME_ORDRE=1,);

#
#---------------------------------------------------------------------
#                        VERIFICATION DES RESULTATS
#---------------------------------------------------------------------

TEST_RESU(RESU=(_F(RESULTAT=RESULT_C,
                   NUME_ORDRE=53,
                   PARA='ETA_PILOTAGE',
                   VALE=1.0,
                   PRECISION=0.1,
                   REFERENCE='ANALYTIQUE',),
                _F(RESULTAT=RESULT_C,
                   NUME_ORDRE=63,
                   PARA='ETA_PILOTAGE',
                   VALE=1.0,
                   PRECISION=0.1,
                   REFERENCE='ANALYTIQUE',),),);

FIN();
