 TITRE
CODE_ASTER - 11.00.27 - VERSION DE DEVELOPPEMENT          - FRONTAL1         - L
 FINSF
 %
 COOR_3D
 N1        2.08333332836628E+00  0.00000000000000E+00  0.00000000000000E+00
 N2        2.25000000000000E+00  0.00000000000000E+00  0.00000000000000E+00
 N3        1.74999998509884E+00  0.00000000000000E+00  0.00000000000000E+00
 N4        1.91666665673256E+00  0.00000000000000E+00  0.00000000000000E+00
 N5        1.41666664183140E+00  0.00000000000000E+00  0.00000000000000E+00
 N6        1.58333331346512E+00  0.00000000000000E+00  0.00000000000000E+00
 N7        1.25000000000000E+00  0.00000000000000E+00  0.00000000000000E+00
 N8        1.05445694470804E+00  1.53895701367637E-02  0.00000000000000E+00
 N9        8.63728779292400E-01  6.11793473979936E-02  0.00000000000000E+00
 N10       6.82511893574140E-01  1.36241835466428E-01  0.00000000000000E+00
 N11       5.15268448836716E-01  2.38728746712736E-01  0.00000000000000E+00
 N12       3.66116533861208E-01  3.66116513172423E-01  0.00000000000000E+00
 N13       2.38728763910369E-01  5.15268425166204E-01  0.00000000000000E+00
 N14       1.36241848749446E-01  6.82511867504749E-01  0.00000000000000E+00
 N15       6.11793564393244E-02  8.63728751466045E-01  0.00000000000000E+00
 N16       1.53895747137796E-02  1.05445691580990E+00  0.00000000000000E+00
 N17       0.00000000000000E+00  1.25000000000000E+00  0.00000000000000E+00
 N18       0.00000000000000E+00  1.41666664183140E+00  0.00000000000000E+00
 N19       0.00000000000000E+00  1.58333331346512E+00  0.00000000000000E+00
 N20       0.00000000000000E+00  1.74999998509884E+00  0.00000000000000E+00
 N21       0.00000000000000E+00  1.91666665673256E+00  0.00000000000000E+00
 N22       0.00000000000000E+00  2.08333332836628E+00  0.00000000000000E+00
 N23       0.00000000000000E+00  2.25000000000000E+00  0.00000000000000E+00
 FINSF
 %
 SEG3    
 M1       N23      N21      N22     
 M2       N21      N19      N20     
 M3       N19      N17      N18     
 M4       N17      N15      N16     
 M5       N15      N13      N14     
 M6       N13      N11      N12     
 M7       N11      N9       N10     
 M8       N9       N7       N8      
 M9       N2       N4       N1      
 M10      N4       N6       N3      
 M11      N6       N7       N5      
 FINSF
 %
 GROUP_NO
 A       
 N23     
 FINSF
 %
 GROUP_NO
 B       
 N17     
 FINSF
 %
 GROUP_NO
 C       
 N7      
 FINSF
 %
 GROUP_NO
 D       
 N2      
 FINSF
 %
 GROUP_MA
 AD      
 M1       M2       M3       M4       M5       M6       M7      
 M8       M9       M10      M11     
 FINSF
 %
 GROUP_MA
 AB      
 M1       M2       M3      
 FINSF
 %
 GROUP_MA
 BC      
 M4       M5       M6       M7       M8      
 FINSF
 %
 GROUP_MA
 CD      
 M9       M10      M11     
 FINSF
 %
 FIN
