# ======================================================================
# COPYRIGHT (C) 1991 - 2016  EDF R&D                  WWW.CODE-ASTER.ORG
# THIS PROGRAM IS FREE SOFTWARE; YOU CAN REDISTRIBUTE IT AND/OR MODIFY
# IT UNDER THE TERMS OF THE GNU GENERAL PUBLIC LICENSE AS PUBLISHED BY
# THE FREE SOFTWARE FOUNDATION; EITHER VERSION 2 OF THE LICENSE, OR
# (AT YOUR OPTION) ANY LATER VERSION.
#
# THIS PROGRAM IS DISTRIBUTED IN THE HOPE THAT IT WILL BE USEFUL, BUT
# WITHOUT ANY WARRANTY; WITHOUT EVEN THE IMPLIED WARRANTY OF
# MERCHANTABILITY OR FITNESS FOR A PARTICULAR PURPOSE. SEE THE GNU
# GENERAL PUBLIC LICENSE FOR MORE DETAILS.
#
# YOU SHOULD HAVE RECEIVED A COPY OF THE GNU GENERAL PUBLIC LICENSE
# ALONG WITH THIS PROGRAM; IF NOT, WRITE TO EDF R&D CODE_ASTER,
#    1 AVENUE DU GENERAL DE GAULLE, 92141 CLAMART CEDEX, FRANCE.
# ======================================================================
# EN CONTACT AVEC LE BORD LIBRE
# MODELISATION POU_D_E ET DKQ
#

DEBUT(CODE=_F(NIV_PUB_WEB='INTERNET'), DEBUG=_F(SDVERI='OUI'))

MA=LIRE_MAILLAGE(VERI_MAIL=_F(VERIF='OUI',),FORMAT='MED',);

MA=DEFI_GROUP(reuse =MA,
              MAILLAGE=MA,
              CREA_GROUP_NO=_F(GROUP_MA='L1',),);

MO=AFFE_MODELE(MAILLAGE=MA,
               AFFE=(_F(GROUP_MA='S1',
                        PHENOMENE='MECANIQUE',
                        MODELISATION='DKT',),
                     _F(GROUP_MA=('COQU1','COQU2','POUT1','POUT2'),
                        PHENOMENE='MECANIQUE',
                        MODELISATION='DIS_TR',),
                     _F(GROUP_MA='POUTRE',
                        PHENOMENE='MECANIQUE',
                        MODELISATION='POU_D_E',),),);

MAT=DEFI_MATERIAU(ELAS=_F(E=200000.0,
                          NU=0.3,),);

CARA=AFFE_CARA_ELEM(MODELE=MO,
                    POUTRE=_F(GROUP_MA='POUTRE',
                              SECTION='CERCLE',
                              CARA=('R','EP',),
                              VALE=(0.002,0.0002,),),
                    COQUE=_F(GROUP_MA='S1',
                             EPAIS=0.1,
                             COQUE_NCOU=19,),
                    DISCRET=(
                             _F(GROUP_MA=('COQU1','COQU2','POUT1','POUT2'),
                               CARA='M_TR_D_N',
                               VALE=(0.0,0.0,0.0,0.0,0.0,0.0,0.0,0.0,0.0,0.0,),),
                             _F(GROUP_MA=('COQU1','COQU2','POUT1','POUT2'),
                               CARA='K_TR_D_N',
                               VALE=(0.0,0.0,0.0,0.0,0.0,0.0,),),
                   ));

CHMAT=AFFE_MATERIAU(MAILLAGE=MA,
                    AFFE=_F(TOUT='OUI',
                            MATER=MAT,),);
#
#

F_DIST_E=DEFI_CONSTANTE(VALE=-0.2)

CHA=AFFE_CHAR_MECA(VERI_NORM='NON',
                   MODELE=MO,
                   DDL_IMPO=(_F(GROUP_NO='L1',
                                DX=0.0,
                                DY=0.0,
                                DZ=0.0,
                                DRX=0.0,
                                DRY=0.0,
                                DRZ=0.0,),
                             _F(GROUP_NO=('P5','P6',),
                                DX=0.0,
                                DY=0.0,
                                DZ=-0.2,
                                DRX=0.0,
                                DRY=0.0,
                                DRZ=0.0,),),

                               );
#
CONT = DEFI_CONTACT   (MODELE      = MO,
                       FORMULATION = 'DISCRETE',
                       ZONE = (
                                _F(
                                   APPARIEMENT   = 'NODAL',
                                   GROUP_MA_MAIT = 'COQU1',
                                   GROUP_MA_ESCL = 'POUT1',
                                   NORMALE       = 'ESCL',
                                   VECT_ESCL     = 'FIXE',
                                   ESCL_FIXE     = (0.0,0.0,-1.0,),
                                   DIST_ESCL     = F_DIST_E,
                                  ),
                                _F(
                                   APPARIEMENT   = 'NODAL',
                                   GROUP_MA_MAIT = 'COQU2',
                                   GROUP_MA_ESCL = 'POUT2',
                                   NORMALE       = 'ESCL',
                                   VECT_ESCL     = 'FIXE',
                                   ESCL_FIXE     = (0.0,0.0,-1.0,),
                                  ),
                              ),
                      );


L_INST=DEFI_LIST_REEL(DEBUT=0.0,
                      INTERVALLE=_F(JUSQU_A=5.0,
                                    NOMBRE=5,),);
#
#


FONCM=DEFI_FONCTION(NOM_PARA='INST',
                    VALE=(0.0,0.0,100.0,100.0,),);

RESU=STAT_NON_LINE(SOLVEUR=_F(),
                   MODELE=MO,
                   CHAM_MATER=CHMAT,
                   CARA_ELEM=CARA,
                   EXCIT=_F(CHARGE=CHA,
                            FONC_MULT=FONCM,),
                   CONTACT  = CONT,
                   COMPORTEMENT=_F(RELATION='ELAS',),
                   INCREMENT=_F(LIST_INST=L_INST,
                                NUME_INST_FIN=2,),
                   NEWTON=_F(MATRICE='ELASTIQUE',),
                   CONVERGENCE=_F(RESI_GLOB_MAXI=1e-06,),);

RESU=CALC_CHAMP(reuse=RESU,CONTRAINTE=('EFGE_ELNO'),VARI_INTERNE=('VARI_ELNO'),RESULTAT=RESU)


TEST_RESU(RESU=(_F(NUME_ORDRE=2,
                   REFERENCE='ANALYTIQUE',
                   RESULTAT=RESU,
                   NOM_CHAM='DEPL',
                   NOEUD='N45',
                   NOM_CMP='DZ',
                   VALE_CALC=-0.189991974,
                   VALE_REFE=-0.19005,
                   PRECISION=1.E-3,),
                _F(NUME_ORDRE=2,
                   REFERENCE='ANALYTIQUE',
                   RESULTAT=RESU,
                   NOM_CHAM='DEPL',
                   NOEUD='N46',
                   NOM_CMP='DZ',
                   VALE_CALC=-0.189991974,
                   VALE_REFE=-0.19005,
                   PRECISION=1.E-3,),
                _F(NUME_ORDRE=2,
                   REFERENCE='ANALYTIQUE',
                   RESULTAT=RESU,
                   NOM_CHAM='EFGE_ELNO',
                   NOEUD='N3',
                   NOM_CMP='N',
                   VALE_CALC=-4.77905361E-03,
                   VALE_REFE=-4.7512600000000002E-3,
                   PRECISION=1.E-2,
                   MAILLE='M21',),
                _F(NUME_ORDRE=2,
                   REFERENCE='ANALYTIQUE',
                   RESULTAT=RESU,
                   NOM_CHAM='EFGE_ELNO',
                   NOEUD='N1',
                   NOM_CMP='N',
                   VALE_CALC=-4.77905361E-03,
                   VALE_REFE=-4.7512600000000002E-3,
                   PRECISION=1.E-2,
                   MAILLE='M22',),
                ),
          )

FIN();
#
#
#
