#
# TITRE CADRE DE BARRES HAUBANE.
# ======================================================================
# COPYRIGHT (C) 1991 - 2015  EDF R&D                  WWW.CODE-ASTER.ORG
# THIS PROGRAM IS FREE SOFTWARE; YOU CAN REDISTRIBUTE IT AND/OR MODIFY
# IT UNDER THE TERMS OF THE GNU GENERAL PUBLIC LICENSE AS PUBLISHED BY
# THE FREE SOFTWARE FOUNDATION; EITHER VERSION 2 OF THE LICENSE, OR
# (AT YOUR OPTION) ANY LATER VERSION.
#
# THIS PROGRAM IS DISTRIBUTED IN THE HOPE THAT IT WILL BE USEFUL, BUT
# WITHOUT ANY WARRANTY; WITHOUT EVEN THE IMPLIED WARRANTY OF
# MERCHANTABILITY OR FITNESS FOR A PARTICULAR PURPOSE. SEE THE GNU
# GENERAL PUBLIC LICENSE FOR MORE DETAILS.
#
# YOU SHOULD HAVE RECEIVED A COPY OF THE GNU GENERAL PUBLIC LICENSE
# ALONG WITH THIS PROGRAM; IF NOT, WRITE TO EDF R&D CODE_ASTER,
#    1 AVENUE DU GENERAL DE GAULLE, 92141 CLAMART CEDEX, FRANCE.
# ======================================================================
#
DEBUT(CODE=_F(NIV_PUB_WEB='INTERNET'), DEBUG=_F(SDVERI='OUI'))

#

MA=LIRE_MAILLAGE(  )

MO=AFFE_MODELE(  MAILLAGE=MA,AFFE=(
#           GROUPE DE  MAILLE : MODELE CABLE
                    _F(  GROUP_MA = 'GXXXXXX_CABLE',
                           PHENOMENE = 'MECANIQUE',
                           MODELISATION = 'CABLE'),
#           GROUPE DE  MAILLE : MODELE POUTRE
                         _F(  GROUP_MA = 'GXXXXXX_CADRE',
                           PHENOMENE = 'MECANIQUE',
                           MODELISATION = 'BARRE'))   )

CARELEM=AFFE_CARA_ELEM(   MODELE=MO,
#     GROUPE DE MAILLE : MODELE CABLE
                      CABLE=_F(  GROUP_MA = 'GXXXXXX_CABLE',
                              SECTION = 1.00E-04,N_INIT=5000.0),
#     GROUPE DE MAILLE : MODELE BARRE
                      BARRE=_F(  GROUP_MA = 'GXXXXXX_CADRE',
                              SECTION = 'GENERALE',
                              CARA = 'A',
                              VALE = 1.00E-04)   )

MAT1=DEFI_MATERIAU(   ELAS=_F(  E = 2.10E+11,  NU = 0.3)   )

MAT2=DEFI_MATERIAU(   ELAS=_F(E = 2.10E+11,NU=0.E0),
                      CABLE=_F(EC_SUR_E = 0.E0),
                  )

CHMAT=AFFE_MATERIAU(   MAILLAGE=MA,AFFE=(
                          _F(  GROUP_MA = 'GXXXXXX_CADRE', MATER = MAT1),
                          _F(  GROUP_MA = 'GXXXXXX_CABLE', MATER = MAT2))  )

FORCE=AFFE_CHAR_MECA(  MODELE=MO,DDL_IMPO=(
                   _F(  NOEUD = ('N01', 'N02', 'N03', 'N04',), DZ = 0.0),
                            _F(  NOEUD = ('N01', 'N04',),         DY = 0.0),
                            _F(  NOEUD = ('N01',),             DX = 0.0)),
                   FORCE_NODALE=_F(  NOEUD = 'N03', FX = 1000.)
                        )

LISNT=DEFI_LIST_REEL(     DEBUT=0.,
                          INTERVALLE=_F(  JUSQU_A = 5., PAS = 1.)  )

FCTMUL=DEFI_FONCTION(   NOM_PARA='INST',
                           VALE=( 0.0,   0.0,
                                  1.0,   0.5,
                                  2.0,   1.0,  )   )

RESU1=STAT_NON_LINE(
                            MODELE=MO,
                        CHAM_MATER=CHMAT,
                         CARA_ELEM=CARELEM,
                             EXCIT=_F(
                CHARGE = FORCE,
                FONC_MULT = FCTMUL),
                         INCREMENT=_F(
                LIST_INST = LISNT,
                NUME_INST_FIN = 2),
                         COMPORTEMENT=(
                         _F(
                GROUP_MA = ( 'GXXXXXX_CABLE',  ),
                RELATION = 'CABLE',
                DEFORMATION = 'GROT_GDEP'),
                         _F(
                GROUP_MA = ( 'GXXXXXX_CADRE',  ),
                RELATION = 'ELAS'),
                                     ),
                            NEWTON=_F(
                REAC_ITER = 1),
                       CONVERGENCE=_F(
                ITER_GLOB_MAXI = 10,
                RESI_GLOB_RELA = 1.E-6),
                             TITRE=(
                  ' STRUCTURE A HAUBAN ',  ),
                     RECH_LINEAIRE=_F(
                ITER_LINE_MAXI = 2)
              )

RESU1=CALC_CHAMP(reuse=RESU1,CONTRAINTE=('SIEF_ELNO'),RESULTAT=RESU1)


RESU1=CALC_CHAMP(reuse=RESU1,  FORCE='FORC_NODA',
                        RESULTAT=RESU1)

TEST_RESU(RESU=(_F(NUME_ORDRE=2,
                   PARA='INST',
                   RESULTAT=RESU1,
                   VALE_CALC=2.0,),
                _F(NUME_ORDRE=2,
                   PARA='ITER_GLOB',
                   VALE_CALC_I=2,
                   RESULTAT=RESU1,
                   CRITERE='ABSOLU',
                   ),
                ),
          )

TEST_RESU(RESU=(_F(NUME_ORDRE=2,
                   POINT=1,
                   RESULTAT=RESU1,
                   NOM_CHAM='SIEF_ELGA',
                   NOM_CMP='N',
                   VALE_REFE=1414.2,
                   VALE_CALC=1413.9558649235,
                   REFERENCE='ANALYTIQUE',
                   PRECISION=3.E-4,
                   MAILLE='N01N03',),
                _F(NUME_ORDRE=2,
                   POINT=1,
                   RESULTAT=RESU1,
                   NOM_CHAM='SIEF_ELGA',
                   NOM_CMP='N',
                   VALE_REFE=-1000.0,
                   VALE_CALC=-999.7701809567,
                   REFERENCE='ANALYTIQUE',
                   PRECISION=3.E-4,
                   MAILLE='N03N04',),
                _F(NUME_ORDRE=2,
                   POINT=1,
                   RESULTAT=RESU1,
                   NOM_CHAM='SIEF_ELGA',
                   NOM_CMP='N',
                   VALE_REFE=0.0,
                   VALE_CALC=0.0,
                   REFERENCE='ANALYTIQUE',
                   PRECISION=1.E-3,
                   CRITERE='ABSOLU',
                   MAILLE='N01N02',),
                _F(NUME_ORDRE=2,
                   POINT=1,
                   RESULTAT=RESU1,
                   NOM_CHAM='SIEF_ELGA',
                   NOM_CMP='N',
                   VALE_REFE=0.0,
                   VALE_CALC=0.0,
                   REFERENCE='ANALYTIQUE',
                   PRECISION=1.E-3,
                   CRITERE='ABSOLU',
                   MAILLE='N02N03',),
                _F(NUME_ORDRE=2,
                   POINT=1,
                   RESULTAT=RESU1,
                   NOM_CHAM='SIEF_ELGA',
                   NOM_CMP='N',
                   VALE_REFE=0.0,
                   VALE_CALC=0.0,
                   REFERENCE='ANALYTIQUE',
                   PRECISION=1.E-3,
                   CRITERE='ABSOLU',
                   MAILLE='N04N01',),
                _F(NUME_ORDRE=2,
                   POINT=1,
                   RESULTAT=RESU1,
                   NOM_CHAM='SIEF_ELGA',
                   NOM_CMP='N',
                   VALE_REFE=0.0,
                   VALE_CALC=0.0,
                   REFERENCE='ANALYTIQUE',
                   PRECISION=1.E-3,
                   CRITERE='ABSOLU',
                   MAILLE='N04N02',),
                ),
          )

TEST_RESU(RESU=_F(NUME_ORDRE=2,
                  RESULTAT=RESU1,
                  NOM_CHAM='FORC_NODA',
                  NOEUD='N03',
                  NOM_CMP='DX',
                  VALE_REFE=1000.0,
                  VALE_CALC=1000.0,
                   REFERENCE='ANALYTIQUE',
                  PRECISION=3.E-4,
                  ),
          )

FIN( )
#
