# MODIF  DATE 03/11/2010   AUTEUR ABBAS M.ABBAS 
# TITRE POUTRE EN FLAMBEMENT 
# ssnl502d.para = tps_job 90 mem_job 128Mo ncpus 1 liste_test S
#            CONFIGURATION MANAGEMENT OF EDF VERSION
# ======================================================================
# COPYRIGHT (C) 1991 - 2006  EDF R&D                  WWW.CODE-ASTER.ORG
# THIS PROGRAM IS FREE SOFTWARE; YOU CAN REDISTRIBUTE IT AND/OR MODIFY  
# IT UNDER THE TERMS OF THE GNU GENERAL PUBLIC LICENSE AS PUBLISHED BY  
# THE FREE SOFTWARE FOUNDATION; EITHER VERSION 2 OF THE LICENSE, OR     
# (AT YOUR OPTION) ANY LATER VERSION.                                                    
#                                                                       
# THIS PROGRAM IS DISTRIBUTED IN THE HOPE THAT IT WILL BE USEFUL, BUT   
# WITHOUT ANY WARRANTY; WITHOUT EVEN THE IMPLIED WARRANTY OF            
# MERCHANTABILITY OR FITNESS FOR A PARTICULAR PURPOSE. SEE THE GNU      
# GENERAL PUBLIC LICENSE FOR MORE DETAILS.                              
#                                                                       
# YOU SHOULD HAVE RECEIVED A COPY OF THE GNU GENERAL PUBLIC LICENSE     
# ALONG WITH THIS PROGRAM; IF NOT, WRITE TO EDF R&D CODE_ASTER,         
#    1 AVENUE DU GENERAL DE GAULLE, 92141 CLAMART CEDEX, FRANCE.        
# ======================================================================

DEBUT(CODE=_F( NOM = 'SSNL502D',NIV_PUB_WEB='INTERNET',VISU_EFICAS='OUI'));

#Acquisition du maillage de la poutre au format GIBI
#
#Poutre verticale encastree en pied (point PA) et libre en tete (point PB)

PRE_GIBI(UNITE_GIBI=17,
         UNITE_MAILLAGE=20,);

MA=LIRE_MAILLAGE(UNITE=20,);
#Acquisition du maillage de la section transverse (Poutre multi-fibres)
#
#Section divisee en 100 fibres (10 par cote)

PRE_GIBI(UNITE_GIBI=18,
         UNITE_MAILLAGE=21,);

MA_SECT=LIRE_MAILLAGE(UNITE=21,);
#Definition d'un groupe de noeuds qui contient tous les noeuds de la poutre : AB
#Idem pour AB_  mais sans le noeud en pied (pt A)

MA=DEFI_GROUP(reuse =MA,
              MAILLAGE=MA,
              CREA_GROUP_NO=(_F(TOUT_GROUP_MA='OUI',),
                             _F(DIFFE=('AB','PA',),
                                NOM='AB_',),),);
#Predeformation de la poutre suivant son premier mode de flambement (defaut de rectitude)
#
#Ici cela est fait "a la main" mais plus generalement on extrait le mode a partir d'un calcul non-lineaire.
b = 0.0005;

PII = 3.141592;


MODE_COS = FORMULE(VALE='b*(1-cos(PII*Y))',
                   NOM_PARA='Y',);

M_GEOM=CREA_CHAMP(TYPE_CHAM='NOEU_GEOM_R',
                  OPERATION='EXTR',
                  MAILLAGE=MA,
                  NOM_CHAM='GEOMETRIE',);

MODE1F=CREA_CHAMP(TYPE_CHAM='NOEU_NEUT_F',
                  OPERATION='AFFE',
                  MAILLAGE=MA,
                  AFFE=_F(
                  GROUP_NO='AB_',
                  NOM_CMP='X1',
                  VALE_F=MODE_COS,),);

MODE1R=CREA_CHAMP(TYPE_CHAM='NOEU_NEUT_R',
                  OPERATION='EVAL',
                  CHAM_F=MODE1F,
                  CHAM_PARA=M_GEOM,);

MODE_FLB=CREA_CHAMP(TYPE_CHAM='NOEU_DEPL_R',
                    OPERATION='ASSE',
                    MAILLAGE=MA,
                    ASSE=_F(
                    GROUP_NO='AB_',
                    CHAM_GD=MODE1R,
                    NOM_CMP='X1',
                    NOM_CMP_RESU='DX',),);

MA=MODI_MAILLAGE(reuse =MA,
                 MAILLAGE=MA,
                 DEFORME=_F(OPTION='TRAN',
                            DEPL=MODE_FLB,),);
#Corps du fichier de commandes

MO=AFFE_MODELE(MAILLAGE=MA,
               AFFE=_F(GROUP_MA='AB',
                       PHENOMENE='MECANIQUE',
                       MODELISATION='POU_D_TGM',),);

MAT=DEFI_MATERIAU(ELAS=_F(E=200000.0E+6,
                          NU=0.3,),);

GF=DEFI_GEOM_FIBRE(
   SECTION =_F(GROUP_FIBRE='SECF',
             GROUP_MA_SECT='SECT',
             MAILLAGE_SECT=MA_SECT,
            COOR_AXE_POUTRE=(0.,0.,),),)

COMPF=DEFI_COMPOR(GEOM_FIBRE=GF,MATER_SECT=MAT,
                  MULTIFIBRE=_F(GROUP_FIBRE='SECF',MATER=MAT,
                                 RELATION='ELAS',DEFORMATION='GROT_GDEP',),
                     )


CH_MAT=AFFE_MATERIAU(MAILLAGE=MA,
                  AFFE=_F(TOUT='OUI',MATER=MAT,),
                  AFFE_COMPOR=_F(TOUT='OUI',COMPOR=COMPF),
                 );

CARACT=AFFE_CARA_ELEM(MODELE=MO,
                      POUTRE=_F(GROUP_MA='AB',
                                SECTION='GENERALE',
                                CARA=('A','IY','IZ','AY','AZ','JX','JG',),
                                VALE=(0.0003375,1.58203e-07,5.69531e-10,1.2,1.2,2.19201e-09,0.0,),),
                      GEOM_FIBRE=GF,
                      MULTIFIBRE=_F(GROUP_MA='AB',
                                   GROUP_FIBRE='SECF'),);

LIAISON=AFFE_CHAR_MECA(MODELE=MO,
                       DDL_IMPO=(_F(GROUP_NO='PA',
                                    DX=0.0,
                                    DY=0.0,
                                    DRX=0.0,
                                    DRY=0.0,
                                    DRZ=0.0,),
                                 _F(GROUP_NO='AB',
                                    DZ=0.0,),),);

FORCE=AFFE_CHAR_MECA(MODELE=MO,
                     FORCE_NODALE=_F(GROUP_NO='PB',
                                     FY=-1124.21,),);

FO_MULT=DEFI_FONCTION(NOM_PARA='INST',
                      VALE=(0.0,0.0,10.0,10.0,),
                      PROL_DROITE='EXCLU',
                      PROL_GAUCHE='EXCLU',);
tfin = 19.95;


L_INST=DEFI_LIST_REEL(DEBUT=0.0,
                      INTERVALLE=(_F(JUSQU_A=0.9,
                                     NOMBRE=10,),
                                  _F(JUSQU_A=0.95,
                                     NOMBRE=5,),
                                  _F(JUSQU_A=tfin,
                                     NOMBRE=500,),),);
#Premier calcul non-lineaire avec PETIT_REAC pour s'approcher de la charge critique de flambement

RESO=STAT_NON_LINE(MODELE=MO,
                   CHAM_MATER=CH_MAT,
                   CARA_ELEM=CARACT,
                   EXCIT=(_F(CHARGE=LIAISON,),
                          _F(CHARGE=FORCE,
                             FONC_MULT=FO_MULT,),),
                   COMP_INCR=_F(RELATION='MULTIFIBRE',
                                GROUP_MA='AB',),
                   INCREMENT=_F(LIST_INST=L_INST,
                                INST_FIN=0.95,),
                   NEWTON=_F(MATRICE='TANGENTE',
                             REAC_ITER=1,),
                   CONVERGENCE=_F(RESI_GLOB_RELA=1e-05,
                                  ITER_GLOB_MAXI=100,),
                   );
#Difficulte a converger : on pilote en longueur d'arc

RESO=STAT_NON_LINE(reuse =RESO,
                   MODELE=MO,
                   CHAM_MATER=CH_MAT,
                   CARA_ELEM=CARACT,
                   EXCIT=(_F(CHARGE=LIAISON,),
                          _F(CHARGE=FORCE,
                             TYPE_CHARGE='FIXE_PILO',),),
                   COMP_INCR=_F(RELATION='MULTIFIBRE',),
                   ETAT_INIT=_F(
                   EVOL_NOLI=RESO,),
                   INCREMENT=_F(LIST_INST=L_INST,),
                   NEWTON=_F(MATRICE='TANGENTE',
                             REAC_ITER=1,),
                   PILOTAGE=_F(TYPE='LONG_ARC',
                               COEF_MULT=12.5,
                               ETA_PILO_MAX=9.116,
                               SELECTION='ANGL_INCR_DEPL',
                               GROUP_NO='AB_',
                               NOM_CMP=('DX','DY',),),
                   CONVERGENCE=_F(RESI_GLOB_RELA=1.0E-6,
                                  ITER_GLOB_MAXI=100,),
                   );
#

RESO=CALC_ELEM(reuse =RESO,
               RESULTAT=RESO,
               OPTION='SIEF_ELNO_ELGA',);

ETA=RECU_FONCTION(RESULTAT=RESO,
                  TOUT_ORDRE='OUI',
                  NOM_PARA_RESU='ETA_PILOTAGE',);

DEPX=RECU_FONCTION(RESULTAT=RESO,
                   TOUT_ORDRE='OUI',
                   NOM_CHAM='DEPL',
                   NOM_CMP='DX',
                   GROUP_NO='PB',);

DEPY=RECU_FONCTION(RESULTAT=RESO,
                   TOUT_ORDRE='OUI',
                   NOM_CHAM='DEPL',
                   NOM_CMP='DY',
                   GROUP_NO='PB',);

MDEPY=CALC_FONCTION(COMB=_F(FONCTION=DEPY,
                            COEF=-1.,),);

MZZ=RECU_FONCTION(RESULTAT=RESO,
                  TOUT_ORDRE='OUI',
                  NOM_CHAM='SIEF_ELNO_ELGA',
                  NOM_CMP='MFZ',
                  MAILLE='M1',
                  GROUP_NO='PA',);

MMZZ=CALC_FONCTION(COMB=_F(FONCTION=MZZ,
                           COEF=-1.0,),);

ETA_REF=DEFI_LIST_REEL(VALE=(0.0,1.015,1.063,1.152,1.293,1.518,1.884,2.541,4.029,9.116,),);
      
DEPX_REF=DEFI_LIST_REEL(VALE=(0.0,0.11,0.211,0.2965,0.3595,0.396,0.4015,0.375,0.3125,0.2105,),);
                            
DEPY_REF=DEFI_LIST_REEL(VALE=(0.0,0.015,0.0595,0.1295,0.22,0.3255,0.4385,0.5535,0.67,0.7885,),);

MMZZ_REF=DEFI_LIST_REEL(VALE=(0.0,127.58,248.32,380.45,519.41,674.33,849.74,1070.72,1412.44,2150.55,),);
                      
IMPR_FONCTION(FORMAT='XMGRACE',
              UNITE=29,
              COURBE=(_F(FONC_X=DEPX,
                         FONC_Y=ETA,),
                      _F(FONC_X=MDEPY,
                         FONC_Y=ETA,),
                      _F(LIST_PARA=DEPX_REF,
                         LIST_RESU=ETA_REF,),
                      _F(LIST_PARA=DEPY_REF,
                         LIST_RESU=ETA_REF,),),
              TITRE='Dx et Dy en fonction de P/Pcr',);

IMPR_FONCTION(FORMAT='XMGRACE',
              UNITE=30,
              COURBE=(_F(FONC_X=MMZZ,
                        FONC_Y=ETA,),
                     _F(LIST_PARA=MMZZ_REF,
                         LIST_RESU=ETA_REF,),),
              TITRE='Moment MZ en fonction de P/Pcr',);
      
# A PARTIR DES FONCTIONS 
#     - ETA  = F(INST,ETA_PILOTAGE), 
#     - DEPX = F(INST,DX)
#     - DEPY = F(INST,DY)
#     - MMZZ = F(INST,MFZ)
# ON CREE LES FONCTIONS 
#     - DX  = F(ETA), 
#     - DY  = F(ETA),
#     - MZ  = F(ETA)

T_ETA=CREA_TABLE(FONCTION=_F(FONCTION=ETA,),);

T_DEPX=CREA_TABLE(FONCTION=_F(FONCTION=DEPX,),);

T_DEPY=CREA_TABLE(FONCTION=_F(FONCTION=DEPY,),);

T_MZZ=CREA_TABLE(FONCTION=_F(FONCTION=MMZZ,),);

TAB_COMB=CALC_TABLE(TABLE=T_ETA,
                    ACTION=(_F(OPERATION='COMB', TABLE=T_DEPX, NOM_PARA='INST'),
                            _F(OPERATION='COMB', TABLE=T_DEPY, NOM_PARA='INST'),
                            _F(OPERATION='COMB', TABLE=T_MZZ,  NOM_PARA='INST'),),);

IMPR_TABLE(TABLE=TAB_COMB,);

DX_ETA=RECU_FONCTION(TABLE=TAB_COMB,
                     PARA_X='ETA_PILO',
                     PARA_Y='DX',
                     INTERPOL='LIN',
                     PROL_DROITE='CONSTANT',
                     PROL_GAUCHE='CONSTANT',);

DY_ETA=RECU_FONCTION(TABLE=TAB_COMB,
                     PARA_X='ETA_PILO',
                     PARA_Y='DY',
                     INTERPOL='LIN',
                     PROL_DROITE='CONSTANT',
                     PROL_GAUCHE='CONSTANT',);

MZ_ETA=RECU_FONCTION(TABLE=TAB_COMB,
                     PARA_X='ETA_PILO',
                     PARA_Y='MFZ',
                     INTERPOL='LIN',
                     PROL_DROITE='CONSTANT',
                     PROL_GAUCHE='CONSTANT',);
##IMPR_FONCTION(
##FORMAT='TABLEAU',
##
##COURBE=_F(FONCTION=DX_ETA,),
##UNITE=8,
##);

##IMPR_FONCTION(
##FORMAT='TABLEAU',
##
##COURBE=_F(FONCTION=DY_ETA,),
##UNITE=8,
##);

##IMPR_FONCTION(
##FORMAT='TABLEAU',
##
##COURBE=_F(FONCTION=MZ_ETA,),
##UNITE=8,
##);

IMPR_RESU(FORMAT='CASTEM',
          RESU=_F(MAILLAGE=MA,
                  RESULTAT=RESO,
                  NOM_CHAM='DEPL',),);

# 3 PREMIERES VALEURS ELOIGNEES DE LA SOLUTION ANALYTIQUE A CAUSE DU DEFAUT DE RECTITUDE

TEST_FONCTION(VALEUR=(_F(FONCTION=DX_ETA,
                         VALE_PARA=1.015,
                         VALE_REFE=0.11,
                         CRITERE='RELATIF',
                         PRECISION=0.55,
                         REFERENCE='ANALYTIQUE',),
                      _F(FONCTION=DX_ETA,
                         VALE_PARA=1.063,
                         VALE_REFE=0.211,
                         CRITERE='RELATIF',
                         PRECISION=0.1,
                         REFERENCE='ANALYTIQUE',),
                      _F(FONCTION=DX_ETA,
                         VALE_PARA=1.152,
                         VALE_REFE=0.2965,
                         CRITERE='RELATIF',
                         PRECISION=0.03,
                         REFERENCE='ANALYTIQUE',),
                      _F(FONCTION=DX_ETA,
                         VALE_PARA=1.293,
                         VALE_REFE=0.3595,
                         CRITERE='RELATIF',
                         PRECISION=0.01,
                         REFERENCE='ANALYTIQUE',),
                      _F(FONCTION=DX_ETA,
                         VALE_PARA=1.518,
                         VALE_REFE=0.396,
                         CRITERE='RELATIF',
                         PRECISION=0.015,
                         REFERENCE='ANALYTIQUE',),
                      _F(FONCTION=DX_ETA,
                         VALE_PARA=1.884,
                         VALE_REFE=0.4015,
                         CRITERE='RELATIF',
                         PRECISION=0.01,
                         REFERENCE='ANALYTIQUE',),
                      _F(FONCTION=DX_ETA,
                         VALE_PARA=2.541,
                         VALE_REFE=0.375,
                         CRITERE='RELATIF',
                         PRECISION=0.01,
                         REFERENCE='ANALYTIQUE',),
                      _F(FONCTION=DX_ETA,
                         VALE_PARA=4.029,
                         VALE_REFE=0.3125,
                         CRITERE='RELATIF',
                         PRECISION=0.01,
                         REFERENCE='ANALYTIQUE',),
                      _F(FONCTION=DX_ETA,
                         VALE_PARA=9.116,
                         VALE_REFE=0.2105,
                         CRITERE='RELATIF',
                         PRECISION=0.01,
                         REFERENCE='ANALYTIQUE',),),);
# 3 PREMIERES VALEURS ELOIGNEES DE LA SOLUTION ANALYTIQUE A CAUSE DU DEFAUT DE RECTITUDE

TEST_FONCTION(VALEUR=(_F(FONCTION=DY_ETA,
                         VALE_PARA=1.015,
                         VALE_REFE=-0.015,
                         CRITERE='RELATIF',
                         PRECISION=0.8,
                         REFERENCE='ANALYTIQUE',),
                      _F(FONCTION=DY_ETA,
                         VALE_PARA=1.063,
                         VALE_REFE=-0.0595,
                         CRITERE='RELATIF',
                         PRECISION=0.2,
                         REFERENCE='ANALYTIQUE',),
                      _F(FONCTION=DY_ETA,
                         VALE_PARA=1.152,
                         VALE_REFE=-0.1295,
                         CRITERE='RELATIF',
                         PRECISION=0.07,
                         REFERENCE='ANALYTIQUE',),
                      _F(FONCTION=DY_ETA,
                         VALE_PARA=1.293,
                         VALE_REFE=-0.22,
                         CRITERE='RELATIF',
                         PRECISION=0.04,
                         REFERENCE='ANALYTIQUE',),
                      _F(FONCTION=DY_ETA,
                         VALE_PARA=1.518,
                         VALE_REFE=-0.3255,
                         CRITERE='RELATIF',
                         PRECISION=0.02,
                         REFERENCE='ANALYTIQUE',),
                      _F(FONCTION=DY_ETA,
                         VALE_PARA=1.884,
                         VALE_REFE=-0.4385,
                         CRITERE='RELATIF',
                         PRECISION=0.01,
                         REFERENCE='ANALYTIQUE',),
                      _F(FONCTION=DY_ETA,
                         VALE_PARA=2.541,
                         VALE_REFE=-0.5535,
                         CRITERE='RELATIF',
                         PRECISION=0.01,
                         REFERENCE='ANALYTIQUE',),
                      _F(FONCTION=DY_ETA,
                         VALE_PARA=4.029,
                         VALE_REFE=-0.67,
                         CRITERE='RELATIF',
                         PRECISION=0.01,
                         REFERENCE='ANALYTIQUE',),
                      _F(FONCTION=DY_ETA,
                         VALE_PARA=9.116,
                         VALE_REFE=-0.7885,
                         CRITERE='RELATIF',
                         PRECISION=0.015,
                         REFERENCE='ANALYTIQUE',),),);
# 3 PREMIERES VALEURS ELOIGNEES DE LA SOLUTION ANALYTIQUE A CAUSE DU DEFAUT DE RECTITUDE

TEST_FONCTION(VALEUR=(_F(FONCTION=MZ_ETA,
                         VALE_PARA=1.015,
                         VALE_REFE=127.58,
                         CRITERE='RELATIF',
                         PRECISION=0.56,
                         REFERENCE='ANALYTIQUE',),
                      _F(FONCTION=MZ_ETA,
                         VALE_PARA=1.063,
                         VALE_REFE=248.32,
                         CRITERE='RELATIF',
                         PRECISION=0.1,
                         REFERENCE='ANALYTIQUE',),
                      _F(FONCTION=MZ_ETA,
                         VALE_PARA=1.152,
                         VALE_REFE=380.45,
                         CRITERE='RELATIF',
                         PRECISION=0.03,
                         REFERENCE='ANALYTIQUE',),
                      _F(FONCTION=MZ_ETA,
                         VALE_PARA=1.293,
                         VALE_REFE=519.41,
                         CRITERE='RELATIF',
                         PRECISION=0.01,
                         REFERENCE='ANALYTIQUE',),
                      _F(FONCTION=MZ_ETA,
                         VALE_PARA=1.518,
                         VALE_REFE=674.33,
                         CRITERE='RELATIF',
                         PRECISION=0.01,
                         REFERENCE='ANALYTIQUE',),
                      _F(FONCTION=MZ_ETA,
                         VALE_PARA=1.884,
                         VALE_REFE=849.74,
                         CRITERE='RELATIF',
                         PRECISION=0.01,
                         REFERENCE='ANALYTIQUE',),
                      _F(FONCTION=MZ_ETA,
                         VALE_PARA=2.541,
                         VALE_REFE=1070.72,
                         CRITERE='RELATIF',
                         PRECISION=0.01,
                         REFERENCE='ANALYTIQUE',),
                      _F(FONCTION=MZ_ETA,
                         VALE_PARA=4.029,
                         VALE_REFE=1412.44,
                         CRITERE='RELATIF',
                         PRECISION=0.01,
                         REFERENCE='ANALYTIQUE',),
                      _F(FONCTION=MZ_ETA,
                         VALE_PARA=9.116,
                         VALE_REFE=2150.55,
                         CRITERE='RELATIF',
                         PRECISION=0.01,
                         REFERENCE='ANALYTIQUE',),),);

TEST_FONCTION(VALEUR=(
_F(FONCTION=DX_ETA,CRITERE='RELATIF',REFERENCE='NON_REGRESSION',VERSION='8.3.2',VALE_PARA=1.015, VALE_REFE=1.3459006758163E-01),
_F(FONCTION=DX_ETA,CRITERE='RELATIF',REFERENCE='NON_REGRESSION',VERSION='8.3.2',VALE_PARA=1.063, VALE_REFE=2.1647977585992E-01),
_F(FONCTION=DX_ETA,CRITERE='RELATIF',REFERENCE='NON_REGRESSION',VERSION='8.3.2',VALE_PARA=1.152, VALE_REFE=2.9630084607233E-01),
_F(FONCTION=DX_ETA,CRITERE='RELATIF',REFERENCE='NON_REGRESSION',VERSION='8.3.2',VALE_PARA=1.293, VALE_REFE=3.5640046410569E-01),
_F(FONCTION=DX_ETA,CRITERE='RELATIF',REFERENCE='NON_REGRESSION',VERSION='8.3.2',VALE_PARA=1.518, VALE_REFE=3.9182353883220E-01),
_F(FONCTION=DX_ETA,CRITERE='RELATIF',REFERENCE='NON_REGRESSION',VERSION='8.3.2',VALE_PARA=1.884, VALE_REFE=3.9786910787092E-01),
_F(FONCTION=DX_ETA,CRITERE='RELATIF',REFERENCE='NON_REGRESSION',VERSION='8.3.2',VALE_PARA=2.541, VALE_REFE=3.7227290909884E-01),
_F(FONCTION=DX_ETA,CRITERE='RELATIF',REFERENCE='NON_REGRESSION',VERSION='8.3.2',VALE_PARA=4.029, VALE_REFE=3.1050717196441E-01),
_F(FONCTION=DX_ETA,CRITERE='RELATIF',REFERENCE='NON_REGRESSION',VERSION='8.3.2',VALE_PARA=9.116, VALE_REFE=2.1049785006189E-01),
                        ),)


   
# 3 PREMIERES VALEURS ELOIGNEES DE LA SOLUTION ANALYTIQUE A CAUSE DE LA PERTURBATION
TEST_FONCTION(VALEUR=(
_F(FONCTION=DY_ETA,CRITERE='RELATIF',REFERENCE='NON_REGRESSION',VERSION='8.3.2',VALE_PARA=1.015, VALE_REFE=-2.4104020077641E-02),
_F(FONCTION=DY_ETA,CRITERE='RELATIF',REFERENCE='NON_REGRESSION',VERSION='8.3.2',VALE_PARA=1.063, VALE_REFE=-6.4733490663647E-02),
_F(FONCTION=DY_ETA,CRITERE='RELATIF',REFERENCE='NON_REGRESSION',VERSION='8.3.2',VALE_PARA=1.152, VALE_REFE=-1.3265572752402E-01),
_F(FONCTION=DY_ETA,CRITERE='RELATIF',REFERENCE='NON_REGRESSION',VERSION='8.3.2',VALE_PARA=1.293, VALE_REFE=-2.2024705224985E-01),
_F(FONCTION=DY_ETA,CRITERE='RELATIF',REFERENCE='NON_REGRESSION',VERSION='8.3.2',VALE_PARA=1.518, VALE_REFE=-3.2359491603360E-01),
_F(FONCTION=DY_ETA,CRITERE='RELATIF',REFERENCE='NON_REGRESSION',VERSION='8.3.2',VALE_PARA=1.884, VALE_REFE=-4.3463130818167E-01),
_F(FONCTION=DY_ETA,CRITERE='RELATIF',REFERENCE='NON_REGRESSION',VERSION='8.3.2',VALE_PARA=2.541, VALE_REFE=-5.4811495685530E-01),
_F(FONCTION=DY_ETA,CRITERE='RELATIF',REFERENCE='NON_REGRESSION',VERSION='8.3.2',VALE_PARA=4.029, VALE_REFE=-6.6331945267184E-01),
_F(FONCTION=DY_ETA,CRITERE='RELATIF',REFERENCE='NON_REGRESSION',VERSION='8.3.2',VALE_PARA=9.116, VALE_REFE=-7.7957755591576E-01),
                        ),)

# 3 PREMIERES VALEURS ELOIGNEES DE LA SOLUTION ANALYTIQUE A CAUSE DE LA PERTURBATION
TEST_FONCTION(VALEUR=(
_F(FONCTION=MZ_ETA,CRITERE='RELATIF',REFERENCE='NON_REGRESSION',VERSION='8.3.2',VALE_PARA=1.015, VALE_REFE=1.5414803184754E+02),
_F(FONCTION=MZ_ETA,CRITERE='RELATIF',REFERENCE='NON_REGRESSION',VERSION='8.3.2',VALE_PARA=1.063, VALE_REFE=2.5929920402290E+02),
_F(FONCTION=MZ_ETA,CRITERE='RELATIF',REFERENCE='NON_REGRESSION',VERSION='8.3.2',VALE_PARA=1.152, VALE_REFE=3.8438907694746E+02),
_F(FONCTION=MZ_ETA,CRITERE='RELATIF',REFERENCE='NON_REGRESSION',VERSION='8.3.2',VALE_PARA=1.293, VALE_REFE=5.1879466633361E+02),
_F(FONCTION=MZ_ETA,CRITERE='RELATIF',REFERENCE='NON_REGRESSION',VERSION='8.3.2',VALE_PARA=1.518, VALE_REFE=6.6952167703581E+02),
_F(FONCTION=MZ_ETA,CRITERE='RELATIF',REFERENCE='NON_REGRESSION',VERSION='8.3.2',VALE_PARA=1.884, VALE_REFE=8.4374786858368E+02),
_F(FONCTION=MZ_ETA,CRITERE='RELATIF',REFERENCE='NON_REGRESSION',VERSION='8.3.2',VALE_PARA=2.541, VALE_REFE=1.0648513488010E+03),
_F(FONCTION=MZ_ETA,CRITERE='RELATIF',REFERENCE='NON_REGRESSION',VERSION='8.3.2',VALE_PARA=4.029, VALE_REFE=1.4086154570369E+03),
_F(FONCTION=MZ_ETA,CRITERE='RELATIF',REFERENCE='NON_REGRESSION',VERSION='8.3.2',VALE_PARA=9.116, VALE_REFE=2.1623413779566E+03),
                        ),)

FIN();
