# TITRE POUTRE ENCASTREE A UNE EXTREMITE ET CHARGEE PAR UNE TRACTION
# ======================================================================
# COPYRIGHT (C) 1991 - 2013  EDF R&D                  WWW.CODE-ASTER.ORG
# THIS PROGRAM IS FREE SOFTWARE; YOU CAN REDISTRIBUTE IT AND/OR MODIFY
# IT UNDER THE TERMS OF THE GNU GENERAL PUBLIC LICENSE AS PUBLISHED BY
# THE FREE SOFTWARE FOUNDATION; EITHER VERSION 2 OF THE LICENSE, OR
# (AT YOUR OPTION) ANY LATER VERSION.
#
# THIS PROGRAM IS DISTRIBUTED IN THE HOPE THAT IT WILL BE USEFUL, BUT
# WITHOUT ANY WARRANTY; WITHOUT EVEN THE IMPLIED WARRANTY OF
# MERCHANTABILITY OR FITNESS FOR A PARTICULAR PURPOSE. SEE THE GNU
# GENERAL PUBLIC LICENSE FOR MORE DETAILS.
#
# YOU SHOULD HAVE RECEIVED A COPY OF THE GNU GENERAL PUBLIC LICENSE
# ALONG WITH THIS PROGRAM; IF NOT, WRITE TO EDF R&D CODE_ASTER,
#    1 AVENUE DU GENERAL DE GAULLE, 92141 CLAMART CEDEX, FRANCE.
# ======================================================================
# MODELISATION POU_D_EM.


DEBUT( CODE=_F(NIV_PUB_WEB='INTERNET'),DEBUG=_F(SDVERI='OUI'));

MA=LIRE_MAILLAGE(  )

MO=AFFE_MODELE( MAILLAGE=MA,
                AFFE=_F( TOUT = 'OUI', PHENOMENE = 'MECANIQUE',
                         MODELISATION = 'POU_D_EM',)
                        );
GF=DEFI_GEOM_FIBRE(
                   FIBRE = _F( GROUP_FIBRE='SFIB',
                   CARA = 'DIAMETRE',
                   COOR_AXE_POUTRE = (0.,0.,),
                   VALE =( 0.0, 0.0, 6.E-3,),),
            );


CAREL=AFFE_CARA_ELEM(MODELE=MO,INFO=2,
POUTRE=_F(GROUP_MA='TOUT',
SECTION='GENERALE',
            CARA=('A','AY','AZ','IY','IZ','JX','EY','EZ'),
            VALE=(2.82743e-5,1.0,1.0,6.36172e-11,6.36172e-11,12.72344e-11,0.,0.), ),
GEOM_FIBRE=GF,
MULTIFIBRE=_F(GROUP_MA = 'TOUT', PREC_AIRE=1.2E-06, PREC_INERTIE=1.1, GROUP_FIBRE='SFIB'     ),
);


# ------ TRACTION SIMPLE AVEC ECROUISSAGE ------------------------------
# AFFECTE SUR LA SECTION CERCLE

MATC2=DEFI_MATERIAU(
                ELAS=_F(
                   E = 2.E11,
                   NU = 0.3,),
                CORR_ACIER=_F(
                   D_CORR=0.2,
                   ECRO_K=500.E6,
                   ECRO_M=2.781,
                   SY = 500.E6,)
              );

COMPF=DEFI_COMPOR(GEOM_FIBRE=GF,MATER_SECT=MATC2,
                  MULTIFIBRE=(_F(GROUP_FIBRE='SFIB',
                                 MATER=MATC2,
                                 RELATION='CORR_ACIER'),),);


CHART=AFFE_CHAR_MECA(  MODELE=MO,DDL_IMPO=(
     _F( GROUP_NO = 'A', DX = 0., DY = 0., DZ = 0.,
      DRX =0., DRY = 0., DRZ  = 0.,),
     _F( GROUP_NO = 'A1', DY = 0., DZ = 0.,
          DRX =0., DRY = 0., DRZ  = 0.,),
     _F( GROUP_NO = 'A2', DY = 0., DZ = 0.,
            DRX =0., DRY = 0., DRZ  = 0., ),
     _F( GROUP_NO = 'A3', DY = 0., DZ = 0.,
             DRX =0., DRY = 0., DRZ  = 0.,),
     _F( GROUP_NO = 'A4', DY = 0., DZ = 0.,
             DRX =0., DRY = 0., DRZ  = 0.,),
     _F( GROUP_NO = 'A5', DY = 0., DZ = 0.,
             DRX =0., DRY = 0., DRZ  = 0.,),
     _F( GROUP_NO = 'A6', DY = 0., DZ = 0.,
              DRX =0., DRY = 0., DRZ  = 0.,),
     _F( GROUP_NO = 'A7', DY = 0., DZ = 0.,
              DRX =0., DRY = 0., DRZ  = 0.,),
     _F( GROUP_NO = 'A8', DY = 0., DZ = 0.,
               DRX =0., DRY = 0., DRZ  = 0.,),
     _F( GROUP_NO = 'A9', DY = 0., DZ = 0.,
                DRX =0., DRY = 0., DRZ  = 0.,),
     _F( GROUP_NO = 'A9', DY = 0., DZ = 0.,
                DRX =0., DRY = 0., DRZ  = 0.,),
     _F( GROUP_NO = 'B', DX = 1.,DY = 0., DZ = 0.,
                 DRX =0., DRY = 0., DRZ  = 0.,))
    );

FONCT=DEFI_FONCTION(  NOM_PARA='INST',
                      VALE=( 0., 0., 1., 1., ) ,);

#

CHCOR=CREA_CHAMP(TYPE_CHAM='CART_CORR_R',
                 OPERATION='AFFE',
                 MAILLAGE=MA,
                 AFFE=_F(
                 TOUT='OUI',
                 NOM_CMP='CORR',
                 VALE=0.0,),);

LINST=DEFI_LIST_REEL(DEBUT=0.0,
                     INTERVALLE=(_F(JUSQU_A=0.002,
                                    NOMBRE=10,),
                                 _F(JUSQU_A=0.018,
                                    NOMBRE=20,),
                                 _F(JUSQU_A=0.02,
                                    NOMBRE=10,),),);

CHMAT1=AFFE_MATERIAU(   MAILLAGE=MA,
     AFFE= _F( GROUP_MA = 'TOUT', MATER = MATC2),
      AFFE_VARC=_F(NOM_VARC='CORR', CHAM_GD=CHCOR,),
      AFFE_COMPOR=_F(GROUP_MA = 'TOUT',COMPOR=COMPF ), );

REST=STAT_NON_LINE(MODELE=MO, CHAM_MATER=CHMAT1, CARA_ELEM=CAREL,
                   EXCIT=_F(CHARGE=CHART,
                            FONC_MULT=FONCT,),
                   COMPORTEMENT=_F(RELATION='MULTIFIBRE',
                                GROUP_MA='TOUT',
                                RESI_INTE_RELA=1e-06,
                                ITER_INTE_MAXI=150,),
                   INCREMENT=_F(LIST_INST=LINST,),
                   NEWTON=_F(REAC_INCR=1,
                             PREDICTION='ELASTIQUE',
                             MATRICE='TANGENTE',
                             REAC_ITER=3,),
                   RECH_LINEAIRE=_F(ITER_LINE_MAXI=3,
                                    RHO_MIN=1e-06,
                                    RHO_EXCL=1e-8,
                                    RHO_MAX=10.0,),
                   CONVERGENCE=_F(RESI_GLOB_RELA=1e-05,
                                  ITER_GLOB_MAXI=10),);

CALC_CHAMP(reuse=REST,RESULTAT=REST,  CONTRAINTE=('EFGE_ELNO'))

NdeU=RECU_FONCTION(RESULTAT=REST,
                   NOM_CHAM='EFGE_ELNO',
                   NOM_CMP='N',
                   MAILLE='SR1',
                   NOEUD='R3');

DdeU=RECU_FONCTION(RESULTAT=REST,
                   NOM_CHAM='VARI_ELGA',
                   NOM_CMP='V2',
                   MAILLE='SR1',
                   POINT=1,);

PdeU=RECU_FONCTION(RESULTAT=REST,
                   NOM_CHAM='VARI_ELGA',
                   NOM_CMP='V1',
                   MAILLE='SR1',
                   POINT=1,);

IMPR_FONCTION(FORMAT='TABLEAU',
              COURBE=_F(FONCTION=NdeU,),
              UNITE=8,);

IMPR_FONCTION(FORMAT='TABLEAU',
              COURBE=_F(FONCTION=PdeU,),
              UNITE=8,);

IMPR_FONCTION(FORMAT='TABLEAU',
              COURBE=_F(FONCTION=DdeU,),
              UNITE=8,);

CHCOR2=CREA_CHAMP(TYPE_CHAM='CART_CORR_R',
                  OPERATION='AFFE',
                  MAILLAGE=MA,
                  AFFE=_F(
                  TOUT='OUI',
                  NOM_CMP='CORR',
                  VALE=2.5,),);

LINST2=DEFI_LIST_REEL(DEBUT=0.0,
                      INTERVALLE=(_F(JUSQU_A=0.002,
                                     NOMBRE=10,),
                                  _F(JUSQU_A=0.018,
                                     NOMBRE=20,),),);

CHMAT2=AFFE_MATERIAU(   MAILLAGE=MA,
     AFFE= _F( GROUP_MA = 'TOUT', MATER = MATC2),
      AFFE_VARC=_F(NOM_VARC='CORR', CHAM_GD=CHCOR2,),
      AFFE_COMPOR=_F(GROUP_MA = 'TOUT',COMPOR=COMPF ), )

REST2=STAT_NON_LINE(MODELE=MO, CHAM_MATER=CHMAT2, CARA_ELEM=CAREL,
                    EXCIT=_F(CHARGE=CHART,
                             FONC_MULT=FONCT,),
                    COMPORTEMENT=_F(RELATION='MULTIFIBRE',
                                 GROUP_MA='TOUT',
                                 RESI_INTE_RELA=1e-06,
                                 ITER_INTE_MAXI=15,),
                    INCREMENT=_F(LIST_INST=LINST2,),
                    NEWTON=_F(REAC_INCR=1,
                              PREDICTION='ELASTIQUE',
                              MATRICE='TANGENTE',
                              PAS_MINI_ELAS=0.0001,
                              REAC_ITER=3,),
                    RECH_LINEAIRE=_F(ITER_LINE_MAXI=3,
                                     RHO_MIN=1e-06,
                                     RHO_EXCL=1e-8,
                                     RHO_MAX=10.0,),
                    CONVERGENCE=_F(RESI_GLOB_RELA=1e-06,
                                   ITER_GLOB_MAXI=10,
                                   ITER_GLOB_ELAS=10),
                    );

CALC_CHAMP(reuse=REST2,RESULTAT=REST2,  CONTRAINTE=('EFGE_ELNO'),);

NdeU2=RECU_FONCTION(RESULTAT=REST2,
                    NOM_CHAM='EFGE_ELNO',
                    NOM_CMP='N',
                    MAILLE='SR1',
                    NOEUD='R3');

DdeU2=RECU_FONCTION(RESULTAT=REST2,
                    NOM_CHAM='VARI_ELGA',
                    NOM_CMP='V2',
                    MAILLE='SR1',
                    POINT=1,);

PdeU2=RECU_FONCTION(RESULTAT=REST2,
                    NOM_CHAM='VARI_ELGA',
                    NOM_CMP='V1',
                    MAILLE='SR1',
                    POINT=1,);

IMPR_FONCTION(FORMAT='TABLEAU',
              COURBE=_F(FONCTION=NdeU2,),
              UNITE=8,);

IMPR_FONCTION(FORMAT='TABLEAU',
              COURBE=_F(FONCTION=PdeU2,),
              UNITE=8,);

IMPR_FONCTION(FORMAT='TABLEAU',
              COURBE=_F(FONCTION=DdeU2,),
              UNITE=8,);

CHCOR3=CREA_CHAMP(TYPE_CHAM='CART_CORR_R',
                  OPERATION='AFFE',
                  MAILLAGE=MA,
                  AFFE=_F(
                  TOUT='OUI',
                  NOM_CMP='CORR',
                  VALE=13.0,),);

LINST3=DEFI_LIST_REEL(DEBUT=0.0,
                      INTERVALLE=(_F(JUSQU_A=0.003,
                                     NOMBRE=10,),
                                  _F(JUSQU_A=0.008,
                                     NOMBRE=30,),),);

CHMAT3=AFFE_MATERIAU(   MAILLAGE=MA,
     AFFE= _F( GROUP_MA = 'TOUT', MATER = MATC2),
      AFFE_VARC=_F(NOM_VARC='CORR', CHAM_GD=CHCOR3,),
      AFFE_COMPOR=_F(GROUP_MA = 'TOUT',COMPOR=COMPF ) )

REST3=STAT_NON_LINE(MODELE=MO, CHAM_MATER=CHMAT3, CARA_ELEM=CAREL,
                    EXCIT=_F(CHARGE=CHART,
                             FONC_MULT=FONCT,),
                    COMPORTEMENT=_F(RELATION='MULTIFIBRE',
                                 GROUP_MA='TOUT',
                                 RESI_INTE_RELA=1e-06,
                                 ITER_INTE_MAXI=15),
                    INCREMENT=_F(LIST_INST=LINST3,),
                    NEWTON=_F(REAC_INCR=1,
                              PREDICTION='ELASTIQUE',
                              MATRICE='TANGENTE',
                              PAS_MINI_ELAS=0.0001,
                              REAC_ITER=3,),
                    RECH_LINEAIRE=_F(ITER_LINE_MAXI=3,
                                     RHO_MIN=1e-06,
                                     RHO_EXCL=1e-8,
                                     RHO_MAX=10.0,),
                    CONVERGENCE=_F(RESI_GLOB_RELA=1e-06,
                                   ITER_GLOB_MAXI=10,
                                   ITER_GLOB_ELAS=10),
                    );

CALC_CHAMP(reuse=REST3,RESULTAT=REST3,  CONTRAINTE=('EFGE_ELNO'))

NdeU3=RECU_FONCTION(RESULTAT=REST3,
                    NOM_CHAM='EFGE_ELNO',
                    NOM_CMP='N',
                    MAILLE='SR1',
                    NOEUD='R3',);

DdeU3=RECU_FONCTION(RESULTAT=REST3,
                    NOM_CHAM='VARI_ELGA',
                    NOM_CMP='V2',
                    MAILLE='SR1',
                    POINT=1,);

PdeU3=RECU_FONCTION(RESULTAT=REST3,
                    NOM_CHAM='VARI_ELGA',
                    NOM_CMP='V1',
                    MAILLE='SR1',
                    POINT=1,);

IMPR_FONCTION(FORMAT='TABLEAU',
              COURBE=_F(FONCTION=NdeU3,),
              UNITE=8,);

IMPR_FONCTION(FORMAT='TABLEAU',
              COURBE=_F(FONCTION=PdeU3,),
              UNITE=8,);

IMPR_FONCTION(FORMAT='TABLEAU',
              COURBE=_F(FONCTION=DdeU3,),
              UNITE=8,);

TEST_RESU(RESU=(_F(INST=0.019,
                   RESULTAT=REST,
                   NOM_CHAM='EFGE_ELNO',
                   NOEUD='R3',
                   NOM_CMP='N',
                   VALE_CALC=21860.493024512,
                   MAILLE='SR1',),
                _F(INST=0.02,
                   RESULTAT=REST,
                   NOM_CHAM='EFGE_ELNO',
                   NOEUD='R3',
                   NOM_CMP='N',
                   VALE_CALC=21196.907250844,
                   MAILLE='SR1',
                   ),
                _F(INST=0.02,
                   POINT=1,
                   RESULTAT=REST,
                   NOM_CHAM='VARI_ELGA',
                   NOM_CMP='V1',
                   VALE_CALC=0.19625156381384,
                   MAILLE='SR1',
                   ),
                _F(INST=0.019199999999999998,
                   POINT=1,
                   RESULTAT=REST,
                   NOM_CHAM='VARI_ELGA',
                   NOM_CMP='V2',
                   VALE_CALC=2.2934904425136E-03,
                   MAILLE='SR1',
                   ),
                ),
          )

TEST_RESU(RESU=(_F(INST=0.0164,
                   RESULTAT=REST2,
                   NOM_CHAM='EFGE_ELNO',
                   NOEUD='R3',
                   NOM_CMP='N',
                   VALE_CALC=21454.919282966,
                   MAILLE='SR1',),
                _F(INST=0.017999999999999999,
                   RESULTAT=REST2,
                   NOM_CHAM='EFGE_ELNO',
                   NOEUD='R3',
                   NOM_CMP='N',
                   VALE_CALC=20560.793614686,
                   MAILLE='SR1',
                   ),
                _F(INST=0.018,
                   POINT=1,
                   RESULTAT=REST2,
                   NOM_CHAM='VARI_ELGA',
                   NOM_CMP='V1',
                   VALE_CALC=0.17636405340461,
                   MAILLE='SR1',
                   ),
                _F(INST=0.0172,
                   POINT=1,
                   RESULTAT=REST2,
                   NOM_CHAM='VARI_ELGA',
                   NOM_CMP='V2',
                   VALE_CALC=0.013713776647071,
                   MAILLE='SR1',
                   ),
                ),
          )

TEST_RESU(RESU=(_F(INST=7.5E-3,
                   RESULTAT=REST3,
                   NOM_CHAM='EFGE_ELNO',
                   NOEUD='R3',
                   NOM_CMP='N',
                   VALE_CALC=19613.115412822,
                   MAILLE='SR1',),
                _F(INST=8.0000000000000002E-3,
                   RESULTAT=REST3,
                   NOM_CHAM='EFGE_ELNO',
                   NOEUD='R3',
                   NOM_CMP='N',
                   VALE_CALC=18761.485426861,
                   MAILLE='SR1',
                   ),
                _F(INST=8.0E-3,
                   POINT=1,
                   RESULTAT=REST3,
                   NOM_CHAM='VARI_ELGA',
                   NOM_CMP='V1',
                   VALE_CALC=0.076682240949241,
                   MAILLE='SR1',
                   ),
                _F(INST=7.6666700000000004E-3,
                   POINT=1,
                   RESULTAT=REST3,
                   NOM_CHAM='VARI_ELGA',
                   NOM_CMP='V2',
                   VALE_CALC=0.011877894794075,
                   MAILLE='SR1',
                   ),
                ),
          )

IMPR_FONCTION(FORMAT='XMGRACE',
              PILOTE='POSTSCRIPT',
              COURBE=(_F(FONCTION=NdeU,
                         LEGENDE='O% CORROSION',),
                      _F(FONCTION=NdeU2,
                         LEGENDE='2.5% CORROSION',),
                      _F(FONCTION=NdeU3,
                         LEGENDE='13% CORROSION',),),);

FIN();
