# MODIF  DATE 13/01/2011   AUTEUR PELLET J.PELLET 

# TITRE PLAQUE ENCASTREE SOUSMISE A UNE FLEXION PAR DES POUTRES
#            CONFIGURATION MANAGEMENT OF EDF VERSION
# ======================================================================
# COPYRIGHT (C) 1991 - 2011  EDF R&D                  WWW.CODE-ASTER.ORG
# THIS PROGRAM IS FREE SOFTWARE; YOU CAN REDISTRIBUTE IT AND/OR MODIFY
# IT UNDER THE TERMS OF THE GNU GENERAL PUBLIC LICENSE AS PUBLISHED BY
# THE FREE SOFTWARE FOUNDATION; EITHER VERSION 2 OF THE LICENSE, OR
# (AT YOUR OPTION) ANY LATER VERSION.
#
# THIS PROGRAM IS DISTRIBUTED IN THE HOPE THAT IT WILL BE USEFUL, BUT
# WITHOUT ANY WARRANTY; WITHOUT EVEN THE IMPLIED WARRANTY OF
# MERCHANTABILITY OR FITNESS FOR A PARTICULAR PURPOSE. SEE THE GNU
# GENERAL PUBLIC LICENSE FOR MORE DETAILS.
#
# YOU SHOULD HAVE RECEIVED A COPY OF THE GNU GENERAL PUBLIC LICENSE
# ALONG WITH THIS PROGRAM; IF NOT, WRITE TO EDF R&D CODE_ASTER,
#    1 AVENUE DU GENERAL DE GAULLE, 92141 CLAMART CEDEX, FRANCE.
# ======================================================================

# PLAQUE ENCASTREE SOUSMISE A UNE FLEXION PAR DES POUTRES
# EN CONTACT AVEC LE BORD LIBRE
# MODELISATION POU_D_E ET DKQ


DEBUT(CODE=_F(NOM='SSNL107D',NIV_PUB_WEB='INTERNET'),DEBUG=_F(SDVERI='OUI'))

PRE_GIBI();

MA=LIRE_MAILLAGE(VERI_MAIL=_F(VERIF='OUI',),);

MA=DEFI_GROUP(reuse =MA,
              MAILLAGE=MA,
              CREA_GROUP_NO=_F(GROUP_MA='L1',),);

MO=AFFE_MODELE(MAILLAGE=MA,
               AFFE=(_F(GROUP_MA='S1',
                        PHENOMENE='MECANIQUE',
                        MODELISATION='DKT',),
                     _F(GROUP_MA=('COQU1','COQU2','POUT1','POUT2'),
                        PHENOMENE='MECANIQUE',
                        MODELISATION='DIS_TR',),
                     _F(GROUP_MA='POUTRE',
                        PHENOMENE='MECANIQUE',
                        MODELISATION='POU_D_E',),),);

MAT=DEFI_MATERIAU(ELAS=_F(E=200000.0,
                          NU=0.3,),);

CARA=AFFE_CARA_ELEM(MODELE=MO,
                    POUTRE=_F(GROUP_MA='POUTRE',
                              SECTION='CERCLE',
                              CARA=('R','EP',),
                              VALE=(0.002,0.0002,),),
                    COQUE=_F(GROUP_MA='S1',
                             EPAIS=0.1,
                             COQUE_NCOU=19,),
                    DISCRET=_F(GROUP_MA=('COQU1','COQU2','POUT1','POUT2'),
                               CARA='M_TR_D_N',
                               VALE=(0.0,0.0,0.0,0.0,0.0,0.0,0.0,0.0,0.0,0.0,),),);

CHMAT=AFFE_MATERIAU(MAILLAGE=MA,
                    AFFE=_F(TOUT='OUI',
                            MATER=MAT,),);

F_DIST_E=DEFI_CONSTANTE(VALE=-0.2)

CHA=AFFE_CHAR_MECA(VERI_NORM='NON',
                   MODELE=MO,
                   DDL_IMPO=(_F(GROUP_NO='L1',
                                DX=0.0,
                                DY=0.0,
                                DZ=0.0,
                                DRX=0.0,
                                DRY=0.0,
                                DRZ=0.0,),
                             _F(GROUP_NO=('P5','P6',),
                                DX=0.0,
                                DY=0.0,
                                DZ=-0.2,
                                DRX=0.0,
                                DRY=0.0,
                                DRZ=0.0,),),
                   );


CHA2 = DEFI_CONTACT   (MODELE      = MO,
                       FORMULATION = 'DISCRETE',
                       RESI_ABSO   = 1.E-8,
                       PRE_COND    = 'DIRICHLET',
                       ZONE = (
                                _F( 
                                   ALGO_CONT     = 'GCP',
                                   APPARIEMENT   = 'NODAL',
                                   GROUP_MA_MAIT = 'COQU1',
                                   GROUP_MA_ESCL = 'POUT1',
                                   NORMALE       = 'ESCL',
                                   VECT_ESCL     = 'FIXE',
                                   ESCL_FIXE     = (0.0,0.0,-1.0,),
                                   DIST_ESCL     = F_DIST_E,   
                                  ),
                                _F( 
                                   ALGO_CONT     = 'GCP',
                                   APPARIEMENT   = 'NODAL',
                                   GROUP_MA_MAIT = 'COQU2',
                                   GROUP_MA_ESCL = 'POUT2',
                                   NORMALE       = 'ESCL',
                                   VECT_ESCL     = 'FIXE',
                                   ESCL_FIXE     = (0.0,0.0,-1.0,), 
                                  ),                               
                              ), 
                      );

L_INST=DEFI_LIST_REEL(DEBUT=0.0,
                      INTERVALLE=_F(JUSQU_A=5.0,
                                    NOMBRE=5,),);


FONCM=DEFI_FONCTION(NOM_PARA='INST',
                    VALE=(0.0,0.0,100.0,100.0,),);


# RESOLUTION PAR LE SOLVEUR PAR DEFAUT
# ------------------------------------
RESU1=STAT_NON_LINE(MODELE=MO,
                   CHAM_MATER=CHMAT,
                   CARA_ELEM=CARA,
                   EXCIT=_F(CHARGE=CHA,
                            FONC_MULT=FONCM,),
                   CONTACT  = CHA2,         
                   COMP_INCR=_F(RELATION='ELAS',),
                   INCREMENT=_F(LIST_INST=L_INST,
                                NUME_INST_FIN=2,),
                   NEWTON=_F(MATRICE='ELASTIQUE',),
                   CONVERGENCE=_F(RESI_GLOB_MAXI=1e-06,),
                   SOLVEUR=_F(SYME='OUI',),
                   INFO=1,);

RESU1=CALC_ELEM(reuse =RESU1,
               OPTION=('SIEF_ELNO','VARI_ELNO_ELGA',),
               RESULTAT=RESU1,);

TEST_RESU(RESU=(_F(RESULTAT=RESU1,
                   NUME_ORDRE=2,
                   NOM_CHAM='DEPL',
                   NOM_CMP='DZ',
                   NOEUD='N45',
                   VALE=-0.19005,
                   REFERENCE='ANALYTIQUE',
                   PRECISION=0.001,),
                _F(RESULTAT=RESU1,
                   NUME_ORDRE=2,
                   NOM_CHAM='DEPL',
                   NOM_CMP='DZ',
                   NOEUD='N46',
                   VALE=-0.19005,
                   REFERENCE='ANALYTIQUE',
                   PRECISION=0.001,),
                _F(RESULTAT=RESU1,
                   NUME_ORDRE=2,
                   NOM_CHAM='SIEF_ELNO',
                   NOM_CMP='N',
                   MAILLE='M21',
                   NOEUD='N3',
                   VALE=-0.00475126,
                   REFERENCE='ANALYTIQUE',
                   PRECISION=0.01,),
                _F(RESULTAT=RESU1,
                   NUME_ORDRE=2,
                   NOM_CHAM='SIEF_ELNO',
                   NOM_CMP='N',
                   MAILLE='M22',
                   NOEUD='N1',
                   VALE=-0.00475126,
                   REFERENCE='ANALYTIQUE',
                   PRECISION=0.01,),),);



# RESOLUTION PAR LE SOLVEUR MUMPS
# ------------------------------------
RESU2=STAT_NON_LINE(MODELE=MO,
                   CHAM_MATER=CHMAT,
                   CARA_ELEM=CARA,
                   EXCIT=_F(CHARGE=CHA,
                            FONC_MULT=FONCM,),
                   CONTACT  = CHA2,                             
                   COMP_INCR=_F(RELATION='ELAS',),
                   INCREMENT=_F(LIST_INST=L_INST,
                                NUME_INST_FIN=2,),
                   NEWTON=_F(MATRICE='ELASTIQUE',),
                   CONVERGENCE=_F(RESI_GLOB_MAXI=1e-06,),
                   SOLVEUR=_F(SYME='OUI',
                              METHODE='MUMPS',PCENT_PIVOT=10,),
                   INFO=1,);

RESU2=CALC_ELEM(reuse =RESU2,
               OPTION=('SIEF_ELNO','VARI_ELNO_ELGA',),
               RESULTAT=RESU2,);

TEST_RESU(RESU=(_F(RESULTAT=RESU2,
                   NUME_ORDRE=2,
                   NOM_CHAM='DEPL',
                   NOM_CMP='DZ',
                   NOEUD='N45',
                   VALE=-0.19005,
                   REFERENCE='ANALYTIQUE',
                   PRECISION=0.001,),
                _F(RESULTAT=RESU2,
                   NUME_ORDRE=2,
                   NOM_CHAM='DEPL',
                   NOM_CMP='DZ',
                   NOEUD='N46',
                   VALE=-0.19005,
                   REFERENCE='ANALYTIQUE',
                   PRECISION=0.001,),
                _F(RESULTAT=RESU2,
                   NUME_ORDRE=2,
                   NOM_CHAM='SIEF_ELNO',
                   NOM_CMP='N',
                   MAILLE='M21',
                   NOEUD='N3',
                   VALE=-0.00475126,
                   REFERENCE='ANALYTIQUE',
                   PRECISION=0.01,),
                _F(RESULTAT=RESU2,
                   NUME_ORDRE=2,
                   NOM_CHAM='SIEF_ELNO',
                   NOM_CMP='N',
                   MAILLE='M22',
                   NOEUD='N1',
                   VALE=-0.00475126,
                   REFERENCE='ANALYTIQUE',
                   PRECISION=0.01,),),);
FIN();

