 TITRE
CODE_ASTER - 11.00.27 - VERSION DE DEVELOPPEMENT          - FRONTAL1         - L
 FINSF
 %
 COOR_3D
 N1        2.14999999850988E+00  0.00000000000000E+00  0.00000000000000E+00
 N2        2.25000000000000E+00  0.00000000000000E+00  0.00000000000000E+00
 N3        1.94999999552965E+00  0.00000000000000E+00  0.00000000000000E+00
 N4        2.04999999701977E+00  0.00000000000000E+00  0.00000000000000E+00
 N5        1.74999999254942E+00  0.00000000000000E+00  0.00000000000000E+00
 N6        1.84999999403954E+00  0.00000000000000E+00  0.00000000000000E+00
 N7        1.54999998956919E+00  0.00000000000000E+00  0.00000000000000E+00
 N8        1.64999999105930E+00  0.00000000000000E+00  0.00000000000000E+00
 N9        1.34999998658896E+00  0.00000000000000E+00  0.00000000000000E+00
 N10       1.44999998807907E+00  0.00000000000000E+00  0.00000000000000E+00
 N11       1.25000000000000E+00  0.00000000000000E+00  0.00000000000000E+00
 N12       1.15192615804995E+00  3.85333065278504E-03  0.00000000000000E+00
 N13       1.05445694470804E+00  1.53895701367637E-02  0.00000000000000E+00
 N14       9.58193319362577E-01  3.45375936972099E-02  0.00000000000000E+00
 N15       8.63728779292400E-01  6.11793473979936E-02  0.00000000000000E+00
 N16       7.71645729817039E-01  9.51505759633740E-02  0.00000000000000E+00
 N17       6.82511893574140E-01  1.36241835466428E-01  0.00000000000000E+00
 N18       5.96876810320519E-01  1.84199784620541E-01  0.00000000000000E+00
 N19       5.15268448836716E-01  2.38728746712736E-01  0.00000000000000E+00
 N20       4.38189951823798E-01  2.99492532548979E-01  0.00000000000000E+00
 N21       3.66116533861209E-01  3.66116513172423E-01  0.00000000000000E+00
 N22       2.99492551550765E-01  4.38189929575566E-01  0.00000000000000E+00
 N23       2.38728763910369E-01  5.15268425166204E-01  0.00000000000000E+00
 N24       1.84199799907993E-01  5.96876785373665E-01  0.00000000000000E+00
 N25       1.36241848749446E-01  6.82511867504749E-01  0.00000000000000E+00
 N26       9.51505871600642E-02  7.71645702785838E-01  0.00000000000000E+00
 N27       6.11793564393244E-02  8.63728751466045E-01  0.00000000000000E+00
 N28       3.45376005274385E-02  9.58193290912626E-01  0.00000000000000E+00
 N29       1.53895747137796E-02  1.05445691580990E+00  0.00000000000000E+00
 N30       3.85333294836920E-03  1.15192612888179E+00  0.00000000000000E+00
 N31       0.00000000000000E+00  1.25000000000000E+00  0.00000000000000E+00
 N32       0.00000000000000E+00  1.34999998658896E+00  0.00000000000000E+00
 N33       0.00000000000000E+00  1.44999998807907E+00  0.00000000000000E+00
 N34       0.00000000000000E+00  1.54999998956919E+00  0.00000000000000E+00
 N35       0.00000000000000E+00  1.64999999105930E+00  0.00000000000000E+00
 N36       0.00000000000000E+00  1.74999999254942E+00  0.00000000000000E+00
 N37       0.00000000000000E+00  1.84999999403954E+00  0.00000000000000E+00
 N38       0.00000000000000E+00  1.94999999552965E+00  0.00000000000000E+00
 N39       0.00000000000000E+00  2.04999999701977E+00  0.00000000000000E+00
 N40       0.00000000000000E+00  2.14999999850988E+00  0.00000000000000E+00
 N41       0.00000000000000E+00  2.25000000000000E+00  0.00000000000000E+00
 FINSF
 %
 SEG3    
 M1       N41      N39      N40     
 M2       N39      N37      N38     
 M3       N37      N35      N36     
 M4       N35      N33      N34     
 M5       N33      N31      N32     
 M6       N31      N29      N30     
 M7       N29      N27      N28     
 M8       N27      N25      N26     
 M9       N25      N23      N24     
 M10      N23      N21      N22     
 M11      N21      N19      N20     
 M12      N19      N17      N18     
 M13      N17      N15      N16     
 M14      N15      N13      N14     
 M15      N13      N11      N12     
 M16      N2       N4       N1      
 M17      N4       N6       N3      
 M18      N6       N8       N5      
 M19      N8       N10      N7      
 M20      N10      N11      N9      
 FINSF
 %
 GROUP_NO
 A       
 N41     
 FINSF
 %
 GROUP_NO
 B       
 N31     
 FINSF
 %
 GROUP_NO
 C       
 N11     
 FINSF
 %
 GROUP_NO
 D       
 N2      
 FINSF
 %
 GROUP_MA
 AD      
 M1       M2       M3       M4       M5       M6       M7      
 M8       M9       M10      M11      M12      M13      M14     
 M15      M16      M17      M18      M19      M20     
 FINSF
 %
 GROUP_MA
 AB      
 M1       M2       M3       M4       M5      
 FINSF
 %
 GROUP_MA
 BC      
 M6       M7       M8       M9       M10      M11      M12     
 M13      M14      M15     
 FINSF
 %
 GROUP_MA
 CD      
 M16      M17      M18      M19      M20     
 FINSF
 %
 FIN
