# MODIF  DATE 03/11/2010   AUTEUR ABBAS M.ABBAS 
# TITRE POST-FLAMBEMENT ELASTIQUE D'UNE STRUCTURE EN L
#            CONFIGURATION MANAGEMENT OF EDF VERSION
# ======================================================================
# COPYRIGHT (C) 1991 - 2006  EDF R&D                  WWW.CODE-ASTER.ORG
# THIS PROGRAM IS FREE SOFTWARE; YOU CAN REDISTRIBUTE IT AND/OR MODIFY  
# IT UNDER THE TERMS OF THE GNU GENERAL PUBLIC LICENSE AS PUBLISHED BY  
# THE FREE SOFTWARE FOUNDATION; EITHER VERSION 2 OF THE LICENSE, OR     
# (AT YOUR OPTION) ANY LATER VERSION.                                                    
#                                                                       
# THIS PROGRAM IS DISTRIBUTED IN THE HOPE THAT IT WILL BE USEFUL, BUT   
# WITHOUT ANY WARRANTY; WITHOUT EVEN THE IMPLIED WARRANTY OF            
# MERCHANTABILITY OR FITNESS FOR A PARTICULAR PURPOSE. SEE THE GNU      
# GENERAL PUBLIC LICENSE FOR MORE DETAILS.                              
#                                                                       
# YOU SHOULD HAVE RECEIVED A COPY OF THE GNU GENERAL PUBLIC LICENSE     
# ALONG WITH THIS PROGRAM; IF NOT, WRITE TO EDF R&D CODE_ASTER,         
#    1 AVENUE DU GENERAL DE GAULLE, 92141 CLAMART CEDEX, FRANCE.        
# ======================================================================

DEBUT(CODE=_F( NOM = 'SSNL133B',NIV_PUB_WEB='INTERNET',VISU_EFICAS='OUI'));

PRE_GIBI(UNITE_GIBI=17,
         UNITE_MAILLAGE=20,);

MA=LIRE_MAILLAGE(UNITE=20,);

MA=DEFI_GROUP(reuse =MA,
              MAILLAGE=MA,
              CREA_GROUP_NO=_F(TOUT_GROUP_MA='OUI',),);

PRE_GIBI(UNITE_GIBI=18,
         UNITE_MAILLAGE=21,);

MA_SECT=LIRE_MAILLAGE(UNITE=21,);

MO=AFFE_MODELE(MAILLAGE=MA,
               AFFE=_F(TOUT='OUI',
                       PHENOMENE='MECANIQUE',
                       MODELISATION='POU_D_TGM',),);

ACIER=DEFI_MATERIAU(ELAS=_F(E=71240.0,
                            NU=0.3,),);

GF=DEFI_GEOM_FIBRE(
   SECTION =_F(GROUP_FIBRE='SECF',
             GROUP_MA_SECT='SECT',
             MAILLAGE_SECT=MA_SECT,
            COOR_AXE_POUTRE=(0.,0.,),),)

COMPF=DEFI_COMPOR(GEOM_FIBRE=GF,MATER_SECT=ACIER,
                  MULTIFIBRE=_F(GROUP_FIBRE='SECF',MATER=ACIER,
                                 RELATION='ELAS',DEFORMATION='GROT_GDEP',),
                     )

MAT=AFFE_MATERIAU(MAILLAGE=MA,
                  AFFE=_F(TOUT='OUI',MATER=ACIER,),
                  AFFE_COMPOR=_F(TOUT='OUI',COMPOR=COMPF),
                 );

CARA=AFFE_CARA_ELEM(MODELE=MO,
                    POUTRE=_F(GROUP_MA='LAME',
                              SECTION='GENERALE',
                              CARA=('A','IY','IZ','AY','AZ','JX','JG',),
                              VALE=(18.0,0.54,1350.0,1.2,1.2,2.16,0.0,),),
                    ORIENTATION=_F(GROUP_MA='LAME',
                                   CARA='ANGL_VRIL',
                                   VALE=0.,),
                    GEOM_FIBRE=GF,
                    MULTIFIBRE=_F(GROUP_MA='LAME',
                                 GROUP_FIBRE='SECF',
                                 ),);

CL=AFFE_CHAR_MECA(MODELE=MO,
                  DDL_IMPO=_F(GROUP_NO='PA',
                              DX=0.,
                              DY=0.,
                              DZ=0.,
                              DRX=0.,
                              DRY=0.,
                              DRZ=0.,),);

FORCE=AFFE_CHAR_MECA(MODELE=MO,
                     FORCE_NODALE=_F(GROUP_NO='PC',
                                     FX=1.0,
                                     FZ=0.001,),);

FORCE_F=DEFI_FONCTION(NOM_PARA='INST',
                      VALE=(0.,0.,10.0,10.0,),);
tfin = 10.0;
tsuiv = 5.0;

TEMPS=DEFI_LIST_REEL(DEBUT=0.,
                     INTERVALLE=_F(JUSQU_A=tfin,
                                   NOMBRE=1000,),);

RESO=STAT_NON_LINE(MODELE=MO,
                   CHAM_MATER=MAT,
                   CARA_ELEM=CARA,
                   EXCIT=(_F(CHARGE=CL,),
                          _F(CHARGE=FORCE,
                             TYPE_CHARGE='FIXE_PILO',),),
                   COMP_INCR=_F(RELATION='MULTIFIBRE'),
                   INCREMENT=_F(LIST_INST=TEMPS,
                                INST_FIN=tsuiv,),
                   NEWTON=_F(MATRICE='TANGENTE',
                             REAC_ITER=1,),
                   PILOTAGE=_F(TYPE='LONG_ARC',
                               COEF_MULT=0.1,
                               ETA_PILO_MAX=5.0,
                               SELECTION='ANGL_INCR_DEPL',
                               GROUP_NO='LAME',
                               NOM_CMP=('DX','DZ',),),
                   CONVERGENCE=_F(RESI_GLOB_RELA=1.0E-6,
                                  ITER_GLOB_MAXI=50,),
                   );

# POURSUITE

RESO=STAT_NON_LINE(MODELE=MO,
                   reuse=RESO,
                   CHAM_MATER=MAT,
                   CARA_ELEM=CARA,
                   EXCIT=(_F(CHARGE=CL,),
                          _F(CHARGE=FORCE,
                             TYPE_CHARGE='FIXE_PILO',),),
                   COMP_INCR=_F(RELATION='MULTIFIBRE',
                                ),
                   INCREMENT=_F(LIST_INST=TEMPS,
                                INST_FIN=tfin,),
                   NEWTON=_F(MATRICE='TANGENTE',
                             REAC_ITER=1,),
                   PILOTAGE=_F(TYPE='LONG_ARC',
                               COEF_MULT=0.1,
                               ETA_PILO_MAX=5.0,
                               SELECTION='ANGL_INCR_DEPL',
                               GROUP_NO='LAME',
                               NOM_CMP=('DX','DZ',),),
                       ETAT_INIT = _F (EVOL_NOLI=RESO ,
                                     INST_ETAT_INIT=tsuiv, 
                                      ) ,                                 
                   CONVERGENCE=_F(RESI_GLOB_RELA=1.0E-6,
                                  ITER_GLOB_MAXI=50,),
                   );

ETA_PILO=RECU_FONCTION(RESULTAT=RESO,
                       NOM_PARA_RESU='ETA_PILOTAGE',);

DEPX=RECU_FONCTION(RESULTAT=RESO,
                   TOUT_ORDRE='OUI',
                   NOM_CHAM='DEPL',
                   NOM_CMP='DX',
                   GROUP_NO='PC',);

DEPZ=RECU_FONCTION(RESULTAT=RESO,
                   TOUT_ORDRE='OUI',
                   NOM_CHAM='DEPL',
                   NOM_CMP='DZ',
                   GROUP_NO='PC',);

IMPR_FONCTION(FORMAT='XMGRACE',
              COURBE=(_F(FONC_X=DEPX,
                         FONC_Y=ETA_PILO,),
                      _F(FONC_X=DEPZ,
                         FONC_Y=ETA_PILO,),),);

IMPR_RESU(FORMAT='CASTEM',
          RESU=_F(MAILLAGE=MA,
                  RESULTAT=RESO,
                  NOM_CHAM='DEPL',),);

# -------------------- TESTS / REFERENCE ET NON-REGRESSION ----------

T_ETA=CREA_TABLE(FONCTION=_F(FONCTION=ETA_PILO,),);
T_DEPX=CREA_TABLE(FONCTION=_F(FONCTION=DEPX,),);
T_DEPZ=CREA_TABLE(FONCTION=_F(FONCTION=DEPZ,),);

TAB_COMB=CALC_TABLE(TABLE=T_ETA,
                    ACTION=(_F(OPERATION='COMB', TABLE=T_DEPX, NOM_PARA='INST'),
                            _F(OPERATION='COMB', TABLE=T_DEPZ, NOM_PARA='INST'),),);

IMPR_TABLE(TABLE=TAB_COMB,);

DX_ETA=RECU_FONCTION(TABLE=TAB_COMB,
                     PARA_X='ETA_PILO',
                     PARA_Y='DX',
                     INTERPOL='LIN',
                     PROL_DROITE='CONSTANT',
                     PROL_GAUCHE='CONSTANT',);

DZ_ETA=RECU_FONCTION(TABLE=TAB_COMB,
                     PARA_X='ETA_PILO',
                     PARA_Y='DZ',
                     INTERPOL='LIN',
                     PROL_DROITE='CONSTANT',
                     PROL_GAUCHE='CONSTANT',);

TEST_FONCTION(VALEUR=(_F(FONCTION=DX_ETA,VALE_PARA=1.0,VALE_REFE=1.9557897264105E-01,CRITERE='RELATIF',PRECISION=0.02,REFERENCE='AUTRE_ASTER',),
                      _F(FONCTION=DX_ETA,VALE_PARA=1.2,VALE_REFE=2.2003741156650E+01,CRITERE='RELATIF',PRECISION=0.08,REFERENCE='AUTRE_ASTER',),
                      _F(FONCTION=DX_ETA,VALE_PARA=1.4,VALE_REFE=5.1370567219177E+01,CRITERE='RELATIF',PRECISION=0.11,REFERENCE='AUTRE_ASTER',),
                      _F(FONCTION=DX_ETA,VALE_PARA=1.6,VALE_REFE=7.2308828300357E+01,CRITERE='RELATIF',PRECISION=0.11,REFERENCE='AUTRE_ASTER',),
                      _F(FONCTION=DX_ETA,VALE_PARA=2.0,VALE_REFE=9.9955783482343E+01,CRITERE='RELATIF',PRECISION=0.11,REFERENCE='AUTRE_ASTER',),
                      _F(FONCTION=DX_ETA,VALE_PARA=3.0,VALE_REFE=1.3414461679369E+02,CRITERE='RELATIF',PRECISION=0.09,REFERENCE='AUTRE_ASTER',),
                      _F(FONCTION=DX_ETA,VALE_PARA=4.0,VALE_REFE=1.5069734947084E+02,CRITERE='RELATIF',PRECISION=0.07,REFERENCE='AUTRE_ASTER',),
                      _F(FONCTION=DX_ETA,VALE_PARA=5.0,VALE_REFE=1.6091941068726E+02,CRITERE='RELATIF',PRECISION=0.06,REFERENCE='AUTRE_ASTER',),),)

TEST_FONCTION(VALEUR=(_F(FONCTION=DZ_ETA,VALE_PARA=1.0,VALE_REFE=8.1895376497696E-01,CRITERE='RELATIF',PRECISION=0.06,REFERENCE='AUTRE_ASTER',),
                      _F(FONCTION=DZ_ETA,VALE_PARA=1.2,VALE_REFE=4.5086149006060E+01,CRITERE='RELATIF',PRECISION=0.05,REFERENCE='AUTRE_ASTER',),
                      _F(FONCTION=DZ_ETA,VALE_PARA=1.4,VALE_REFE=5.9127395933839E+01,CRITERE='RELATIF',PRECISION=0.04,REFERENCE='AUTRE_ASTER',),
                      _F(FONCTION=DZ_ETA,VALE_PARA=1.6,VALE_REFE=6.1007516217062E+01,CRITERE='RELATIF',PRECISION=0.03,REFERENCE='AUTRE_ASTER',),
                      _F(FONCTION=DZ_ETA,VALE_PARA=2.0,VALE_REFE=5.5986094960435E+01,CRITERE='RELATIF',PRECISION=0.02,REFERENCE='AUTRE_ASTER',),
                      _F(FONCTION=DZ_ETA,VALE_PARA=3.0,VALE_REFE=3.9191654438340E+01,CRITERE='RELATIF',PRECISION=0.09,REFERENCE='AUTRE_ASTER',),
                      _F(FONCTION=DZ_ETA,VALE_PARA=4.0,VALE_REFE=2.7663660137343E+01,CRITERE='RELATIF',PRECISION=0.17,REFERENCE='AUTRE_ASTER',),
                      _F(FONCTION=DZ_ETA,VALE_PARA=5.0,VALE_REFE=2.0201862127005E+01,CRITERE='RELATIF',PRECISION=0.24,REFERENCE='AUTRE_ASTER',),),)

TEST_FONCTION(VALEUR=(_F(FONCTION=DX_ETA,VALE_PARA=1.0,VALE_REFE=1.9913380804687E-01,CRITERE='RELATIF',REFERENCE='NON_REGRESSION',VERSION='8.3.2',),
                      _F(FONCTION=DX_ETA,VALE_PARA=1.2,VALE_REFE=2.0306107050120E+01,CRITERE='RELATIF',REFERENCE='NON_REGRESSION',VERSION='8.3.2',),
                      _F(FONCTION=DX_ETA,VALE_PARA=1.4,VALE_REFE=4.5935815481227E+01,CRITERE='RELATIF',REFERENCE='NON_REGRESSION',VERSION='8.3.2',),
                      _F(FONCTION=DX_ETA,VALE_PARA=1.6,VALE_REFE=6.4564896246312E+01,CRITERE='RELATIF',REFERENCE='NON_REGRESSION',VERSION='8.3.2',),
                      _F(FONCTION=DX_ETA,VALE_PARA=2.0,VALE_REFE=8.9957250865099E+01,CRITERE='RELATIF',REFERENCE='NON_REGRESSION',VERSION='8.3.2',),
                      _F(FONCTION=DX_ETA,VALE_PARA=3.0,VALE_REFE=1.2336502948879E+02,CRITERE='RELATIF',REFERENCE='NON_REGRESSION',VERSION='8.3.2',),
                      _F(FONCTION=DX_ETA,VALE_PARA=4.0,VALE_REFE=1.4054509473514E+02,CRITERE='RELATIF',REFERENCE='NON_REGRESSION',VERSION='8.3.2',),
                      _F(FONCTION=DX_ETA,VALE_PARA=5.0,VALE_REFE=1.5140256740005E+02,CRITERE='RELATIF',REFERENCE='NON_REGRESSION',VERSION='8.3.2',),),)

TEST_FONCTION(VALEUR=(_F(FONCTION=DZ_ETA,VALE_PARA=1.0,VALE_REFE=8.6754155534512E-01,CRITERE='RELATIF',REFERENCE='NON_REGRESSION',VERSION='8.3.2',),
                      _F(FONCTION=DZ_ETA,VALE_PARA=1.2,VALE_REFE=4.3263249066530E+01,CRITERE='RELATIF',REFERENCE='NON_REGRESSION',VERSION='8.3.2',),
                      _F(FONCTION=DZ_ETA,VALE_PARA=1.4,VALE_REFE=5.6886439107702E+01,CRITERE='RELATIF',REFERENCE='NON_REGRESSION',VERSION='8.3.2',),
                      _F(FONCTION=DZ_ETA,VALE_PARA=1.6,VALE_REFE=5.9622853119563E+01,CRITERE='RELATIF',REFERENCE='NON_REGRESSION',VERSION='8.3.2',),
                      _F(FONCTION=DZ_ETA,VALE_PARA=2.0,VALE_REFE=5.6563160479976E+01,CRITERE='RELATIF',REFERENCE='NON_REGRESSION',VERSION='8.3.2',),
                      _F(FONCTION=DZ_ETA,VALE_PARA=3.0,VALE_REFE=4.2644588786033E+01,CRITERE='RELATIF',REFERENCE='NON_REGRESSION',VERSION='8.3.2',),
                      _F(FONCTION=DZ_ETA,VALE_PARA=4.0,VALE_REFE=3.2146113055389E+01,CRITERE='RELATIF',REFERENCE='NON_REGRESSION',VERSION='8.3.2',),
                      _F(FONCTION=DZ_ETA,VALE_PARA=5.0,VALE_REFE=2.4974256362619E+01,CRITERE='RELATIF',REFERENCE='NON_REGRESSION',VERSION='8.3.2',),),)

FIN();
