# MODIF  DATE 20/10/2011   AUTEUR SELLENET N.SELLENET 
# TITRE COUDE EN FLEXION EN ELASTOPLASTICITE
#            CONFIGURATION MANAGEMENT OF EDF VERSION
# ======================================================================
# COPYRIGHT (C) 1991 - 2011  EDF R&D                  WWW.CODE-ASTER.ORG
# THIS PROGRAM IS FREE SOFTWARE; YOU CAN REDISTRIBUTE IT AND/OR MODIFY
# IT UNDER THE TERMS OF THE GNU GENERAL PUBLIC LICENSE AS PUBLISHED BY
# THE FREE SOFTWARE FOUNDATION; EITHER VERSION 2 OF THE LICENSE, OR
# (AT YOUR OPTION) ANY LATER VERSION.
#
# THIS PROGRAM IS DISTRIBUTED IN THE HOPE THAT IT WILL BE USEFUL, BUT
# WITHOUT ANY WARRANTY; WITHOUT EVEN THE IMPLIED WARRANTY OF
# MERCHANTABILITY OR FITNESS FOR A PARTICULAR PURPOSE. SEE THE GNU
# GENERAL PUBLIC LICENSE FOR MORE DETAILS.
#
# YOU SHOULD HAVE RECEIVED A COPY OF THE GNU GENERAL PUBLIC LICENSE
# ALONG WITH THIS PROGRAM; IF NOT, WRITE TO EDF R&D CODE_ASTER,
#    1 AVENUE DU GENERAL DE GAULLE, 92141 CLAMART CEDEX, FRANCE.
# ======================================================================
# GEOMETRIE PROCHE DU CPP N4

DEBUT(  CODE=_F(  NOM = 'SSNL117A',NIV_PUB_WEB='INTERNET') )

MOMENTMZ=1.

PRESSION=0.

EP=0.077

RMOY=0.3955

RMOYN=- RMOY

REXT=RMOY + (EP/2.)

RC=1.25

YOUNG=2.E11

POISSON=0.3

SIGY=200.E6

H=2.E10

MLSURMLS=0.8

RINT=RMOY - (EP/2.)

LAMBDA=EP*RC/RMOY/RMOY

SURF=pi* (REXT*REXT-RINT*RINT)

IY=pi*(REXT**4-RINT**4)/4.

IZ=IY

IX=IY + IZ

MEDR=SIGY*IY/REXT

MPDR=4.0*MEDR/pi

MPX=SIGY*IX/REXT

GAMMA=RC/RMOY

STHETA1=1.89/(LAMBDA**(0.666667))

STHETA2=0.96/(LAMBDA**(0.333333))/GAMMA

STHETA=STHETA1 - STHETA2

MEFL=MEDR / STHETA

MPFL=MPDR * MLSURMLS

MA=LIRE_MAILLAGE(VERI_MAIL=_F(VERIF='OUI'),FORMAT='MED', )

MA=DEFI_GROUP( reuse=MA,   MAILLAGE=MA,
  CREA_GROUP_MA=_F(  NOM = 'TOUT', TOUT = 'OUI'))

MA=DEFI_GROUP(reuse=MA,  MAILLAGE=MA,
                 CREA_GROUP_NO=_F( GROUP_MA = 'AD'))

MO=AFFE_MODELE(        MAILLAGE=MA,
     AFFE=_F(  TOUT = 'OUI',   PHENOMENE = 'MECANIQUE',
     MODELISATION = 'TUYAU_3M')
               )

CAREL=AFFE_CARA_ELEM(   MODELE=MO,
          POUTRE=( _F( GROUP_MA = 'TOUT', SECTION = 'CERCLE', TUYAU_NCOU=1,
                       CARA = (   'R',  'EP', ), VALE = (  REXT,  EP, ),MODI_METRIQUE = 'OUI'),
                   _F( GROUP_MA = 'BC', SECTION = 'CERCLE', TUYAU_NCOU=3,
                       CARA = (   'R',  'EP', ), VALE = (  REXT,  EP, ),MODI_METRIQUE = 'OUI'),),

          ORIENTATION=_F( GROUP_NO = 'D', CARA = 'GENE_TUYAU', VALE = (0., 0., 1.,))
                              )

MAT=DEFI_MATERIAU(    ELAS=_F( E = YOUNG, NU = POISSON),
                         ECRO_LINE=_F( D_SIGM_EPSI = H, SY = SIGY)
                        )

CHMAT=AFFE_MATERIAU(   MAILLAGE=MA,
                       AFFE=_F( TOUT = 'OUI', MATER = MAT))

EFOND=pi*PRESSION*RINT*RINT

CHART=AFFE_CHAR_MECA(  MODELE=MO,
     DDL_IMPO=_F( GROUP_NO = 'A', DX = 0., DY = 0., DZ = 0., DRX = 0., DRY = 0., DRZ = 0.),
     FORCE_NODALE=_F( GROUP_NO = 'D', MZ = MOMENTMZ)
    )

CHARP=AFFE_CHAR_MECA(   MODELE=MO,
     FORCE_NODALE=_F( GROUP_NO = 'D', FX = EFOND),
        FORCE_TUYAU=_F(  TOUT = 'OUI',
                   PRES = PRESSION)
                  )

FONCT=DEFI_FONCTION(   NOM_PARA='INST',
                      VALE=( 0., 0., MPFL, MPFL, ) )

LINST=DEFI_LIST_REEL(DEBUT=0.,INTERVALLE=(
               _F( JUSQU_A = MEFL, NOMBRE = 1),
               _F( JUSQU_A = MPFL, NOMBRE = 10))
                        )

U1=STAT_NON_LINE(
                            MODELE=MO,
                        CHAM_MATER=CHMAT,
                         CARA_ELEM=CAREL,EXCIT=(
                             _F(
                CHARGE = CHART,
                FONC_MULT = FONCT), _F(
                CHARGE = CHARP)),
                         INCREMENT=_F(
                LIST_INST = LINST,
                NUME_INST_FIN = 8),COMP_INCR=(
                         _F( GROUP_MA = 'BC',  RELATION = 'VMIS_ISOT_LINE',
                             RESI_INTE_RELA = 1.E-6 ),
                         _F( GROUP_MA = ( 'AB',  'CD',), RELATION = 'ELAS', )),
                            NEWTON=_F(
                MATRICE = 'TANGENTE',
                REAC_ITER = 3),
                       CONVERGENCE=_F(
                RESI_GLOB_RELA = 1.E-4,
                ITER_GLOB_MAXI = 100),
                     RECH_LINEAIRE=_F(
                ITER_LINE_MAXI = 3)
              )

U1=CALC_ELEM( reuse=U1,
                            OPTION=(
                  'EFGE_ELNO',  'VARI_ELNO',),
                          RESULTAT=U1,
              )

U1=CALC_NO(reuse=U1,OPTION='FORC_NODA', RESULTAT=U1, )

# REFERENCE : CALCUL 3D-POUTRES


TEST_RESU(RESU=(
           _F( RESULTAT = U1, NOM_CHAM = 'FORC_NODA',
                 GROUP_NO = 'D', NOM_CMP = 'DRZ',
                 NUME_ORDRE = 1, VALE = 3.08670E+06,
                 REFERENCE = 'AUTRE_ASTER'),
           _F( RESULTAT = U1, NOM_CHAM = 'DEPL',
                 GROUP_NO = 'D', NOM_CMP = 'DY', PRECISION = 0.03,
                 NUME_ORDRE = 1, VALE = 1.09349E-02,
                 REFERENCE = 'AUTRE_ASTER'),
           _F( RESULTAT = U1, NOM_CHAM = 'FORC_NODA',
                 GROUP_NO = 'D', NOM_CMP = 'DRZ',
                 NUME_ORDRE = 8, VALE = 5.88981E+06,
                 REFERENCE = 'AUTRE_ASTER'),
           _F( RESULTAT = U1, NOM_CHAM = 'DEPL',
                 GROUP_NO = 'D', NOM_CMP = 'DY', PRECISION = 0.03,
                 NUME_ORDRE = 8, VALE = 2.20836E-02,
                 REFERENCE = 'AUTRE_ASTER'))
          )

TEST_RESU(RESU=(
           _F( RESULTAT = U1, NOM_CHAM = 'FORC_NODA',
                 GROUP_NO = 'A', NOM_CMP = 'DRZ',
                 NUME_ORDRE = 1, VALE = -3.08670E+06,
                 REFERENCE = 'AUTRE_ASTER'),
           _F( RESULTAT = U1, NOM_CHAM = 'FORC_NODA',
                 GROUP_NO = 'A', NOM_CMP = 'DRZ',
                 NUME_ORDRE = 8, VALE = -5.88981E+06,
                 REFERENCE = 'AUTRE_ASTER'))
          )

# NON REGRESSION :


TEST_RESU(RESU=(
           _F( RESULTAT = U1, NOM_CHAM = 'DEPL',
                 GROUP_NO = 'D', NOM_CMP = 'DY',
                 NUME_ORDRE = 1, VALE = 1.1190311916921E-02,
                 REFERENCE = 'NON_REGRESSION'),
          _F( RESULTAT = U1, NOM_CHAM = 'DEPL',
                 GROUP_NO = 'D', NOM_CMP = 'DY',
                 NUME_ORDRE = 8, VALE = 2.2698008851707E-02,
                 REFERENCE = 'NON_REGRESSION'))
          )

FIN( )
