# MODIF  DATE 10/10/2012   AUTEUR COURTOIS M.COURTOIS 
# TITRE POST-FLAMBEMENT ELASTIQUE D'UNE STRUCTURE EN L
# ssnl133a.para = tps_job 1000 mem_job 512Mo ncpus 1 liste_test S
#            CONFIGURATION MANAGEMENT OF EDF VERSION
# ======================================================================
# COPYRIGHT (C) 1991 - 2012  EDF R&D                  WWW.CODE-ASTER.ORG
# THIS PROGRAM IS FREE SOFTWARE; YOU CAN REDISTRIBUTE IT AND/OR MODIFY
# IT UNDER THE TERMS OF THE GNU GENERAL PUBLIC LICENSE AS PUBLISHED BY
# THE FREE SOFTWARE FOUNDATION; EITHER VERSION 2 OF THE LICENSE, OR
# (AT YOUR OPTION) ANY LATER VERSION.
#
# THIS PROGRAM IS DISTRIBUTED IN THE HOPE THAT IT WILL BE USEFUL, BUT
# WITHOUT ANY WARRANTY; WITHOUT EVEN THE IMPLIED WARRANTY OF
# MERCHANTABILITY OR FITNESS FOR A PARTICULAR PURPOSE. SEE THE GNU
# GENERAL PUBLIC LICENSE FOR MORE DETAILS.
#
# YOU SHOULD HAVE RECEIVED A COPY OF THE GNU GENERAL PUBLIC LICENSE
# ALONG WITH THIS PROGRAM; IF NOT, WRITE TO EDF R&D CODE_ASTER,
#    1 AVENUE DU GENERAL DE GAULLE, 92141 CLAMART CEDEX, FRANCE.
# ======================================================================

DEBUT(CODE=_F( NOM = 'SSNL133A',NIV_PUB_WEB='INTERNET',VISU_EFICAS='OUI'),);

MA=LIRE_MAILLAGE(UNITE=17,FORMAT='MED',);

MA=DEFI_GROUP(reuse =MA,
              MAILLAGE=MA,
              CREA_GROUP_NO=_F(TOUT_GROUP_MA='OUI',),);

MO=AFFE_MODELE(MAILLAGE=MA,
               AFFE=_F(TOUT='OUI',
                       PHENOMENE='MECANIQUE',
                       MODELISATION='POU_D_T_GD',
               ),);

ACIER=DEFI_MATERIAU(ELAS=_F(E=71240.0,
                            NU=0.3,),);

MAT=AFFE_MATERIAU(MAILLAGE=MA,
                  AFFE=_F(TOUT='OUI',
                          MATER=ACIER,),);

CARA=AFFE_CARA_ELEM(MODELE=MO,
                    POUTRE=_F(GROUP_MA='LAME',
                              SECTION='GENERALE',
                              CARA=('A','IY','IZ','AY','AZ','JX',),
                              VALE=(18.0,0.54,1350.0,1.2,1.2,2.16,),),
                    ORIENTATION=_F(GROUP_MA='LAME',
                                   CARA='ANGL_VRIL',
                                   VALE=0.,),);

CL=AFFE_CHAR_MECA(MODELE=MO,
                  DDL_IMPO=_F(GROUP_NO='PA',
                              DX=0.,
                              DY=0.,
                              DZ=0.,
                              DRX=0.,
                              DRY=0.,
                              DRZ=0.,),);

FORCE=AFFE_CHAR_MECA(MODELE=MO,
                     FORCE_NODALE=_F(GROUP_NO='PC',
                                     FX=1.0,
                                     FZ=0.001,),);

FORCE_F=DEFI_FONCTION(NOM_PARA='INST',
                      VALE=(0.,0.,10.0,10.0,),);

tfin = 5.0;

TEMPS=DEFI_LIST_REEL(DEBUT=0.,
                     INTERVALLE=(_F(JUSQU_A=1.0,
                                    NOMBRE=1,),
                                 _F(JUSQU_A=tfin,
                                    NOMBRE=20,),),);

DEFLIST =DEFI_LIST_INST(DEFI_LIST=_F(LIST_INST = TEMPS,
                                     METHODE='AUTO',
                                     PAS_MINI=1.0E-12,),
                        ECHEC=_F(ACTION='DECOUPE',
                                 SUBD_METHODE='MANUEL',
                                 SUBD_PAS=4,
                                 SUBD_NIVEAU = 10,
                                 SUBD_PAS_MINI = 1E-12,),
                        ADAPTATION=_F(EVENEMENT='SEUIL'),)

RESO=STAT_NON_LINE(INFO=1,
                   MODELE=MO,
                   CHAM_MATER=MAT,
                   CARA_ELEM=CARA,
                   EXCIT=(_F(CHARGE=CL,),
                          _F(CHARGE=FORCE,
                             FONC_MULT=FORCE_F,),),
                   COMP_ELAS=_F(RELATION='ELAS_POUTRE_GR',
                                DEFORMATION='GROT_GDEP',),
                   INCREMENT=_F(LIST_INST=DEFLIST,
                                INST_FIN=tfin,
                                ),
                   NEWTON=_F(MATRICE='TANGENTE',
                             REAC_ITER=1,),
                   CONVERGENCE=_F(RESI_GLOB_RELA=1.0E-6,
                                  ITER_GLOB_MAXI=21,),
                   SOLVEUR=_F(METHODE='LDLT',
                   ),);

DEPX=RECU_FONCTION(RESULTAT=RESO,
                   TOUT_ORDRE='OUI',
                   NOM_CHAM='DEPL',
                   NOM_CMP='DX',
                   GROUP_NO='PC',);

DEPZ=RECU_FONCTION(RESULTAT=RESO,
                   TOUT_ORDRE='OUI',
                   NOM_CHAM='DEPL',
                   NOM_CMP='DZ',
                   GROUP_NO='PC',);

T_INST=RECU_TABLE(CO=RESO,NOM_PARA='INST',)
COPIE=FORMULE(NOM_PARA=('INST',),VALE='INST',)
T_INST=CALC_TABLE(reuse=T_INST,
                  TABLE=T_INST,
                  ACTION=(_F(OPERATION='OPER', FORMULE=COPIE, NOM_PARA='ETA_PILOTAGE'),),);
#IMPR_TABLE(TABLE=T_INST,)
F_INST=RECU_FONCTION(TABLE=T_INST,PARA_X='INST',PARA_Y='ETA_PILOTAGE',);

# ---------------------- IMPRESSION --------------------------------

IMPR_FONCTION(FORMAT='TABLEAU',
              COURBE=(_F(FONCTION=DEPX,),
                      _F(FONCTION=DEPZ,),),);

IMPR_FONCTION(FORMAT='XMGRACE',
              UNITE=29,
              COURBE=(_F(FONC_X=DEPX,FONC_Y=F_INST,LEGENDE='DX',MARQUEUR=0,),
                      _F(FONC_X=DEPZ,FONC_Y=F_INST,LEGENDE='DZ',MARQUEUR=0,),
                      ),
              TITRE='Reponse force-deplacement',
              BORNE_X=(0.0,170.0,),
              BORNE_Y=(0.0,5.0,),
              ECHELLE_X='LIN',
              ECHELLE_Y='LIN',
              GRILLE_X=20,
              GRILLE_Y=1,
              LEGENDE_X='Deplacement (mm)',
              LEGENDE_Y='Force (N)',);

IMPR_RESU(FORMAT='CASTEM',
          RESU=_F(MAILLAGE=MA,
                  RESULTAT=RESO,
                  NOM_CHAM='DEPL',),);

# ------------------ TESTS DE NON REGRESSION -----------------------

# SUR DEPX/DEPZ
TEST_FONCTION(VALEUR=(_F(VALE_CALC=0.19557897264105001,
                         TOLE_MACHINE=1.E-3,
                         CRITERE='RELATIF',
                         VALE_PARA=1.0,
                         FONCTION=DEPX,
                         ),
                      _F(VALE_CALC=0.81895376497696004,
                         TOLE_MACHINE=1.E-3,
                         CRITERE='RELATIF',
                         VALE_PARA=1.0,
                         FONCTION=DEPZ,
                         ),
                      ),
              )

TEST_FONCTION(VALEUR=(_F(VALE_CALC=22.003741156650001,
                         TOLE_MACHINE=1.E-3,
                         CRITERE='RELATIF',
                         VALE_PARA=1.2,
                         FONCTION=DEPX,
                         ),
                      _F(VALE_CALC=45.086149006059998,
                         TOLE_MACHINE=1.E-3,
                         CRITERE='RELATIF',
                         VALE_PARA=1.2,
                         FONCTION=DEPZ,
                         ),
                      ),
              )

TEST_FONCTION(VALEUR=(_F(VALE_CALC=51.370567219176998,
                         TOLE_MACHINE=1.E-3,
                         CRITERE='RELATIF',
                         VALE_PARA=1.3999999999999999,
                         FONCTION=DEPX,
                         ),
                      _F(VALE_CALC=59.127395933838997,
                         TOLE_MACHINE=1.E-3,
                         CRITERE='RELATIF',
                         VALE_PARA=1.3999999999999999,
                         FONCTION=DEPZ,
                         ),
                      ),
              )

TEST_FONCTION(VALEUR=(_F(VALE_CALC=72.308828300357007,
                         TOLE_MACHINE=1.E-3,
                         CRITERE='RELATIF',
                         VALE_PARA=1.6000000000000001,
                         FONCTION=DEPX,
                         ),
                      _F(VALE_CALC=61.007516217061998,
                         TOLE_MACHINE=1.E-3,
                         CRITERE='RELATIF',
                         VALE_PARA=1.6000000000000001,
                         FONCTION=DEPZ,
                         ),
                      ),
              )

TEST_FONCTION(VALEUR=(_F(VALE_CALC=99.955783482342994,
                         TOLE_MACHINE=1.E-3,
                         CRITERE='RELATIF',
                         VALE_PARA=2.0,
                         FONCTION=DEPX,
                         ),
                      _F(VALE_CALC=55.986094960434997,
                         TOLE_MACHINE=1.E-3,
                         CRITERE='RELATIF',
                         VALE_PARA=2.0,
                         FONCTION=DEPZ,
                         ),
                      ),
              )

TEST_FONCTION(VALEUR=(_F(VALE_CALC=134.14461679369001,
                         TOLE_MACHINE=1.E-3,
                         CRITERE='RELATIF',
                         VALE_PARA=3.0,
                         FONCTION=DEPX,
                         ),
                      _F(VALE_CALC=39.191654438340002,
                         TOLE_MACHINE=1.E-3,
                         CRITERE='RELATIF',
                         VALE_PARA=3.0,
                         FONCTION=DEPZ,
                         ),
                      ),
              )

TEST_FONCTION(VALEUR=(_F(VALE_CALC=150.69734947084001,
                         TOLE_MACHINE=1.E-3,
                         CRITERE='RELATIF',
                         VALE_PARA=4.0,
                         FONCTION=DEPX,
                         ),
                      _F(VALE_CALC=27.663660137343001,
                         TOLE_MACHINE=1.E-3,
                         CRITERE='RELATIF',
                         VALE_PARA=4.0,
                         FONCTION=DEPZ,
                         ),
                      ),
              )

TEST_FONCTION(VALEUR=(_F(VALE_CALC=160.91941068726001,
                         TOLE_MACHINE=1.E-3,
                         CRITERE='RELATIF',
                         VALE_PARA=5.0,
                         FONCTION=DEPX,
                         ),
                      _F(VALE_CALC=20.201862127005001,
                         TOLE_MACHINE=1.E-3,
                         CRITERE='RELATIF',
                         VALE_PARA=5.0,
                         FONCTION=DEPZ,
                         ),
                      ),
              )

FIN();
