# MODIF  DATE 26/03/2013   AUTEUR CHEIGNON E.CHEIGNON 
# TITRE POUTRE ENCASTREE A UNE EXTREMITE ET CHARGEE PAR UNE TRACTION
#            CONFIGURATION MANAGEMENT OF EDF VERSION
# ======================================================================
# COPYRIGHT (C) 1991 - 2013  EDF R&D                  WWW.CODE-ASTER.ORG
# THIS PROGRAM IS FREE SOFTWARE; YOU CAN REDISTRIBUTE IT AND/OR MODIFY
# IT UNDER THE TERMS OF THE GNU GENERAL PUBLIC LICENSE AS PUBLISHED BY
# THE FREE SOFTWARE FOUNDATION; EITHER VERSION 2 OF THE LICENSE, OR
# (AT YOUR OPTION) ANY LATER VERSION.
#
# THIS PROGRAM IS DISTRIBUTED IN THE HOPE THAT IT WILL BE USEFUL, BUT
# WITHOUT ANY WARRANTY; WITHOUT EVEN THE IMPLIED WARRANTY OF
# MERCHANTABILITY OR FITNESS FOR A PARTICULAR PURPOSE. SEE THE GNU
# GENERAL PUBLIC LICENSE FOR MORE DETAILS.
#
# YOU SHOULD HAVE RECEIVED A COPY OF THE GNU GENERAL PUBLIC LICENSE
# ALONG WITH THIS PROGRAM; IF NOT, WRITE TO EDF R&D CODE_ASTER,
#    1 AVENUE DU GENERAL DE GAULLE, 92141 CLAMART CEDEX, FRANCE.
# ======================================================================
#
# ssnl106a.para = tps_job 60 mem_job 512Mo ncpus 1 liste_test S
# --------------------------------------------------------------------
# MODELISATION POU_D_TGM. DEUX SECTIONS : RECTANGLE ET CERCLE
# --------------------------------------------------------------------


DEBUT( CODE=_F(  NOM = 'SSNL106A',NIV_PUB_WEB='INTERNET'),DEBUG=_F(SDVERI='OUI') )

#------- MAILLAGE FILAIRE DE LA POUTRE

MA=LIRE_MAILLAGE()

#------- MAILLAGE DE LA SECTION RECTANGULAIRE

MA_RECT=LIRE_MAILLAGE(FORMAT='MED',UNITE=21,INFO=2)

#------- MAILLAGE DE LA SECTION CIRCULAIRE

MA_CERC=LIRE_MAILLAGE(FORMAT='MED',UNITE=22)

GF=DEFI_GEOM_FIBRE(INFO=1,
                   SECTION =( _F( GROUP_FIBRE='S_RECT',
                                  MAILLAGE_SECT = MA_RECT, TOUT_SECT = 'OUI',
                                  COOR_AXE_POUTRE = (0., 0.,),),
                              _F( GROUP_FIBRE='S_CERC',
                                  MAILLAGE_SECT = MA_CERC, TOUT_SECT = 'OUI',
                                  COOR_AXE_POUTRE = (0., 0.,),),
                             )
                   )

MO=AFFE_MODELE(
   MAILLAGE=MA,
   AFFE=_F( TOUT = 'OUI', PHENOMENE = 'MECANIQUE',MODELISATION = 'POU_D_TGM')
)

CAREL=AFFE_CARA_ELEM(MODELE=MO,
                  POUTRE=(
   # SECTION CERCLE :
                           _F(GROUP_MA = 'GC1',
                              SECTION ='CERCLE',
                              CARA = (   'R',   ), VALE = (  0.1,),
                              #SECTION='GENERALE',
                                      #CARA=('A','IY','IZ','AY','AZ',
                                            #'JX','JG','IYR2','IZR2',),
                                      #VALE=(3.121445152258052E-002,7.700068676116401E-005,7.700302561600435E-005,1.16667E+00,1.16667E+00,
                                            #1.570796326794897E-004,0.0,0.0,0.0,),
                             ),
   # SECTION RECTANGLE  :
                           _F(GROUP_MA = 'GR1',
                           SECTION = 'RECTANGLE',
                              CARA = (   'HY', 'HZ',  ), VALE = (  0.2,  0.1, ),
                           #SECTION='GENERALE',
                                      #CARA=('A','IY','IZ','AY','AZ',
                                            #'JX','JG','IYR2','IZR2',),
                                      #VALE=(1.999999999999996E-002,1.650000000000002E-005,6.650000000000002E-005,1.2E+00,1.2E+00,
                                            #4.577604166666668E-005,0.0,0.0,0.0,),
                          ),
                         ),
                  GEOM_FIBRE=GF,
                  MULTIFIBRE=(_F(GROUP_MA='GC1',GROUP_FIBRE='S_CERC'),
                              _F(GROUP_MA='GR1',GROUP_FIBRE='S_RECT'),
                     )
                  )

# ------ TRACTION SIMPLE AVEC ECROUISSAGE ------------------------------
# AFFECTE SUR LA SECTION CERCLE

MATC2=DEFI_MATERIAU(
                    ELAS=_F( E = 2.E11, NU = 0.3),
                    ECRO_LINE=_F( D_SIGM_EPSI = 2.0E9, SY = 150.E6),
                   )

# AFFECTE SUR LA SECTION RECTANGLE
MATR3=DEFI_MATERIAU(
                    ELAS=_F( E = 2.E11, NU = 0.3),
                    ECRO_LINE=_F( D_SIGM_EPSI = (2.0E11/10000.), SY = 150.E6),
                   )
COMPPMFA=DEFI_COMPOR(GEOM_FIBRE=GF,
                    MATER_SECT=MATR3,
                    MULTIFIBRE=(
                                 _F(GROUP_FIBRE='S_RECT', MATER=MATR3, RELATION='VMIS_ISOT_LINE'),
                               ),
                      )
COMPPMFB=DEFI_COMPOR(GEOM_FIBRE=GF,
                    MATER_SECT=MATC2,
                    MULTIFIBRE=(
                                 _F(GROUP_FIBRE='S_CERC', MATER=MATC2, RELATION='VMIS_ISOT_LINE'),
                                  ),
                      )

CHMAT1=AFFE_MATERIAU(   MAILLAGE=MA,
                        AFFE=(_F( GROUP_MA = 'GR1', MATER = MATR3),
                              _F( GROUP_MA = 'GC1', MATER = MATC2)),
                   AFFE_COMPOR= (
                                  _F( GROUP_MA = 'GR1', COMPOR = COMPPMFA),
                                  _F( GROUP_MA = 'GC1', COMPOR = COMPPMFB)))

CHART=AFFE_CHAR_MECA(
   MODELE=MO,DDL_IMPO=(
   _F( GROUP_NO = 'A', DX = 0., DY = 0., DZ = 0., DRX = 0., DRY = 0., DRZ = 0.),
   _F( GROUP_NO = 'B', DX = 0.75E-3))
)

FONCT=DEFI_FONCTION(NOM_PARA='INST',VALE=( 0., 0., 10., 10., ) )

#
LINST=DEFI_LIST_REEL(
   DEBUT=0.,INTERVALLE=(
      _F( JUSQU_A = 1., NOMBRE = 1),
      _F( JUSQU_A = 2., NOMBRE = 10),
      _F( JUSQU_A = 3., NOMBRE = 10))
)

REST=STAT_NON_LINE(
   MODELE=MO,
   CHAM_MATER=CHMAT1,
   CARA_ELEM=CAREL,
   EXCIT=_F(CHARGE = CHART,FONC_MULT = FONCT),
   COMP_INCR=(
      _F(RELATION = 'MULTIFIBRE', GROUP_MA = 'GC1', ITER_INTE_MAXI = 500),
      _F(RELATION = 'MULTIFIBRE', GROUP_MA = 'GR1',ITER_INTE_MAXI = 500)),
   INCREMENT=_F(LIST_INST = LINST),
   NEWTON=_F(MATRICE = 'TANGENTE',REAC_ITER = 1),
)


REST=CALC_CHAMP(reuse=REST,CONTRAINTE=('EFGE_ELNO'),RESULTAT=REST)

REST=CALC_CHAMP(reuse=REST,RESULTAT=REST,DEFORMATION=('DEGE_ELNO'))

TEST_RESU(RESU=(_F(NUME_ORDRE=11,
                   REFERENCE='ANALYTIQUE',
                   RESULTAT=REST,
                   NOM_CHAM='EFGE_ELNO',
                   NOEUD='R3',
                   NOM_CMP='N',
                   VALE_CALC= 3.00030000E+06,
                   VALE_REFE=3.E6,
                   PRECISION=1.E-3,
                   MAILLE='SR2',),
                _F(NUME_ORDRE=21,
                   REFERENCE='ANALYTIQUE',
                   RESULTAT=REST,
                   NOM_CHAM='EFGE_ELNO',
                   NOEUD='R3',
                   NOM_CMP='N',
                   VALE_CALC= 3.00060000E+06,
                   VALE_REFE=3.E6,
                   PRECISION=1.E-3,
                   MAILLE='SR2',),
                _F(NUME_ORDRE=11,
                   REFERENCE='ANALYTIQUE',
                   RESULTAT=REST,
                   NOM_CHAM='EFGE_ELNO',
                   NOEUD='C3',
                   NOM_CMP='N',
                   VALE_CALC= 4.72898941E+06,
                   VALE_REFE=4.822395E6,
                   PRECISION=0.025000000000000001,
                   MAILLE='SC2',),
                _F(NUME_ORDRE=21,
                   REFERENCE='ANALYTIQUE',
                   RESULTAT=REST,
                   NOM_CHAM='EFGE_ELNO',
                   NOEUD='C3',
                   NOM_CMP='N',
                   VALE_CALC= 4.77581108E+06,
                   VALE_REFE=4.870141E6,
                   PRECISION=0.025000000000000001,
                   MAILLE='SC2',),
                _F(NUME_ORDRE=21,
                   REFERENCE='ANALYTIQUE',
                   RESULTAT=REST,
                   NOM_CHAM='DEGE_ELNO',
                   NOEUD='C3',
                   NOM_CMP='EPXX',
                   VALE_CALC= 2.25000000E-03,
                   VALE_REFE=2.2499999999999998E-3,
                   PRECISION=1.E-3,
                   MAILLE='SC2',),
                _F(NUME_ORDRE=21,
                   REFERENCE='ANALYTIQUE',
                   POINT=1,
                   SOUS_POINT=1,
                   RESULTAT=REST,
                   NOM_CHAM='VARI_ELGA',
                   NOM_CMP='V1',
                   VALE_CALC= 1.49985000E-03,
                   VALE_REFE=1.5E-3,
                   PRECISION=1.E-3,
                   MAILLE='SR1',),
                _F(NUME_ORDRE=21,
                   REFERENCE='ANALYTIQUE',
                   POINT=1,
                   SOUS_POINT=1,
                   RESULTAT=REST,
                   NOM_CHAM='VARI_ELGA',
                   NOM_CMP='V1',
                   VALE_CALC= 1.48500000E-03,
                   VALE_REFE=1.5E-3,
                   PRECISION=0.014999999999999999,
                   MAILLE='SC1',),
                ),
          )

# ------ FLEXION GZ EN PLASTICITE PARFAITE ---------------------------
# PLASTICITE PARFAITE
# AFFECTE SUR LA SECTION RECTANGLE

MATR1=DEFI_MATERIAU(
   ELAS=_F( E = 2.E11, NU = 0.3),
   ECRO_LINE=_F( D_SIGM_EPSI = 2.E11/10000.,  SY = 150.E6),
                        )

# AFFECTE SUR LA SECTION CERCLE
MATC1=DEFI_MATERIAU(
   ELAS=_F( E = 2.E11, NU = 0.3),
   ECRO_LINE=_F( D_SIGM_EPSI = 2.E11/10000., SY = 150.E6),
)

COMPPMF1=DEFI_COMPOR(GEOM_FIBRE=GF,
                    MATER_SECT=MATR3,
                    MULTIFIBRE=(
                                 _F(GROUP_FIBRE='S_RECT', MATER=MATR1, RELATION='VMIS_ISOT_LINE'),
                                 _F(GROUP_FIBRE='S_CERC', MATER=MATC1, RELATION='VMIS_ISOT_LINE'),
                                  ),
                      )

CHMAT2=AFFE_MATERIAU(   MAILLAGE=MA,
                        AFFE=(_F( GROUP_MA = ('GC1','GR1'), MATER = (MATR1,MATC1,MATR3))),
                   AFFE_COMPOR= _F( TOUT='OUI', COMPOR = COMPPMF1))


CHARM=AFFE_CHAR_MECA(
   MODELE=MO,DDL_IMPO=(
   _F( GROUP_NO = 'A', DX = 0., DY = 0., DZ = 0., DRX = 0., DRY = 0., DRZ = 0.),
   _F( GROUP_NO = 'B',  DRZ = 0.75E-2))
)

FONCM=DEFI_FONCTION(
   NOM_PARA='INST',
   VALE=(    0., 0.,
            20., 20.,
            30., -2.,)
)

LINSR=DEFI_LIST_REEL(
   DEBUT=0.,INTERVALLE=(
      _F( JUSQU_A = 1.,    NOMBRE = 1),
      _F( JUSQU_A = 5.,    NOMBRE = 20),
      _F( JUSQU_A = 10.,   NOMBRE = 10),
      _F( JUSQU_A = 20.,   NOMBRE = 10),
      _F( JUSQU_A = 30.,   NOMBRE = 30),
   )
)

RESM=STAT_NON_LINE(
   MODELE=MO,
   CHAM_MATER=CHMAT2,
   CARA_ELEM=CAREL,
   EXCIT=_F(CHARGE = CHARM,FONC_MULT = FONCM),
   COMP_INCR=_F(RELATION = 'MULTIFIBRE',ITER_INTE_MAXI = 50,RESI_INTE_RELA = 1.E-6),
   INCREMENT=_F(LIST_INST = LINSR),
   CONVERGENCE=_F(ITER_GLOB_MAXI = 100),
   NEWTON=_F(MATRICE = 'TANGENTE',REAC_ITER=1)
)

RESM=CALC_CHAMP(reuse=RESM,CONTRAINTE=('EFGE_ELNO'),RESULTAT=RESM)

RESM=CALC_CHAMP(reuse=RESM,RESULTAT=RESM,DEFORMATION=('DEGE_ELNO'))

# RESULTATS EN PLASTICITE PARFAITE
TEST_RESU(RESU=(_F(NUME_ORDRE=1,
                   REFERENCE='ANALYTIQUE',
                   RESULTAT=RESM,
                   NOM_CHAM='EFGE_ELNO',
                   NOEUD='R3',
                   NOM_CMP='MFZ',
                   VALE_CALC= 9.97500000E+04,
                   VALE_REFE=1.E5,
                   PRECISION=5.0000000000000001E-3,
                   MAILLE='SR2',),
                _F(NUME_ORDRE=21,
                   REFERENCE='ANALYTIQUE',
                   RESULTAT=RESM,
                   NOM_CHAM='EFGE_ELNO',
                   NOEUD='R3',
                   NOM_CMP='MFZ',
                   VALE_CALC= 1.47785100E+05,
                   VALE_REFE=1.48000E5,
                   PRECISION=1.E-2,
                   MAILLE='SR2',),
                _F(NUME_ORDRE=31,
                   REFERENCE='ANALYTIQUE',
                   RESULTAT=RESM,
                   NOM_CHAM='EFGE_ELNO',
                   NOEUD='R3',
                   NOM_CMP='MFZ',
                   VALE_CALC= 1.49334825E+05,
                   VALE_REFE=1.49500E5,
                   PRECISION=1.E-2,
                   MAILLE='SR2',),
                _F(NUME_ORDRE=31,
                   REFERENCE='ANALYTIQUE',
                   RESULTAT=RESM,
                   NOM_CHAM='DEGE_ELNO',
                   NOEUD='R3',
                   NOM_CMP='KZ',
                   VALE_CALC=0.075000000,
                   VALE_REFE=0.074999999999999997,
                   MAILLE='SR2',),
                _F(NUME_ORDRE=41,
                   REFERENCE='ANALYTIQUE',
                   RESULTAT=RESM,
                   NOM_CHAM='EFGE_ELNO',
                   NOEUD='R3',
                   NOM_CMP='MFZ',
                   VALE_CALC= 1.50184500E+05,
                   VALE_REFE=1.49880E5,
                   PRECISION=1.E-2,
                   MAILLE='SR2',),
                _F(NUME_ORDRE=1,
                   REFERENCE='ANALYTIQUE',
                   RESULTAT=RESM,
                   NOM_CHAM='EFGE_ELNO',
                   NOEUD='C3',
                   NOM_CMP='MFZ',
                   VALE_CALC= 1.15504530E+05,
                   VALE_REFE=1.17810E5,
                   PRECISION=0.025000000000000001,
                   MAILLE='SC2',),
                _F(NUME_ORDRE=21,
                   REFERENCE='ANALYTIQUE',
                   RESULTAT=RESM,
                   NOM_CHAM='EFGE_ELNO',
                   NOEUD='C3',
                   NOM_CMP='MFZ',
                   VALE_CALC= 1.93292133E+05,
                   VALE_REFE=1.96020E5,
                   PRECISION=0.02,
                   MAILLE='SC2',),
                _F(NUME_ORDRE=31,
                   REFERENCE='ANALYTIQUE',
                   RESULTAT=RESM,
                   NOM_CHAM='EFGE_ELNO',
                   NOEUD='C3',
                   NOM_CMP='MFZ',
                   VALE_CALC= 1.96942458E+05,
                   VALE_REFE=1.99000E5,
                   PRECISION=0.014999999999999999,
                   MAILLE='SC2',),
                _F(NUME_ORDRE=41,
                   REFERENCE='ANALYTIQUE',
                   RESULTAT=RESM,
                   NOM_CHAM='EFGE_ELNO',
                   NOEUD='C3',
                   NOM_CMP='MFZ',
                   VALE_CALC= 1.97722652E+05,
                   VALE_REFE=1.99750E5,
                   PRECISION=0.014999999999999999,
                   MAILLE='SC2',),
                _F(NUME_ORDRE=71,
                   REFERENCE='ANALYTIQUE',
                   RESULTAT=RESM,
                   NOM_CHAM='EFGE_ELNO',
                   NOEUD='R3',
                   NOM_CMP='MFZ',
                   VALE_CALC=-1.49024048E+05,
                   VALE_REFE=-1.50000E5,
                   PRECISION=1.E-2,
                   MAILLE='SR2',),
                _F(NUME_ORDRE=71,
                   REFERENCE='ANALYTIQUE',
                   RESULTAT=RESM,
                   NOM_CHAM='EFGE_ELNO',
                   NOEUD='C3',
                   NOM_CMP='MFZ',
                   VALE_CALC=-1.96991077E+05,
                   VALE_REFE=-2.E5,
                   PRECISION=0.02,
                   MAILLE='SC2',),
                ),
          )

# TEST DES REACTIONS
REST=CALC_CHAMP(reuse=REST,RESULTAT=REST,FORCE='REAC_NODA' )

TEST_RESU(RESU=(_F(NUME_ORDRE=11,
                   REFERENCE='ANALYTIQUE',
                   RESULTAT=REST,
                   NOM_CHAM='REAC_NODA',
                   NOEUD='R3',
                   NOM_CMP='DX',
                   VALE_CALC= 3.00030000E+06,
                   VALE_REFE=3.E6,
                   PRECISION=1.E-3,),
                _F(NUME_ORDRE=21,
                   REFERENCE='ANALYTIQUE',
                   RESULTAT=REST,
                   NOM_CHAM='REAC_NODA',
                   NOEUD='R3',
                   NOM_CMP='DX',
                   VALE_CALC= 3.00060000E+06,
                   VALE_REFE=3.E6,
                   PRECISION=1.E-3,),
                _F(NUME_ORDRE=11,
                   REFERENCE='ANALYTIQUE',
                   RESULTAT=REST,
                   NOM_CHAM='REAC_NODA',
                   NOEUD='C3',
                   NOM_CMP='DX',
                   VALE_CALC= 4.72898941E+06,
                   VALE_REFE=4.822395E6,
                   PRECISION=0.025000000000000001,),
                _F(NUME_ORDRE=21,
                   REFERENCE='ANALYTIQUE',
                   RESULTAT=REST,
                   NOM_CHAM='REAC_NODA',
                   NOEUD='C3',
                   NOM_CMP='DX',
                   VALE_CALC= 4.77581108E+06,
                   VALE_REFE=4.870141E6,
                   PRECISION=0.025000000000000001,),
                ),
          )

RESM=CALC_CHAMP(reuse=RESM, RESULTAT=RESM, FORCE='REAC_NODA')

TEST_RESU(RESU=(_F(NUME_ORDRE=1,
                   REFERENCE='ANALYTIQUE',
                   RESULTAT=RESM,
                   NOM_CHAM='REAC_NODA',
                   NOEUD='R3',
                   NOM_CMP='DRZ',
                   VALE_CALC= 9.97500000E+04,
                   VALE_REFE=1.E5,
                   PRECISION=5.0000000000000001E-3,),
                _F(NUME_ORDRE=21,
                   REFERENCE='ANALYTIQUE',
                   RESULTAT=RESM,
                   NOM_CHAM='REAC_NODA',
                   NOEUD='R3',
                   NOM_CMP='DRZ',
                   VALE_CALC= 1.47785100E+05,
                   VALE_REFE=1.48000E5,
                   PRECISION=1.E-2,),
                _F(NUME_ORDRE=31,
                   REFERENCE='ANALYTIQUE',
                   RESULTAT=RESM,
                   NOM_CHAM='REAC_NODA',
                   NOEUD='R3',
                   NOM_CMP='DRZ',
                   VALE_CALC= 1.49334825E+05,
                   VALE_REFE=1.49500E5,
                   PRECISION=1.E-2,),
                _F(NUME_ORDRE=41,
                   REFERENCE='ANALYTIQUE',
                   RESULTAT=RESM,
                   NOM_CHAM='REAC_NODA',
                   NOEUD='R3',
                   NOM_CMP='DRZ',
                   VALE_CALC= 1.50184500E+05,
                   VALE_REFE=1.49880E5,
                   PRECISION=1.E-2,),
                _F(NUME_ORDRE=1,
                   REFERENCE='ANALYTIQUE',
                   RESULTAT=RESM,
                   NOM_CHAM='REAC_NODA',
                   NOEUD='C3',
                   NOM_CMP='DRZ',
                   VALE_CALC= 1.15504530E+05,
                   VALE_REFE=1.17810E5,
                   PRECISION=0.025000000000000001,),
                _F(NUME_ORDRE=21,
                   REFERENCE='ANALYTIQUE',
                   RESULTAT=RESM,
                   NOM_CHAM='REAC_NODA',
                   NOEUD='C3',
                   NOM_CMP='DRZ',
                   VALE_CALC= 1.93292133E+05,
                   VALE_REFE=1.96020E5,
                   PRECISION=0.02,),
                _F(NUME_ORDRE=31,
                   REFERENCE='ANALYTIQUE',
                   RESULTAT=RESM,
                   NOM_CHAM='REAC_NODA',
                   NOEUD='C3',
                   NOM_CMP='DRZ',
                   VALE_CALC= 1.96942458E+05,
                   VALE_REFE=1.99000E5,
                   PRECISION=0.014999999999999999,),
                _F(NUME_ORDRE=41,
                   REFERENCE='ANALYTIQUE',
                   RESULTAT=RESM,
                   NOM_CHAM='REAC_NODA',
                   NOEUD='C3',
                   NOM_CMP='DRZ',
                   VALE_CALC= 1.97722652E+05,
                   VALE_REFE=1.99750E5,
                   PRECISION=0.014999999999999999,),
                ),
          )

# ------ TRACTION SIMPLE EN ELASTICITE  ------------------------------
# SECTION CERCLE     : 'GC1', SECTION = 'CERCLE', R=  0.10
# SECTION RECTANGLE  : 'GR1', SECTION = 'RECTANGLE', HY=0.2, HZ=0.1
# Long = 1.0
Young = 2.0E11
Rayon = 0.10
Hy    = 0.2
Hz    = 0.1
Long  = 1.0

AireC = 3.141592653589793*(Rayon**2); InerC = 3.14159*(Rayon**4)/4
AireR = Hy*Hz; InerR = Hy*(Hz**3)/12.0

DeplaTr=7.5E-3
# Effort Normal Cercle traction elastique
NCTE = Young*AireC*DeplaTr/Long
# Effort Normal Rectangle traction elastique
NRTE = Young*AireR*DeplaTr/Long

# TRACTION ELASTIQUE
# SIPO Normal Cercle, SIPO Normal Rectangle
Sipo_N_RC_TE = Young*DeplaTr/Long
# SIPM Normal Cercle, SIPM Normal Rectangle
Sipm_N_RC_TE = Young*DeplaTr/Long


Depla = 7.5E-03
DeplaRFx = 7.44195E-03
DeplaCFx = 7.34095E-03
# FLEXION ELASTIQUE
Lga = Long*(0.75 + (0.6**0.5)/4.0)
#
ForceC = 3.0*DeplaCFx*Young*InerC/(Long**3)
Mfz_C_FE = ForceC*(Lga)

ForceR = 3.0*DeplaRFx*Young*InerR/(Long**3)
Mfz_R_FE = ForceR*(Lga)

# Sigma Cercle flexion elastique
SCFE = ForceC*Long*Rayon/InerC
# Sigma Rectangle flexion elastique
SRFE = ForceR*Long*Hz*0.5/InerR



ELAS=DEFI_MATERIAU(ELAS=_F( E = Young, NU = 0.3), )

COMPPMFE=DEFI_COMPOR(GEOM_FIBRE=GF,
                    MATER_SECT=MATR3,
                    MULTIFIBRE=(
                                 _F(GROUP_FIBRE='S_RECT', MATER=ELAS, RELATION='ELAS'),
                                 _F(GROUP_FIBRE='S_CERC', MATER=ELAS, RELATION='ELAS'),
                                  ),
                      )
# AFFECTE SUR LA SECTION RECTANGLE

CHMATE=AFFE_MATERIAU(   MAILLAGE=MA,
                        AFFE=(_F( GROUP_MA = ('GC1','GR1'), MATER = (ELAS,MATR3))),
                   AFFE_COMPOR= _F( TOUT='OUI', COMPOR = COMPPMFE))


CHARTE=AFFE_CHAR_MECA(  MODELE=MO,DDL_IMPO=(
     _F( GROUP_NO = 'A', DX = 0., DY = 0., DZ = 0., DRX = 0., DRY = 0., DRZ = 0.),
     _F( GROUP_NO = 'B', DX = Depla))
    )

CHARME=AFFE_CHAR_MECA(  MODELE=MO,DDL_IMPO=(
     _F( GROUP_NO = 'A', DX = 0., DY = 0., DZ = 0., DRX = 0., DRY = 0., DRZ = 0.),
     _F( GROUP_NO = 'B', DZ = Depla))
    )


LINSE=DEFI_LIST_REEL(
   DEBUT=0.0,
   INTERVALLE=(
      _F( JUSQU_A = 1., NOMBRE =  1),
   ),
)


RESTE=STAT_NON_LINE(
   MODELE=MO,
   CHAM_MATER=CHMATE,
   CARA_ELEM=CAREL,
   EXCIT=_F(CHARGE = CHARTE),
   COMP_INCR=(
      _F(RELATION = 'MULTIFIBRE', GROUP_MA = 'GC1',),
      _F(RELATION = 'MULTIFIBRE', GROUP_MA = 'GR1',),),
   INCREMENT=_F( LIST_INST = LINSE),
   NEWTON=_F(MATRICE = 'TANGENTE',REAC_ITER = 1),
)

RESME=STAT_NON_LINE(
   MODELE=MO,
   CHAM_MATER=CHMATE,
   CARA_ELEM=CAREL,
   EXCIT=_F(CHARGE = CHARME, FONC_MULT = FONCT),
   COMP_INCR=(
      _F(RELATION = 'MULTIFIBRE', GROUP_MA = 'GC1',),
      _F(RELATION = 'MULTIFIBRE', GROUP_MA = 'GR1',),),
   INCREMENT=_F( LIST_INST = LINSE),
   NEWTON=_F(MATRICE = 'TANGENTE',REAC_ITER = 1),
)

RESTE=CALC_CHAMP(reuse=RESTE,RESULTAT=RESTE,CONTRAINTE=('EFGE_ELNO'))

RESME=CALC_CHAMP(reuse=RESME,RESULTAT=RESME,CONTRAINTE=('EFGE_ELNO'))


#IMPR_RESU(FORMAT='RESULTAT', RESU=_F( RESULTAT=RESTE,), )
#IMPR_RESU(FORMAT='RESULTAT', RESU=_F( RESULTAT=RESME,), )


TEST_RESU(RESU=(_F(INST=1.0,
                   REFERENCE='ANALYTIQUE',
                   RESULTAT=RESTE,
                   NOM_CHAM='EFGE_ELNO',
                   NOEUD='R3',
                   NOM_CMP='N',
                   VALE_CALC= 3.000000000E+07,
                   VALE_REFE=3.0000000000000007E7,
                   TOLE_MACHINE=1.0000000000000001E-09,
                   PRECISION=1.0000000000000001E-09,
                   MAILLE='SR2',),
                _F(INST=1.0,
                   REFERENCE='ANALYTIQUE',
                   RESULTAT=RESTE,
                   NOM_CHAM='EFGE_ELNO',
                   NOEUD='C3',
                   NOM_CMP='N',
                   VALE_CALC= 4.68216773E+07,
                   VALE_REFE=4.7123889803846896E7,
                   PRECISION=1.E-2,
                   MAILLE='SC2',),
                _F(INST=1.0,
                   REFERENCE='ANALYTIQUE',
                   RESULTAT=RESME,
                   NOM_CHAM='EFGE_ELNO',
                   NOEUD='R1',
                   NOM_CMP='MFY',
                   VALE_CALC=-73681.035047364,
                   VALE_REFE=-7.0225899206654154E4,
                   PRECISION=0.055,
                   MAILLE='SR1',),
                _F(INST=1.0,
                   REFERENCE='ANALYTIQUE',
                   RESULTAT=RESME,
                   NOM_CHAM='EFGE_ELNO',
                   NOEUD='C1',
                   NOM_CMP='MFY',
                   VALE_CALC=-3.3889547245815E+05,
                   VALE_REFE=-3.2644016746984009E5,
                   PRECISION=0.044999999999999998,
                   MAILLE='SC1',),
                ),
          )

FIN( )
#
