# person_in_charge: jean-luc.flejou at edf.fr
# ======================================================================
# COPYRIGHT (C) 1991 - 2016  EDF R&D                  WWW.CODE-ASTER.ORG
# THIS PROGRAM IS FREE SOFTWARE; YOU CAN REDISTRIBUTE IT AND/OR MODIFY
# IT UNDER THE TERMS OF THE GNU GENERAL PUBLIC LICENSE AS PUBLISHED BY
# THE FREE SOFTWARE FOUNDATION; EITHER VERSION 2 OF THE LICENSE, OR
# (AT YOUR OPTION) ANY LATER VERSION.
#
# THIS PROGRAM IS DISTRIBUTED IN THE HOPE THAT IT WILL BE USEFUL, BUT
# WITHOUT ANY WARRANTY; WITHOUT EVEN THE IMPLIED WARRANTY OF
# MERCHANTABILITY OR FITNESS FOR A PARTICULAR PURPOSE. SEE THE GNU
# GENERAL PUBLIC LICENSE FOR MORE DETAILS.
#
# YOU SHOULD HAVE RECEIVED A COPY OF THE GNU GENERAL PUBLIC LICENSE
# ALONG WITH THIS PROGRAM; IF NOT, WRITE TO EDF R&D CODE_ASTER,
#    1 AVENUE DU GENERAL DE GAULLE, 92141 CLAMART CEDEX, FRANCE.
# ======================================================================

DEBUT(CODE=_F(NIV_PUB_WEB='INTERNET',VISU_EFICAS='OUI'),DEBUG=_F(SDVERI='NON'))
# SDVERI='NON' car la verification est trop couteuse en CPU

#Acquisition du maillage de la poutre au format GIBI
#
#Poutre verticale encastree en pied (point PA) et libre en tete (point PB)

MA=LIRE_MAILLAGE(FORMAT='MED',UNITE=17,);
#Acquisition du maillage de la section transverse (Poutre multi-fibres)
#
#Section divisee en 100 fibres (10 par cote)

MA_SECT=LIRE_MAILLAGE(FORMAT='MED',UNITE=18,);
#Definition d'un groupe de noeuds qui contient tous les noeuds de la poutre : AB
#Idem pour AB_  mais sans le noeud en pied (pt A)

MA=DEFI_GROUP(reuse =MA,
              MAILLAGE=MA,
              CREA_GROUP_NO=(_F(TOUT_GROUP_MA='OUI',),
                             _F(DIFFE=('AB','PA',),
                                NOM='AB_',),),);
#Predeformation de la poutre suivant son premier mode de flambement (defaut de rectitude)
#
#Ici cela est fait "a la main" mais plus generalement on extrait le mode a partir d'un calcul non-lineaire.
b = 0.0005;

PII = 3.141592;


MODE_COS = FORMULE(VALE='b*(1-cos(PII*Y))',
                   NOM_PARA='Y',);

M_GEOM=CREA_CHAMP(TYPE_CHAM='NOEU_GEOM_R',
                  OPERATION='EXTR',
                  MAILLAGE=MA,
                  NOM_CHAM='GEOMETRIE',);

MODE1F=CREA_CHAMP(TYPE_CHAM='NOEU_NEUT_F',
                  OPERATION='AFFE',
                  MAILLAGE=MA,
                  AFFE=_F(
                  GROUP_NO='AB_',
                  NOM_CMP='X1',
                  VALE_F=MODE_COS,),);

MODE1R=CREA_CHAMP(TYPE_CHAM='NOEU_NEUT_R',
                  OPERATION='EVAL',
                  CHAM_F=MODE1F,
                  CHAM_PARA=M_GEOM,);

MODE_FLB=CREA_CHAMP(TYPE_CHAM='NOEU_DEPL_R',
                    OPERATION='ASSE',
                    MAILLAGE=MA,
                    ASSE=_F(
                    GROUP_NO='AB_',
                    CHAM_GD=MODE1R,
                    NOM_CMP='X1',
                    NOM_CMP_RESU='DX',),);

MA=MODI_MAILLAGE(reuse =MA,
                 MAILLAGE=MA,
                 DEFORME=_F(OPTION='TRAN',
                            DEPL=MODE_FLB,),);
#Corps du fichier de commandes

MO=AFFE_MODELE(MAILLAGE=MA,
               AFFE=_F(GROUP_MA='AB',
                       PHENOMENE='MECANIQUE',
                       MODELISATION='POU_D_TGM',),);

MAT=DEFI_MATERIAU(ELAS=_F(E=200000.0E+6,
                          NU=0.3,),);

GF=DEFI_GEOM_FIBRE(
   SECTION =_F(GROUP_FIBRE='SECF',
             GROUP_MA_SECT='SECT',
             MAILLAGE_SECT=MA_SECT,
            COOR_AXE_POUTRE=(0.,0.,),),)

COMPF=DEFI_COMPOR(GEOM_FIBRE=GF,MATER_SECT=MAT,
                  MULTIFIBRE=_F(GROUP_FIBRE='SECF',MATER=MAT,RELATION='ELAS',),
                     )


CH_MAT=AFFE_MATERIAU(MAILLAGE=MA,
                  AFFE=_F(TOUT='OUI',MATER=MAT,),
                  AFFE_COMPOR=_F(TOUT='OUI',COMPOR=COMPF),
                 );

CARACT=AFFE_CARA_ELEM(MODELE=MO,
                      POUTRE=_F(GROUP_MA='AB',
                                SECTION='GENERALE',
                                CARA=('A','IY','IZ','AY','AZ','JX','JG',),
                                VALE=(0.0003375,1.51874999999999975E-007,5.63835937500000244E-010,1.2,1.2,2.19201e-09,0.0,),),
                      GEOM_FIBRE=GF,
                      MULTIFIBRE=_F(GROUP_MA='AB',
                                   GROUP_FIBRE='SECF'),);

LIAISON=AFFE_CHAR_MECA(MODELE=MO,
                       DDL_IMPO=(_F(GROUP_NO='PA',
                                    DX=0.0,
                                    DY=0.0,
                                    DRX=0.0,
                                    DRY=0.0,
                                    DRZ=0.0,),
                                 _F(GROUP_NO='AB',
                                    DZ=0.0,),),);

FORCE=AFFE_CHAR_MECA(MODELE=MO,
                     FORCE_NODALE=_F(GROUP_NO='PB',
                                     FY=-1124.21,),);

FO_MULT=DEFI_FONCTION(NOM_PARA='INST',
                      VALE=(0.0,0.0,10.0,10.0,),
                      PROL_DROITE='EXCLU',
                      PROL_GAUCHE='EXCLU',);
tfin = 19.95;


L_INST=DEFI_LIST_REEL(DEBUT=0.0,
                      INTERVALLE=(_F(JUSQU_A=0.9,
                                     NOMBRE=10,),
                                  _F(JUSQU_A=0.95,
                                     NOMBRE=5,),
                                  _F(JUSQU_A=tfin,
                                     NOMBRE=500,),),);

#Premier calcul non-lineaire avec GROT_GDEP pour s'approcher de la charge critique de flambement

RESO=STAT_NON_LINE(MODELE=MO,
                   CHAM_MATER=CH_MAT,
                   CARA_ELEM=CARACT,
                   EXCIT=(_F(CHARGE=LIAISON,),
                          _F(CHARGE=FORCE,
                             FONC_MULT=FO_MULT,),),
                   COMPORTEMENT=_F(RELATION='MULTIFIBRE',DEFORMATION='GROT_GDEP',GROUP_MA='AB',),
                   INCREMENT=_F(LIST_INST=L_INST,
                                INST_FIN=0.95,),
                   NEWTON=_F(MATRICE='TANGENTE',
                             REAC_ITER=1,),
                   CONVERGENCE=_F(RESI_GLOB_RELA=1e-05,
                                  ITER_GLOB_MAXI=100,),
                   );

#Difficulte a converger : on pilote en longueur d'arc

RESO=STAT_NON_LINE(reuse =RESO,
                   MODELE=MO,
                   CHAM_MATER=CH_MAT,
                   CARA_ELEM=CARACT,
                   EXCIT=(_F(CHARGE=LIAISON,),
                          _F(CHARGE=FORCE,
                             TYPE_CHARGE='FIXE_PILO',),),
                   COMPORTEMENT=_F(RELATION='MULTIFIBRE',DEFORMATION='GROT_GDEP',),
                   ETAT_INIT=_F(
                   EVOL_NOLI=RESO,),
                   INCREMENT=_F(LIST_INST=L_INST,),
                   NEWTON=_F(MATRICE='TANGENTE',
                             REAC_ITER=1,),
                   PILOTAGE=_F(TYPE='LONG_ARC',
                               COEF_MULT=12.5,
                               ETA_PILO_MAX=9.116,
                               SELECTION='ANGL_INCR_DEPL',
                               GROUP_NO='AB_',
                               NOM_CMP=('DX','DY',),),
                   CONVERGENCE=_F(RESI_GLOB_RELA=1.0E-6,
                                  ITER_GLOB_MAXI=100,),
                   );
#

RESO=CALC_CHAMP(reuse =RESO,
               RESULTAT=RESO,
                CONTRAINTE=('EFGE_ELNO'),);

ETA=RECU_FONCTION(RESULTAT=RESO,
                  TOUT_ORDRE='OUI',
                  NOM_PARA_RESU='ETA_PILOTAGE',);

DEPX=RECU_FONCTION(RESULTAT=RESO,
                   TOUT_ORDRE='OUI',
                   NOM_CHAM='DEPL',
                   NOM_CMP='DX',
                   GROUP_NO='PB',);

DEPY=RECU_FONCTION(RESULTAT=RESO,
                   TOUT_ORDRE='OUI',
                   NOM_CHAM='DEPL',
                   NOM_CMP='DY',
                   GROUP_NO='PB',);

MDEPY=CALC_FONCTION(COMB=_F(FONCTION=DEPY,
                            COEF=-1.,),);

MZZ=RECU_FONCTION(RESULTAT=RESO,
                  TOUT_ORDRE='OUI',
                  NOM_CHAM='EFGE_ELNO',
                  NOM_CMP='MFZ',
                  MAILLE='M1',
                  GROUP_NO='PA',);

MMZZ=CALC_FONCTION(COMB=_F(FONCTION=MZZ,
                           COEF=-1.0,),);

ETA_REF=DEFI_LIST_REEL(VALE=(0.0,1.015,1.063,1.152,1.293,1.518,1.884,2.541,4.029,9.116,),);

DEPX_REF=DEFI_LIST_REEL(VALE=(0.0,0.11,0.211,0.2965,0.3595,0.396,0.4015,0.375,0.3125,0.2105,),);

DEPY_REF=DEFI_LIST_REEL(VALE=(0.0,0.015,0.0595,0.1295,0.22,0.3255,0.4385,0.5535,0.67,0.7885,),);

MMZZ_REF=DEFI_LIST_REEL(VALE=(0.0,127.58,248.32,380.45,519.41,674.33,849.74,1070.72,1412.44,2150.55,),);

IMPR_FONCTION(FORMAT='XMGRACE',
              UNITE=29,
              COURBE=(_F(FONC_X=DEPX,
                         FONC_Y=ETA,),
                      _F(FONC_X=MDEPY,
                         FONC_Y=ETA,),
                      _F(LIST_PARA=DEPX_REF,
                         LIST_RESU=ETA_REF,),
                      _F(LIST_PARA=DEPY_REF,
                         LIST_RESU=ETA_REF,),),
              TITRE='Dx et Dy en fonction de P/Pcr',);

IMPR_FONCTION(FORMAT='XMGRACE',
              UNITE=30,
              COURBE=(_F(FONC_X=MMZZ,
                        FONC_Y=ETA,),
                     _F(LIST_PARA=MMZZ_REF,
                         LIST_RESU=ETA_REF,),),
              TITRE='Moment MZ en fonction de P/Pcr',);

# A PARTIR DES FONCTIONS
#     - ETA  = F(INST,ETA_PILOTAGE),
#     - DEPX = F(INST,DX)
#     - DEPY = F(INST,DY)
#     - MMZZ = F(INST,MFZ)
# ON CREE LES FONCTIONS
#     - DX  = F(ETA),
#     - DY  = F(ETA),
#     - MZ  = F(ETA)

T_ETA=CREA_TABLE(FONCTION=_F(FONCTION=ETA,),);

T_DEPX=CREA_TABLE(FONCTION=_F(FONCTION=DEPX,),);

T_DEPY=CREA_TABLE(FONCTION=_F(FONCTION=DEPY,),);

T_MZZ=CREA_TABLE(FONCTION=_F(FONCTION=MMZZ,),);

TAB_COMB=CALC_TABLE(TABLE=T_ETA,
                    ACTION=(_F(OPERATION='COMB', TABLE=T_DEPX, NOM_PARA='INST'),
                            _F(OPERATION='COMB', TABLE=T_DEPY, NOM_PARA='INST'),
                            _F(OPERATION='COMB', TABLE=T_MZZ,  NOM_PARA='INST'),),);

IMPR_TABLE(TABLE=TAB_COMB,);

DX_ETA=RECU_FONCTION(TABLE=TAB_COMB,
                     PARA_X='ETA_PILO',
                     PARA_Y='DX',
                     FILTRE=_F(NOM_PARA='ETA_PILO', CRIT_COMP='NE', VALE=0.),
                     INTERPOL='LIN',
                     PROL_DROITE='CONSTANT',
                     PROL_GAUCHE='CONSTANT',);

DY_ETA=RECU_FONCTION(TABLE=TAB_COMB,
                     PARA_X='ETA_PILO',
                     PARA_Y='DY',
                     FILTRE=_F(NOM_PARA='ETA_PILO', CRIT_COMP='NE', VALE=0.),
                     INTERPOL='LIN',
                     PROL_DROITE='CONSTANT',
                     PROL_GAUCHE='CONSTANT',);

MZ_ETA=RECU_FONCTION(TABLE=TAB_COMB,
                     PARA_X='ETA_PILO',
                     PARA_Y='MFZ',
                     FILTRE=_F(NOM_PARA='ETA_PILO', CRIT_COMP='NE', VALE=0.),
                     INTERPOL='LIN',
                     PROL_DROITE='CONSTANT',
                     PROL_GAUCHE='CONSTANT',);

IMPR_RESU(FORMAT='CASTEM',
          RESU=_F(MAILLAGE=MA,
                  RESULTAT=RESO,
                  NOM_CHAM='DEPL',),);

# 3 PREMIERES VALEURS ELOIGNEES DE LA SOLUTION ANALYTIQUE A CAUSE DU DEFAUT DE RECTITUDE
TEST_FONCTION(VALEUR=(_F(VALE_CALC=0.134590067581,
                         VALE_REFE=0.11,
                         CRITERE='RELATIF',
                         VALE_PARA=1.015,
                         REFERENCE='ANALYTIQUE',
                         PRECISION=0.25,
                         FONCTION=DX_ETA,),
                      _F(VALE_CALC=0.21647977586,
                         VALE_REFE=0.211,
                         CRITERE='RELATIF',
                         VALE_PARA=1.063,
                         REFERENCE='ANALYTIQUE',
                         PRECISION=0.05,
                         FONCTION=DX_ETA,),
                      _F(VALE_CALC=0.296300846072,
                         VALE_REFE=0.2965,
                         CRITERE='RELATIF',
                         VALE_PARA=1.152,
                         REFERENCE='ANALYTIQUE',
                         PRECISION=1.E-2,
                         FONCTION=DX_ETA,),
                      _F(VALE_CALC=0.356400464106,
                         VALE_REFE=0.3595,
                         CRITERE='RELATIF',
                         VALE_PARA=1.293,
                         REFERENCE='ANALYTIQUE',
                         PRECISION=1.E-2,
                         FONCTION=DX_ETA,),
                      _F(VALE_CALC=0.391823538832,
                         VALE_REFE=0.396,
                         CRITERE='RELATIF',
                         VALE_PARA=1.518,
                         REFERENCE='ANALYTIQUE',
                         PRECISION=0.02,
                         FONCTION=DX_ETA,),
                      _F(VALE_CALC=0.397869107871,
                         VALE_REFE=0.4015,
                         CRITERE='RELATIF',
                         VALE_PARA=1.884,
                         REFERENCE='ANALYTIQUE',
                         PRECISION=1.E-2,
                         FONCTION=DX_ETA,),
                      _F(VALE_CALC=0.372272909099,
                         VALE_REFE=0.375,
                         CRITERE='RELATIF',
                         VALE_PARA=2.541,
                         REFERENCE='ANALYTIQUE',
                         PRECISION=1.E-2,
                         FONCTION=DX_ETA,),
                      _F(VALE_CALC=0.310507171964,
                         VALE_REFE=0.3125,
                         CRITERE='RELATIF',
                         VALE_PARA=4.029,
                         REFERENCE='ANALYTIQUE',
                         PRECISION=1.E-2,
                         FONCTION=DX_ETA,),
                      _F(VALE_CALC=0.210497850062,
                         VALE_REFE=0.2105,
                         CRITERE='RELATIF',
                         VALE_PARA=9.116,
                         REFERENCE='ANALYTIQUE',
                         PRECISION=1.E-2,
                         FONCTION=DX_ETA,),
                      ),
              )

# 3 PREMIERES VALEURS ELOIGNEES DE LA SOLUTION ANALYTIQUE A CAUSE DU DEFAUT DE RECTITUDE
TEST_FONCTION(VALEUR=(_F(VALE_CALC=-0.0241040200775,
                         VALE_REFE=-0.015,
                         CRITERE='RELATIF',
                         VALE_PARA=1.015,
                         REFERENCE='ANALYTIQUE',
                         PRECISION=0.7,
                         FONCTION=DY_ETA,),
                      _F(VALE_CALC=-0.0647334906636,
                         VALE_REFE=-0.0595,
                         CRITERE='RELATIF',
                         VALE_PARA=1.063,
                         REFERENCE='ANALYTIQUE',
                         PRECISION=0.1,
                         FONCTION=DY_ETA,),
                      _F(VALE_CALC=-0.132655727524,
                         VALE_REFE=-0.1295,
                         CRITERE='RELATIF',
                         VALE_PARA=1.152,
                         REFERENCE='ANALYTIQUE',
                         PRECISION=0.05,
                         FONCTION=DY_ETA,),
                      _F(VALE_CALC=-0.22024705225,
                         VALE_REFE=-0.22,
                         CRITERE='RELATIF',
                         VALE_PARA=1.293,
                         REFERENCE='ANALYTIQUE',
                         PRECISION=1.E-2,
                         FONCTION=DY_ETA,),
                      _F(VALE_CALC=-0.323594916034,
                         VALE_REFE=-0.3255,
                         CRITERE='RELATIF',
                         VALE_PARA=1.518,
                         REFERENCE='ANALYTIQUE',
                         PRECISION=1.E-2,
                         FONCTION=DY_ETA,),
                      _F(VALE_CALC=-0.434631308182,
                         VALE_REFE=-0.4385,
                         CRITERE='RELATIF',
                         VALE_PARA=1.884,
                         REFERENCE='ANALYTIQUE',
                         PRECISION=1.E-2,
                         FONCTION=DY_ETA,),
                      _F(VALE_CALC=-0.548114956855,
                         VALE_REFE=-0.5535,
                         CRITERE='RELATIF',
                         VALE_PARA=2.541,
                         REFERENCE='ANALYTIQUE',
                         PRECISION=1.E-2,
                         FONCTION=DY_ETA,),
                      _F(VALE_CALC=-0.663319452672,
                         VALE_REFE=-0.67,
                         CRITERE='RELATIF',
                         VALE_PARA=4.029,
                         REFERENCE='ANALYTIQUE',
                         PRECISION=1.E-2,
                         FONCTION=DY_ETA,),
                      _F(VALE_CALC=-0.779577555916,
                         VALE_REFE=-0.7885,
                         CRITERE='RELATIF',
                         VALE_PARA=9.116,
                         REFERENCE='ANALYTIQUE',
                         PRECISION=0.02,
                         FONCTION=DY_ETA,),
                      ),
              )

# 3 PREMIERES VALEURS ELOIGNEES DE LA SOLUTION ANALYTIQUE A CAUSE DU DEFAUT DE RECTITUDE
TEST_FONCTION(VALEUR=(_F(VALE_CALC=154.14828853,
                         VALE_REFE=127.58,
                         CRITERE='RELATIF',
                         VALE_PARA=1.015,
                         REFERENCE='ANALYTIQUE',
                         PRECISION=0.3,
                         FONCTION=MZ_ETA,),
                      _F(VALE_CALC=259.29963882,
                         VALE_REFE=248.32,
                         CRITERE='RELATIF',
                         VALE_PARA=1.063,
                         REFERENCE='ANALYTIQUE',
                         PRECISION=0.05,
                         FONCTION=MZ_ETA,),
                      _F(VALE_CALC=384.38976564,
                         VALE_REFE=380.45,
                         CRITERE='RELATIF',
                         VALE_PARA=1.152,
                         REFERENCE='ANALYTIQUE',
                         PRECISION=0.02,
                         FONCTION=MZ_ETA,),
                      _F(VALE_CALC=518.79570292,
                         VALE_REFE=519.41,
                         CRITERE='RELATIF',
                         VALE_PARA=1.293,
                         REFERENCE='ANALYTIQUE',
                         PRECISION=1.E-2,
                         FONCTION=MZ_ETA,),
                      _F(VALE_CALC=669.52324061,
                         VALE_REFE=674.33,
                         CRITERE='RELATIF',
                         VALE_PARA=1.518,
                         REFERENCE='ANALYTIQUE',
                         PRECISION=1.E-2,
                         FONCTION=MZ_ETA,),
                      _F(VALE_CALC=843.75030300,
                         VALE_REFE=849.74,
                         CRITERE='RELATIF',
                         VALE_PARA=1.884,
                         REFERENCE='ANALYTIQUE',
                         PRECISION=1.E-2,
                         FONCTION=MZ_ETA,),
                      _F(VALE_CALC=1064.8554664,
                         VALE_REFE=1070.72,
                         CRITERE='RELATIF',
                         VALE_PARA=2.541,
                         REFERENCE='ANALYTIQUE',
                         PRECISION=1.E-2,
                         FONCTION=MZ_ETA,),
                      _F(VALE_CALC=1408.6239852,
                         VALE_REFE=1412.44,
                         CRITERE='RELATIF',
                         VALE_PARA=4.029,
                         REFERENCE='ANALYTIQUE',
                         PRECISION=1.E-2,
                         FONCTION=MZ_ETA,),
                      _F(VALE_CALC=2162.3698482,
                         VALE_REFE=2150.55,
                         CRITERE='RELATIF',
                         VALE_PARA=9.116,
                         REFERENCE='ANALYTIQUE',
                         PRECISION=1.E-2,
                         FONCTION=MZ_ETA,),
                      ),
              )

TEST_FONCTION(VALEUR=(_F(VALE_CALC=0.13459006758163,
                         CRITERE='RELATIF',
                         VALE_PARA=1.015,
                         FONCTION=DX_ETA,
                         ),
                      _F(VALE_CALC=0.21647977585992001,
                         CRITERE='RELATIF',
                         VALE_PARA=1.063,
                         FONCTION=DX_ETA,
                         ),
                      _F(VALE_CALC=0.29630084607232998,
                         CRITERE='RELATIF',
                         VALE_PARA=1.152,
                         FONCTION=DX_ETA,
                         ),
                      _F(VALE_CALC=0.35640046410568998,
                         CRITERE='RELATIF',
                         VALE_PARA=1.293,
                         FONCTION=DX_ETA,
                         ),
                      _F(VALE_CALC=0.3918235388322,
                         CRITERE='RELATIF',
                         VALE_PARA=1.518,
                         FONCTION=DX_ETA,
                         ),
                      _F(VALE_CALC=0.39786910787092,
                         CRITERE='RELATIF',
                         VALE_PARA=1.884,
                         FONCTION=DX_ETA,
                         ),
                      _F(VALE_CALC=0.37227290909883998,
                         CRITERE='RELATIF',
                         VALE_PARA=2.541,
                         FONCTION=DX_ETA,
                         ),
                      _F(VALE_CALC=0.31050717196441002,
                         CRITERE='RELATIF',
                         VALE_PARA=4.029,
                         FONCTION=DX_ETA,
                         ),
                      _F(VALE_CALC=0.21049785006189001,
                         CRITERE='RELATIF',
                         VALE_PARA=9.116,
                         FONCTION=DX_ETA,
                         ),
                      ),
              )

TEST_FONCTION(VALEUR=(_F(VALE_CALC=-0.024104020077641002,
                         CRITERE='RELATIF',
                         VALE_PARA=1.0149999999999999,
                         FONCTION=DY_ETA,
                         ),
                      _F(VALE_CALC=-0.064733490663647003,
                         CRITERE='RELATIF',
                         VALE_PARA=1.063,
                         FONCTION=DY_ETA,
                         ),
                      _F(VALE_CALC=-0.13265572752402,
                         CRITERE='RELATIF',
                         VALE_PARA=1.152,
                         FONCTION=DY_ETA,
                         ),
                      _F(VALE_CALC=-0.22024705224985,
                         CRITERE='RELATIF',
                         VALE_PARA=1.293,
                         FONCTION=DY_ETA,
                         ),
                      _F(VALE_CALC=-0.32359491603360002,
                         CRITERE='RELATIF',
                         VALE_PARA=1.518,
                         FONCTION=DY_ETA,
                         ),
                      _F(VALE_CALC=-0.43463130818167001,
                         CRITERE='RELATIF',
                         VALE_PARA=1.884,
                         FONCTION=DY_ETA,
                         ),
                      _F(VALE_CALC=-0.54811495685529998,
                         CRITERE='RELATIF',
                         VALE_PARA=2.541,
                         FONCTION=DY_ETA,
                         ),
                      _F(VALE_CALC=-0.66331945267184,
                         CRITERE='RELATIF',
                         VALE_PARA=4.029,
                         FONCTION=DY_ETA,
                         ),
                      _F(VALE_CALC=-0.77957755591575995,
                         CRITERE='RELATIF',
                         VALE_PARA=9.116,
                         FONCTION=DY_ETA,
                         ),
                      ),
              )

TEST_FONCTION(VALEUR=(_F(VALE_CALC=154.1483,
                         CRITERE='RELATIF',
                         VALE_PARA=1.015,
                         FONCTION=MZ_ETA,
                         ),
                      _F(VALE_CALC=259.2996,
                         CRITERE='RELATIF',
                         VALE_PARA=1.063,
                         FONCTION=MZ_ETA,
                         ),
                      _F(VALE_CALC=384.3898,
                         CRITERE='RELATIF',
                         VALE_PARA=1.152,
                         FONCTION=MZ_ETA,
                         ),
                      _F(VALE_CALC=518.7957,
                         CRITERE='RELATIF',
                         VALE_PARA=1.293,
                         FONCTION=MZ_ETA,
                         ),
                      _F(VALE_CALC=669.5232,
                         CRITERE='RELATIF',
                         VALE_PARA=1.518,
                         FONCTION=MZ_ETA,
                         ),
                      _F(VALE_CALC=843.7503,
                         CRITERE='RELATIF',
                         VALE_PARA=1.884,
                         FONCTION=MZ_ETA,
                         ),
                      _F(VALE_CALC=1064.855,
                         CRITERE='RELATIF',
                         VALE_PARA=2.541,
                         FONCTION=MZ_ETA,
                         ),
                      _F(VALE_CALC=1408.624,
                         CRITERE='RELATIF',
                         VALE_PARA=4.029,
                         FONCTION=MZ_ETA,
                         ),
                      _F(VALE_CALC=2162.370,
                         CRITERE='RELATIF',
                         VALE_PARA=9.116,
                         FONCTION=MZ_ETA,
                         ),
                      ),
              )

FIN();
