# MODIF  DATE 17/01/2012   AUTEUR SELLENET N.SELLENET 
# TITRE CABLE PESANT AVEC DILATATION THERMIQUE. MODEL. B : POU_D_T_GD
# ssnl114b.para = tps_job 60 mem_job 32Mo ncpus 1 liste_test R
#            CONFIGURATION MANAGEMENT OF EDF VERSION
# ======================================================================
# COPYRIGHT (C) 1991 - 2012  EDF R&D                  WWW.CODE-ASTER.ORG
# THIS PROGRAM IS FREE SOFTWARE; YOU CAN REDISTRIBUTE IT AND/OR MODIFY
# IT UNDER THE TERMS OF THE GNU GENERAL PUBLIC LICENSE AS PUBLISHED BY
# THE FREE SOFTWARE FOUNDATION; EITHER VERSION 2 OF THE LICENSE, OR
# (AT YOUR OPTION) ANY LATER VERSION.
#
# THIS PROGRAM IS DISTRIBUTED IN THE HOPE THAT IT WILL BE USEFUL, BUT
# WITHOUT ANY WARRANTY; WITHOUT EVEN THE IMPLIED WARRANTY OF
# MERCHANTABILITY OR FITNESS FOR A PARTICULAR PURPOSE. SEE THE GNU
# GENERAL PUBLIC LICENSE FOR MORE DETAILS.
#
# YOU SHOULD HAVE RECEIVED A COPY OF THE GNU GENERAL PUBLIC LICENSE
# ALONG WITH THIS PROGRAM; IF NOT, WRITE TO EDF R&D CODE_ASTER,
#    1 AVENUE DU GENERAL DE GAULLE, 92141 CLAMART CEDEX, FRANCE.
# ======================================================================

DEBUT( CODE=_F(  NOM = 'SSNL114B',NIV_PUB_WEB='INTERNET'),DEBUG=_F(SDVERI='OUI'))

M1=DEFI_MATERIAU(
         ELAS=_F(   E = 5.700000E+10, ALPHA = 2.300000E-05,
        RHO = 2.844230E+03, NU = 3.000000E-01)
       )

MA2=LIRE_MAILLAGE(FORMAT='MED',)


MO2=AFFE_MODELE(   MAILLAGE=MA2, INFO=2,
             AFFE=_F(  GROUP_MA = (   'P0101010', 'O0101010', 'P0101011', ),
           PHENOMENE = 'MECANIQUE', MODELISATION = 'POU_D_T_GD')
)

CARA2=AFFE_CARA_ELEM(    MODELE=MO2,
         POUTRE=_F(  GROUP_MA = ( 'P0101010', 'O0101010', 'P0101011', ),
        SECTION = 'GENERALE',
        CARA = ( 'A', 'IY', 'IZ', 'AY', 'AZ', 'JX', ),
     VALE = ( 2.278300E-04, 1.E-4, 1.E-4, 1., 1., 0.1, ))
 )

CHDDL2=AFFE_CHAR_MECA(    MODELE=MO2,
            DDL_IMPO=_F(  GROUP_NO = ( 'ZFIXES', ),
          DX = 0.0, DY = 0.0, DZ = 0.0,
          DRX = 0.0)
 )

CHTN2=CREA_CHAMP( OPERATION='AFFE', TYPE_CHAM='NOEU_TEMP_R', MAILLAGE=MA2,
           AFFE=_F(  TOUT = 'OUI',
                  NOM_CMP = 'TEMP',
                  VALE = 39.26)
)

CHTN0=CREA_CHAMP( OPERATION='AFFE', TYPE_CHAM='NOEU_TEMP_R', MAILLAGE=MA2,
           AFFE=_F(  TOUT = 'OUI',
                  NOM_CMP = 'TEMP',
                  VALE = 0.000000E+02)
)

RESUTHER=CREA_RESU(OPERATION='AFFE', TYPE_RESU='EVOL_THER',
                      NOM_CHAM='TEMP',AFFE=(
 _F( INST = -1., CHAM_GD = CHTN0),
# MONTEE EN TEMPERATURE PROGRESSIVE
 _F( INST = 0., CHAM_GD = CHTN0),
 _F( INST = 1., CHAM_GD = CHTN2))
                   )

CHPES2=AFFE_CHAR_MECA(    MODELE=MO2,
          PESANTEUR=_F(GRAVITE=9.81,
                       DIRECTION=(0.0,0.0,-1.0,), ),)

L_INST0=DEFI_LIST_REEL(    DEBUT=-1.000000E+00,
         INTERVALLE=_F( JUSQU_A = 1.000000E+00, NOMBRE = 2)
)

CHM2=AFFE_MATERIAU(    MAILLAGE=MA2,
             AFFE=_F(  GROUP_MA = (  'O0101010', 'P0101010', 'P0101011', ), MATER = M1) ,
             AFFE_VARC =_F(TOUT='OUI', VALE_REF=0.,EVOL=RESUTHER, NOM_VARC='TEMP',),
)

RESU1=STAT_NON_LINE(
                            MODELE=MO2,
                        CHAM_MATER=CHM2,
                         CARA_ELEM=CARA2,EXCIT=(
                             _F(
                CHARGE = CHDDL2), _F(
                CHARGE = CHPES2,
                TYPE_CHARGE = 'SUIV'),),
                         INCREMENT=_F(
                LIST_INST = L_INST0,
                NUME_INST_FIN = 2),
                         COMP_ELAS=_F(
                GROUP_MA = (
                  'P0101010',  'P0101011',
                  'O0101010',  ),
                RELATION = 'ELAS_POUTRE_GR',
                DEFORMATION = 'GROT_GDEP'),
                       CONVERGENCE=_F(
                RESI_GLOB_RELA = 1.000000E-07,
                ITER_GLOB_MAXI = 50),
                            NEWTON=_F(
                REAC_ITER = 1)
              )

RESU1=CALC_ELEM( reuse=RESU1,
                            OPTION=(
                  'SIEF_ELNO',  'VARI_ELNO',),
                          RESULTAT=RESU1,
              )

# SOLUTION ANALYTIQUE : FORTRAN DANS SSNL114.38


TEST_RESU(RESU=(_F( RESULTAT = RESU1,
                 NUME_ORDRE = 1,
                 NOM_CHAM = 'DEPL',
                 NOEUD = 'N36',
                 NOM_CMP = 'DZ',
                 VALE = -6.352,
                 PRECISION = 4.E-3),
           _F( RESULTAT = RESU1,
                 NUME_ORDRE = 2,
                 NOM_CHAM = 'DEPL',
                 NOEUD = 'N36',
                 NOM_CMP = 'DZ',
                 VALE = -8.1955,
                 PRECISION = 2.E-3))
          )

TEST_RESU(RESU=( 
          _F( RESULTAT= RESU1   , NOM_CHAM= 'DEPL', NUME_ORDRE=      0,
              REFERENCE= 'NON_REGRESSION', PRECISION= 1.E-10    ,
              CRITERE= 'ABSOLU', 
              TYPE_TEST= 'SOMM_ABS', VALE=  0.0000000000000E+00 ),
          _F( RESULTAT= RESU1   , NOM_CHAM= 'DEPL', NUME_ORDRE=      1,
              REFERENCE= 'NON_REGRESSION', PRECISION= 1.E-10    ,
              TYPE_TEST= 'SOMM_ABS', VALE=  2.7783217602945E+04 ),
          _F( RESULTAT= RESU1   , NOM_CHAM= 'DEPL', NUME_ORDRE=      2,
              REFERENCE= 'NON_REGRESSION', PRECISION= 1.E-10    ,
              TYPE_TEST= 'SOMM_ABS', VALE=  2.1710555097465E+04 ),
          _F( RESULTAT= RESU1   , NOM_CHAM= 'SIEF_ELGA', NUME_ORDRE=      0,
              REFERENCE= 'NON_REGRESSION', PRECISION= 1.E-10    ,
              CRITERE= 'ABSOLU', 
              TYPE_TEST= 'SOMM_ABS', VALE=  0.0000000000000E+00 ),
          _F( RESULTAT= RESU1   , NOM_CHAM= 'SIEF_ELGA', NUME_ORDRE=      1,
              REFERENCE= 'NON_REGRESSION', PRECISION= 1.E-10    ,
              TYPE_TEST= 'SOMM_ABS', VALE=  4.0080653201038E+05 ),
          _F( RESULTAT= RESU1   , NOM_CHAM= 'SIEF_ELGA', NUME_ORDRE=      2,
              REFERENCE= 'NON_REGRESSION', PRECISION= 1.E-10    ,
              TYPE_TEST= 'SOMM_ABS', VALE=  3.3378135699613E+05 ),
          _F( RESULTAT= RESU1   , NOM_CHAM= 'SIEF_ELNO', NUME_ORDRE=      0,
              REFERENCE= 'NON_REGRESSION', PRECISION= 1.E-10    ,
              CRITERE= 'ABSOLU', 
              TYPE_TEST= 'SOMM_ABS', VALE=  0.0000000000000E+00 ),
          _F( RESULTAT= RESU1   , NOM_CHAM= 'SIEF_ELNO', NUME_ORDRE=      1,
              REFERENCE= 'NON_REGRESSION', PRECISION= 1.E-10    ,
              TYPE_TEST= 'SOMM_ABS', VALE=  8.0161306402076E+05 ),
          _F( RESULTAT= RESU1   , NOM_CHAM= 'SIEF_ELNO', NUME_ORDRE=      2,
              REFERENCE= 'NON_REGRESSION', PRECISION= 1.E-10    ,
              TYPE_TEST= 'SOMM_ABS', VALE=  6.6756271399226E+05 ),
          _F( RESULTAT= RESU1   , NOM_CHAM= 'VARI_ELGA', NUME_ORDRE=      0,
              REFERENCE= 'NON_REGRESSION', PRECISION= 1.E-10    ,
              CRITERE= 'ABSOLU', 
              TYPE_TEST= 'SOMM_ABS', VALE=  0.0000000000000E+00 ),
          _F( RESULTAT= RESU1   , NOM_CHAM= 'VARI_ELGA', NUME_ORDRE=      1,
              REFERENCE= 'NON_REGRESSION', PRECISION= 1.E-10    ,
              TYPE_TEST= 'SOMM_ABS', VALE=  9.3409435272548E-03 ),
          _F( RESULTAT= RESU1   , NOM_CHAM= 'VARI_ELGA', NUME_ORDRE=      2,
              REFERENCE= 'NON_REGRESSION', PRECISION= 1.E-10    ,
              TYPE_TEST= 'SOMM_ABS', VALE=  1.1961864026251E-02 ),
          _F( RESULTAT= RESU1   , NOM_CHAM= 'VARI_ELNO', NUME_ORDRE=      0,
              REFERENCE= 'NON_REGRESSION', PRECISION= 1.E-10    ,
              CRITERE= 'ABSOLU', 
              TYPE_TEST= 'SOMM_ABS', VALE=  0.0000000000000E+00 ),
          _F( RESULTAT= RESU1   , NOM_CHAM= 'VARI_ELNO', NUME_ORDRE=      1,
              REFERENCE= 'NON_REGRESSION', PRECISION= 1.E-10    ,
              TYPE_TEST= 'SOMM_ABS', VALE=  1.8681887054510E-02 ),
          _F( RESULTAT= RESU1   , NOM_CHAM= 'VARI_ELNO', NUME_ORDRE=      2,
              REFERENCE= 'NON_REGRESSION', PRECISION= 1.E-10    ,
              TYPE_TEST= 'SOMM_ABS', VALE=  2.3923728052502E-02 ),
          ),)

FIN( )
#
