# TITRE VALIDATION DE LA REACTUALISATION DE L'ANGLE DE VRILLE DES POUTRES
# ======================================================================
# COPYRIGHT (C) 1991 - 2015  EDF R&D                  WWW.CODE-ASTER.ORG
# THIS PROGRAM IS FREE SOFTWARE; YOU CAN REDISTRIBUTE IT AND/OR MODIFY
# IT UNDER THE TERMS OF THE GNU GENERAL PUBLIC LICENSE AS PUBLISHED BY
# THE FREE SOFTWARE FOUNDATION; EITHER VERSION 2 OF THE LICENSE, OR
# (AT YOUR OPTION) ANY LATER VERSION.
#
# THIS PROGRAM IS DISTRIBUTED IN THE HOPE THAT IT WILL BE USEFUL, BUT
# WITHOUT ANY WARRANTY; WITHOUT EVEN THE IMPLIED WARRANTY OF
# MERCHANTABILITY OR FITNESS FOR A PARTICULAR PURPOSE. SEE THE GNU
# GENERAL PUBLIC LICENSE FOR MORE DETAILS.
#
# YOU SHOULD HAVE RECEIVED A COPY OF THE GNU GENERAL PUBLIC LICENSE
# ALONG WITH THIS PROGRAM; IF NOT, WRITE TO EDF R&D CODE_ASTER,
#    1 AVENUE DU GENERAL DE GAULLE, 92141 CLAMART CEDEX, FRANCE.
# ======================================================================

DEBUT(CODE=_F(NIV_PUB_WEB='INTERNET'))
# lecture maillage lineique
MAPOU=LIRE_MAILLAGE(UNITE=20,)

# lecture maillage section grossiere
MASEC=LIRE_MAILLAGE(UNITE=19,)

MOPOU=AFFE_MODELE(MAILLAGE=MAPOU,
                  AFFE=_F(TOUT='OUI', PHENOMENE='MECANIQUE', MODELISATION='POU_D_TGM',),)

GFF=DEFI_GEOM_FIBRE(INFO=1,
                   SECTION=_F(MAILLAGE_SECT = MASEC , TOUT_SECT = 'OUI',
                               GROUP_FIBRE = 'BETON',
                               COOR_AXE_POUTRE = (0.05,0.1)),

                 )

POUCA=AFFE_CARA_ELEM(MODELE=MOPOU,    INFO=1,
# caracteristiques des sections, orientations et rigidite de torsion
           POUTRE=_F(GROUP_MA=('POUTRE'),
                     SECTION='RECTANGLE',
                     CARA = ('HY','HZ'),
                     VALE = (0.1,0.2)),
           ORIENTATION=_F(GROUP_MA=('POUTRE'),
                          CARA='ANGL_VRIL', VALE=90.0,),
           MULTIFIBRE = _F( GROUP_MA = 'POUTRE',
                              GROUP_FIBRE= ('BETON'),
                     PREC_INERTIE=1.1E-02,
                     PREC_AIRE=1.0E-06 ,),
           GEOM_FIBRE = GFF ,
                  )

# LES MATERIAUX

# DEFINIR ICI TOUTES LES VARIATIONS FONCTION DE LA TEMPERATURE SELON EUROCODE
NUB=0.25
RHOB=2400.
EB=10.E9

BETON=DEFI_MATERIAU(ELAS=_F(E=EB, NU=NUB, RHO=RHOB),
                   )


# MATERIAU POUR LES GROUPES DE FIBRES
MATFF=DEFI_COMPOR(GEOM_FIBRE=GFF,MATER_SECT=BETON,
                 MULTIFIBRE=(_F(GROUP_FIBRE='BETON',MATER=BETON,RELATION='ELAS',),),
)


# LES CHAMPS DE MATERIAUX
CHMAT=AFFE_MATERIAU(MAILLAGE=MAPOU,
                    AFFE=_F(GROUP_MA='POUTRE', MATER=(BETON)),
                    AFFE_COMPOR=_F(GROUP_MA='POUTRE',COMPOR=MATFF),
                         )

RAC2SUR2=sqrt(2.)/2.
BLOQUAGE=AFFE_CHAR_MECA(MODELE=MOPOU,
                        DDL_IMPO=(_F(GROUP_NO='A',  DX=0.0, DY=0.0, DZ=0.0,
                                                    DRY=0.,
                                     ),
                                  _F(GROUP_NO='B',  DY=0.0, ),
                                  ),
                                  # blocage de la rotation autour de l'axe de la poutre
                                  LIAISON_DDL=_F(NOEUD=('N001','N001'),DDL=('DRX','DRZ'),COEF_MULT=(RAC2SUR2,RAC2SUR2),COEF_IMPO=0.0)
                                  )
CHARG=AFFE_CHAR_MECA(MODELE=MOPOU,
                        DDL_IMPO=(
                                  _F(GROUP_NO='B',  DX= -0.01*RAC2SUR2, DZ=-0.01*RAC2SUR2 ),
                                  ),)
PERTU=AFFE_CHAR_MECA(MODELE=MOPOU,
                        FORCE_NODALE=(
                                  _F(GROUP_NO='C',  FY=100.0 , ),
                                  ),)
FOFO=DEFI_FONCTION(NOM_PARA='INST',
                   VALE=(0. , 0.,
                         1. , 1.,
                         1.1, 1.)
                         )

LINST=DEFI_LIST_REEL(DEBUT=0.0,
INTERVALLE=(_F(JUSQU_A=1.1,  NOMBRE=11,),
           ),
            );


U1=STAT_NON_LINE(MODELE=MOPOU,
                 CHAM_MATER=CHMAT,
                 CARA_ELEM=POUCA,
                 EXCIT=(_F(CHARGE=BLOQUAGE,),
                        _F(CHARGE=CHARG,FONC_MULT=FOFO),
                        _F(CHARGE=PERTU),
                         ),
                 COMPORTEMENT=(_F(RELATION='MULTIFIBRE',DEFORMATION='GROT_GDEP',),
                               ),
                 INCREMENT=_F(LIST_INST=LINST,
                              ),
                 NEWTON=_F(MATRICE='TANGENTE',REAC_ITER=1),
                 CONVERGENCE=_F(RESI_GLOB_RELA=1.E-8,
                                ITER_GLOB_MAXI=100,),
                 );
U1=CALC_CHAMP(CONTRAINTE=('SIEF_ELNO','SIPM_ELNO'),reuse=U1,RESULTAT=U1)



TEST_RESU(RESU=(_F(INST=1.0,
                   REFERENCE='AUTRE_ASTER',
                   RESULTAT=U1,
                   NOM_CHAM='DEPL',
                   NOEUD='N006',
                   NOM_CMP='DY',
                   VALE_CALC=0.150846761,
                   VALE_REFE=0.15084700000000001,
                   CRITERE='RELATIF',
                   PRECISION=1.0000000000000001E-05,
                   ),
                _F(PARA='ITER_GLOB',
                   VALE_CALC_I=1,
                   INST=1.1000000000000001,
                   RESULTAT=U1,
                   CRITERE='ABSOLU',
                   ),
                ),
          )


TEST_RESU(RESU=(_F(INST=1.0,
                   RESULTAT=U1,
                   NOM_CHAM='SIEF_ELNO',
                   MAILLE='SEG2001',
                   NOEUD='N002',
                   SOUS_POINT = 200,
                   NOM_CMP='SIXX',
                   VALE_CALC=-7.6209543436533E+06,
                   CRITERE='RELATIF',
                   ),
                ),
          )
TEST_RESU(RESU=(_F(INST=1.0,
                   RESULTAT=U1,
                   NOM_CHAM='SIEF_ELNO',
                   MAILLE='SEG2001',
                   NOEUD='N002',
                   SOUS_POINT = 1,
                   NOM_CMP='SIXX',
                   VALE_CALC=1.1454966160064E+06,
                   CRITERE='RELATIF',
                   ),
                ),
          )


TEST_RESU(RESU=(_F(INST=1.0,
                   REFERENCE='AUTRE_ASTER',
                   RESULTAT=U1,
                   NOM_CHAM='SIPM_ELNO',
                   MAILLE='SEG2001',
                   NOEUD='N002',
                   NOM_CMP='SIXXMIN',
                   VALE_CALC=-7.6209543436533E+06,
                   VALE_REFE=-7.6209543436533E+06,
                   CRITERE='RELATIF',
                   PRECISION=1.0000000000000001E-06,
                   ),
                ),
          )
TEST_RESU(RESU=(_F(INST=1.0,
                   REFERENCE='AUTRE_ASTER',
                   RESULTAT=U1,
                   NOM_CHAM='SIPM_ELNO',
                   MAILLE='SEG2001',
                   NOEUD='N002',
                   NOM_CMP='SIXXMAX',
                   VALE_CALC=1.1454966160064E+06,
                   VALE_REFE=1.1454966160064E+06,
                   CRITERE='RELATIF',
                   PRECISION=1.0000000000000001E-06,
                   ),
                ),
          )


FIN()
