
# TITRE PLAQUE EN TRACTION - TEST CORR_ACIER EN COQUE_3D
# ======================================================================
# COPYRIGHT (C) 1991 - 2013  EDF R&D                  WWW.CODE-ASTER.ORG
# THIS PROGRAM IS FREE SOFTWARE; YOU CAN REDISTRIBUTE IT AND/OR MODIFY
# IT UNDER THE TERMS OF THE GNU GENERAL PUBLIC LICENSE AS PUBLISHED BY
# THE FREE SOFTWARE FOUNDATION; EITHER VERSION 2 OF THE LICENSE, OR
# (AT YOUR OPTION) ANY LATER VERSION.
#
# THIS PROGRAM IS DISTRIBUTED IN THE HOPE THAT IT WILL BE USEFUL, BUT
# WITHOUT ANY WARRANTY; WITHOUT EVEN THE IMPLIED WARRANTY OF
# MERCHANTABILITY OR FITNESS FOR A PARTICULAR PURPOSE. SEE THE GNU
# GENERAL PUBLIC LICENSE FOR MORE DETAILS.
#
# YOU SHOULD HAVE RECEIVED A COPY OF THE GNU GENERAL PUBLIC LICENSE
# ALONG WITH THIS PROGRAM; IF NOT, WRITE TO EDF R&D CODE_ASTER,
#    1 AVENUE DU GENERAL DE GAULLE, 92141 CLAMART CEDEX, FRANCE.
# ======================================================================

DEBUT(CODE=_F(
NIV_PUB_WEB='INTERNET',),DEBUG=_F(SDVERI='OUI'))

MAIL=LIRE_MAILLAGE();

MA=CREA_MAILLAGE(MAILLAGE=MAIL,
                 MODI_MAILLE=_F(GROUP_MA='ELT',
                                OPTION='QUAD8_9',
                                PREF_NOEUD='NC',),);

MA=DEFI_GROUP(reuse =MA,
              MAILLAGE=MA,
              CREA_GROUP_NO=_F(GROUP_MA=('LI1','LI2','LI3','LI4',),),);
S = 2.82743338823e-05;


MO=AFFE_MODELE(MAILLAGE=MA,
               AFFE=_F(TOUT='OUI',
                       PHENOMENE='MECANIQUE',
                       MODELISATION='COQUE_3D',),);

MATC2=DEFI_MATERIAU(ELAS=_F(E=200000000000.0,
                            NU=0.3,),
                    CORR_ACIER=_F(D_CORR=0.2,
                                  ECRO_K=500000000.0,
                                  ECRO_M=2.781,
                                  SY=500000000.0,),);


CAREL=AFFE_CARA_ELEM(MODELE=MO,
                     COQUE=_F(GROUP_MA=('ELT','LI1','LI2','LI3','LI4',),
                              EPAIS=S,
                              COQUE_NCOU=1,
                              MODI_METRIQUE='NON',),);

CHART=AFFE_CHAR_MECA(MODELE=MO,
                     DDL_IMPO=(_F(TOUT='OUI',
                                  DRY=0.0,),
                               _F(GROUP_NO='LI4',
                                  DX=0.0,
                                  DZ=0.0,
                                  DRY=0.0,),
                               _F(GROUP_NO='LI1',
                                  DY=0.0,
                                  DRX=0.0,
                                  DRY=0.0,),
                               _F(GROUP_NO='LI2',
                                  DX=1.0,
                                  DRY=0.0,),),);

FONCT=DEFI_FONCTION(NOM_PARA='INST',
                    VALE=(0.0,0.0,1.0,1.0,),);
#

CHCOR=CREA_CHAMP(TYPE_CHAM='CART_CORR_R',
                 OPERATION='AFFE',
                 MAILLAGE=MA,
                 AFFE=_F(
                 TOUT='OUI',
                 NOM_CMP='CORR',
                 VALE=0.0,),);

LINST=DEFI_LIST_REEL(DEBUT=0.0,
                     INTERVALLE=(_F(JUSQU_A=0.002,
                                    NOMBRE=10,),
                                 _F(JUSQU_A=0.018,
                                    NOMBRE=20,),
                                 _F(JUSQU_A=0.02,
                                    NOMBRE=10,),),);

CHMAT1=AFFE_MATERIAU(   MAILLAGE=MA,
      AFFE=_F(TOUT='OUI', MATER = MATC2,),
      AFFE_VARC=_F(NOM_VARC='CORR', CHAM_GD=CHCOR,), )

DEFLIST =DEFI_LIST_INST(DEFI_LIST=_F(LIST_INST = LINST),
                        ECHEC=_F(ACTION='DECOUPE',
                                 SUBD_METHODE='MANUEL',
                                 SUBD_PAS=4,
                                 SUBD_PAS_MINI = 1e-06),)

REST=STAT_NON_LINE(MODELE=MO,
                   CHAM_MATER=CHMAT1,
                   CARA_ELEM=CAREL,
                   EXCIT=_F(CHARGE=CHART,
                            FONC_MULT=FONCT,),
                   COMPORTEMENT=_F(RELATION='CORR_ACIER',
                                RESI_INTE_RELA=1e-06,
                                ITER_CPLAN_MAXI=10,
                                ITER_INTE_MAXI=150,),
                   INCREMENT=_F(LIST_INST=DEFLIST),
                   NEWTON=_F(REAC_INCR=1,
                             PREDICTION='ELASTIQUE',
                             MATRICE='TANGENTE',
                             REAC_ITER=3,),
                   RECH_LINEAIRE=_F(ITER_LINE_MAXI=3,
                                    RHO_MIN=1e-06,
                                    RHO_MAX=10.0,),
                   CONVERGENCE=_F(RESI_GLOB_RELA=1e-05,
                                  ITER_GLOB_MAXI=10),);

REST=CALC_CHAMP(reuse =REST,
               RESULTAT=REST,
                CONTRAINTE=('EFGE_ELNO'),);

NdeU=RECU_FONCTION(RESULTAT=REST,
                   NOM_CHAM='EFGE_ELNO',
                   NOM_CMP='NXX',
                   MAILLE='M1',
                   POINT=1,);

DdeU=RECU_FONCTION(RESULTAT=REST,
                   NOM_CHAM='VARI_ELGA',
                   NOM_CMP='V2',
                   MAILLE='M1',
                   POINT=1,
                   SOUS_POINT=1,);

PdeU=RECU_FONCTION(RESULTAT=REST,
                   NOM_CHAM='VARI_ELGA',
                   NOM_CMP='V1',
                   MAILLE='M1',
                   POINT=1,
                   SOUS_POINT=1,);

IMPR_FONCTION(FORMAT='TABLEAU',
              COURBE=_F(FONCTION=NdeU,),
              UNITE=8,);

IMPR_FONCTION(FORMAT='TABLEAU',
              COURBE=_F(FONCTION=PdeU,),
              UNITE=8,);

IMPR_FONCTION(FORMAT='TABLEAU',
              COURBE=_F(FONCTION=DdeU,),
              UNITE=8,);

CHCOR2=CREA_CHAMP(TYPE_CHAM='CART_CORR_R',
                  OPERATION='AFFE',
                  MAILLAGE=MA,
                  AFFE=_F(
                  TOUT='OUI',
                  NOM_CMP='CORR',
                  VALE=2.5,),);

LINST2=DEFI_LIST_REEL(DEBUT=0.0,
                      INTERVALLE=(_F(JUSQU_A=0.002,
                                     NOMBRE=10,),
                                  _F(JUSQU_A=0.018,
                                     NOMBRE=20,),),);
CHMAT2=AFFE_MATERIAU(   MAILLAGE=MA,
      AFFE=_F(TOUT='OUI', MATER = MATC2,),
      AFFE_VARC=_F(NOM_VARC='CORR', CHAM_GD=CHCOR2,), )

DEFLIST2 =DEFI_LIST_INST(DEFI_LIST=_F(LIST_INST = LINST2),
                        ECHEC=_F(ACTION='DECOUPE',
                                 SUBD_METHODE='MANUEL',
                                 SUBD_PAS=4,
                                 SUBD_PAS_MINI = 1e-06),)

REST2=STAT_NON_LINE(MODELE=MO,
                    CHAM_MATER=CHMAT2,
                    CARA_ELEM=CAREL,
                    EXCIT=_F(CHARGE=CHART,
                             FONC_MULT=FONCT,),
                    COMPORTEMENT=_F(RELATION='CORR_ACIER',
                                 RESI_INTE_RELA=1e-06,
                                 ITER_CPLAN_MAXI=10,
                                 ITER_INTE_MAXI=15,),
                    INCREMENT=_F(LIST_INST=DEFLIST2),
                    NEWTON=_F(REAC_INCR=1,
                              PREDICTION='ELASTIQUE',
                              MATRICE='TANGENTE',
                              PAS_MINI_ELAS=0.0001,
                              REAC_ITER=3,),
                    RECH_LINEAIRE=_F(ITER_LINE_MAXI=3,
                                     RHO_MIN=1e-06,
                                     RHO_MAX=10.0,),
                    CONVERGENCE=_F(RESI_GLOB_RELA=1e-06,
                                   ITER_GLOB_MAXI=10,
                                   ITER_GLOB_ELAS=10),);

REST2=CALC_CHAMP(reuse =REST2,
                RESULTAT=REST2,
                 CONTRAINTE=('EFGE_ELNO'),);

NdeU2=RECU_FONCTION(RESULTAT=REST2,
                    NOM_CHAM='EFGE_ELNO',
                    NOM_CMP='NXX',
                    MAILLE='M1',
                    POINT=1,);

DdeU2=RECU_FONCTION(RESULTAT=REST2,
                    NOM_CHAM='VARI_ELGA',
                    NOM_CMP='V2',
                    MAILLE='M1',
                    POINT=1,
                    SOUS_POINT=1,);

PdeU2=RECU_FONCTION(RESULTAT=REST2,
                    NOM_CHAM='VARI_ELGA',
                    NOM_CMP='V1',
                    MAILLE='M1',
                    POINT=1,
                    SOUS_POINT=1,);

IMPR_FONCTION(FORMAT='TABLEAU',
              COURBE=_F(FONCTION=NdeU2,),
              UNITE=8,);

IMPR_FONCTION(FORMAT='TABLEAU',
              COURBE=_F(FONCTION=PdeU2,),
              UNITE=8,);

IMPR_FONCTION(FORMAT='TABLEAU',
              COURBE=_F(FONCTION=DdeU2,),
              UNITE=8,);

CHCOR3=CREA_CHAMP(TYPE_CHAM='CART_CORR_R',
                  OPERATION='AFFE',
                  MAILLAGE=MA,
                  AFFE=_F(
                  TOUT='OUI',
                  NOM_CMP='CORR',
                  VALE=13.0,),);

LINST3=DEFI_LIST_REEL(DEBUT=0.0,
                      INTERVALLE=(_F(JUSQU_A=0.003,
                                     NOMBRE=10,),
                                  _F(JUSQU_A=0.008,
                                     NOMBRE=30,),),);
CHMAT3=AFFE_MATERIAU(   MAILLAGE=MA,
      AFFE=_F(TOUT='OUI', MATER = MATC2,),
      AFFE_VARC=_F(NOM_VARC='CORR', CHAM_GD=CHCOR3,), )

DEFLIST3 =DEFI_LIST_INST(DEFI_LIST=_F(LIST_INST = LINST3),
                        ECHEC=_F(ACTION='DECOUPE',
                                 SUBD_METHODE='MANUEL',
                                 SUBD_PAS=4,
                                 SUBD_PAS_MINI = 1e-06),)

REST3=STAT_NON_LINE(MODELE=MO,
                    CHAM_MATER=CHMAT3,
                    CARA_ELEM=CAREL,
                    EXCIT=_F(CHARGE=CHART,
                             FONC_MULT=FONCT,),
                    COMPORTEMENT=_F(RELATION='CORR_ACIER',
                                 RESI_INTE_RELA=1e-06,
                                 ITER_CPLAN_MAXI=10,
                                 ITER_INTE_MAXI=15,),
                    INCREMENT=_F(LIST_INST=DEFLIST3),
                    NEWTON=_F(REAC_INCR=1,
                              PREDICTION='ELASTIQUE',
                              MATRICE='TANGENTE',
                              PAS_MINI_ELAS=0.0001,
                              REAC_ITER=3,),
                    RECH_LINEAIRE=_F(ITER_LINE_MAXI=3,
                                     RHO_MIN=1e-06,
                                     RHO_MAX=10.0,),
                    CONVERGENCE=_F(RESI_GLOB_RELA=1e-06,
                                   ITER_GLOB_MAXI=10,
                                   ITER_GLOB_ELAS=10),);

REST3=CALC_CHAMP(reuse =REST3,
                RESULTAT=REST3,
                 CONTRAINTE=('EFGE_ELNO'),);

NdeU3=RECU_FONCTION(RESULTAT=REST3,
                    NOM_CHAM='EFGE_ELNO',
                    NOM_CMP='NXX',
                    MAILLE='M1',
                    POINT=1,);

DdeU3=RECU_FONCTION(RESULTAT=REST3,
                    NOM_CHAM='VARI_ELGA',
                    NOM_CMP='V2',
                    MAILLE='M1',
                    POINT=1,
                    SOUS_POINT=1,);

PdeU3=RECU_FONCTION(RESULTAT=REST3,
                    NOM_CHAM='VARI_ELGA',
                    NOM_CMP='V1',
                    MAILLE='M1',
                    POINT=1,
                    SOUS_POINT=1,);

IMPR_FONCTION(FORMAT='TABLEAU',
              COURBE=_F(FONCTION=NdeU3,),
              UNITE=8,);

IMPR_FONCTION(FORMAT='TABLEAU',
              COURBE=_F(FONCTION=PdeU3,),
              UNITE=8,);

IMPR_FONCTION(FORMAT='TABLEAU',
              COURBE=_F(FONCTION=DdeU3,),
              UNITE=8,);

TEST_RESU(RESU=(_F(INST=0.019,
                   POINT=1,
                   RESULTAT=REST,
                   NOM_CHAM='EFGE_ELNO',
                   NOM_CMP='NXX',
                   VALE_CALC=21860.493077636,
                   MAILLE='M1',),
                _F(INST=0.02,
                   POINT=1,
                   RESULTAT=REST,
                   NOM_CHAM='EFGE_ELNO',
                   NOM_CMP='NXX',
                   VALE_CALC=21170.348238952,
                   MAILLE='M1',
                   ),
                ),
          )

TEST_RESU(RESU=(_F(INST=0.016400000000000001,
                   POINT=1,
                   RESULTAT=REST2,
                   NOM_CHAM='EFGE_ELNO',
                   NOM_CMP='NXX',
                   VALE_CALC=21454.920527774,
                   MAILLE='M1',),
                _F(INST=0.017999999999999999,
                   POINT=1,
                   RESULTAT=REST2,
                   NOM_CHAM='EFGE_ELNO',
                   NOM_CMP='NXX',
                   VALE_CALC=20530.441979292,
                   MAILLE='M1',
                   ),
                ),
          )

TEST_RESU(RESU=(_F(INST=7.4999999999999997E-3,
                   POINT=1,
                   RESULTAT=REST3,
                   NOM_CHAM='EFGE_ELNO',
                   NOM_CMP='NXX',
                   VALE_CALC=19613.11560104,
                   MAILLE='M1',),
                _F(INST=8.0000000000000002E-3,
                   POINT=1,
                   RESULTAT=REST3,
                   NOM_CHAM='EFGE_ELNO',
                   NOM_CMP='NXX',
                   VALE_CALC=18697.21825762,
                   MAILLE='M1',
                   ),
                ),
          )

IMPR_FONCTION(FORMAT='XMGRACE',
              PILOTE='POSTSCRIPT',
              UNITE=24,
              COURBE=(_F(FONCTION=NdeU,
                         LEGENDE='O% CORROSION',),
                      _F(FONCTION=NdeU2,
                         LEGENDE='2.5% CORROSION',),
                      _F(FONCTION=NdeU3,
                         LEGENDE='13% CORROSION',),),);


#IMPR_RESU(RESU=_F(RESULTAT=REST))

FIN();
