
# ======================================================================
# COPYRIGHT (C) 1991 - 2016  EDF R&D                  WWW.CODE-ASTER.ORG
# THIS PROGRAM IS FREE SOFTWARE; YOU CAN REDISTRIBUTE IT AND/OR MODIFY
# IT UNDER THE TERMS OF THE GNU GENERAL PUBLIC LICENSE AS PUBLISHED BY
# THE FREE SOFTWARE FOUNDATION; EITHER VERSION 2 OF THE LICENSE, OR
# (AT YOUR OPTION) ANY LATER VERSION.
#
# THIS PROGRAM IS DISTRIBUTED IN THE HOPE THAT IT WILL BE USEFUL, BUT
# WITHOUT ANY WARRANTY; WITHOUT EVEN THE IMPLIED WARRANTY OF
# MERCHANTABILITY OR FITNESS FOR A PARTICULAR PURPOSE. SEE THE GNU
# GENERAL PUBLIC LICENSE FOR MORE DETAILS.
#
# YOU SHOULD HAVE RECEIVED A COPY OF THE GNU GENERAL PUBLIC LICENSE
# ALONG WITH THIS PROGRAM; IF NOT, WRITE TO EDF R&D CODE_ASTER,
#    1 AVENUE DU GENERAL DE GAULLE, 92141 CLAMART CEDEX, FRANCE.
# ======================================================================
# ======================================================================

DEBUT(CODE=_F(NIV_PUB_WEB='INTERNET'), DEBUG=_F(SDVERI='OUI'))

MA=LIRE_MAILLAGE();

MO=AFFE_MODELE(MAILLAGE=MA,
               AFFE=_F(TOUT='OUI',
                       PHENOMENE='MECANIQUE',
                       MODELISATION='BARRE',),);

CAREL=AFFE_CARA_ELEM(MODELE=MO,
                     
                     BARRE=_F(GROUP_MA='TOUT',
                              SECTION='GENERALE',
                              CARA='A',
                              VALE=2.827e-05,),);
# ------ TRACTION SIMPLE AVEC ECROUISSAGE ------------------------------
# AFFECTE SUR LA SECTION CERCLE

MATC2=DEFI_MATERIAU(ELAS=_F(E=200000000000.0,
                            NU=0.3,),
                    CORR_ACIER=_F(D_CORR=0.2,
                                  ECRO_K=500000000.0,
                                  ECRO_M=2.781,
                                  SY=500000000.0,),);

CHART=AFFE_CHAR_MECA(MODELE=MO,
                     DDL_IMPO=(_F(GROUP_NO='A',
                                  DX=0.0,
                                  DY=0.0,
                                  DZ=0.0,),
                               _F(GROUP_NO='A1',
                                  DY=0.0,
                                  DZ=0.0,),
                               _F(GROUP_NO='A2',
                                  DY=0.0,
                                  DZ=0.0,),
                               _F(GROUP_NO='A3',
                                  DY=0.0,
                                  DZ=0.0,),
                               _F(GROUP_NO='A4',
                                  DY=0.0,
                                  DZ=0.0,),
                               _F(GROUP_NO='A5',
                                  DY=0.0,
                                  DZ=0.0,),
                               _F(GROUP_NO='A6',
                                  DY=0.0,
                                  DZ=0.0,),
                               _F(GROUP_NO='A7',
                                  DY=0.0,
                                  DZ=0.0,),
                               _F(GROUP_NO='A8',
                                  DY=0.0,
                                  DZ=0.0,),
                               _F(GROUP_NO='A9',
                                  DY=0.0,
                                  DZ=0.0,),
                               _F(GROUP_NO='A9',
                                  DY=0.0,
                                  DZ=0.0,),
                               _F(GROUP_NO='B',
                                  DX=1.0,
                                  DY=0.0,
                                  DZ=0.0,),),);

FONCT=DEFI_FONCTION(NOM_PARA='INST',
                    VALE=(0.0,0.0,1.0,1.0,),);
#

CHCOR=CREA_CHAMP(TYPE_CHAM='CART_CORR_R',
                 OPERATION='AFFE',
                 MAILLAGE=MA,
                 AFFE=_F(
                 TOUT='OUI',
                 NOM_CMP='CORR',
                 VALE=0.0,),);

LINST=DEFI_LIST_REEL(DEBUT=0.0,
                     INTERVALLE=(_F(JUSQU_A=0.002,
                                    NOMBRE=10,),
                                 _F(JUSQU_A=0.018,
                                    NOMBRE=20,),
                                 _F(JUSQU_A=0.02,
                                    NOMBRE=50,),),);


DEFLIST2 =DEFI_LIST_INST(DEFI_LIST=_F(LIST_INST = LINST,),
                        ECHEC=_F(ACTION='DECOUPE',
                                 SUBD_METHODE='MANUEL',
                        SUBD_PAS=4,
                        SUBD_PAS_MINI=1E-6,
                                 ),)


CHMAT1=AFFE_MATERIAU(   MAILLAGE=MA,
      AFFE=       _F( GROUP_MA = 'TOUT', MATER = MATC2),
      AFFE_VARC=_F(NOM_VARC='CORR', CHAM_GD=CHCOR,), )

REST=STAT_NON_LINE(MODELE=MO,INFO=1,
                   CHAM_MATER=CHMAT1,
                   CARA_ELEM=CAREL,
                   EXCIT=_F(CHARGE=CHART,
                            FONC_MULT=FONCT,),
                   COMPORTEMENT=_F(RELATION='CORR_ACIER',
                                GROUP_MA='TOUT',
                                RESI_INTE_RELA=1e-06,
                                ITER_INTE_MAXI=150),
                   INCREMENT=_F(LIST_INST=DEFLIST2,
                   ),
                   NEWTON=_F(REAC_INCR=1,
                             #PREDICTION='ELASTIQUE',
                             MATRICE='TANGENTE',
                             REAC_ITER=1,),
                   #RECH_LINEAIRE=_F(METHODE='CORDE',
                                    #ITER_LINE_MAXI=3,
                                  #  RHO_MIN=1e-06,
                                  #  RHO_MAX=10.0,
                                    #),
                   CONVERGENCE=_F(RESI_GLOB_RELA=1e-05,
                                  ITER_GLOB_MAXI=10),);

# CE CALCUL A POUR BUT DE MONTRER QUE L'ON CONVERGE MOINS BIEN AVEC
# LA MATRICE ELASTIQUE

REST1E=STAT_NON_LINE(MODELE=MO,INFO=1,
                   CHAM_MATER=CHMAT1,
                   CARA_ELEM=CAREL,
                   EXCIT=_F(CHARGE=CHART,
                            FONC_MULT=FONCT,),
                   COMPORTEMENT=_F(RELATION='CORR_ACIER',
                                GROUP_MA='TOUT',
                                RESI_INTE_RELA=1e-6,
                                ITER_INTE_MAXI=150),
                   INCREMENT=_F(LIST_INST=DEFLIST2,
                   ),
                   NEWTON=_F(REAC_INCR=1,
                             PREDICTION='ELASTIQUE',
                             MATRICE='ELASTIQUE',
                             REAC_ITER=1,),
                   CONVERGENCE=_F(RESI_GLOB_RELA=1e-05,
                                  ITER_GLOB_MAXI=10),);

NdeU=RECU_FONCTION(RESULTAT=REST,
                   NOM_CHAM='SIEF_ELGA',
                   NOM_CMP='N',
                   MAILLE='SR1',
                   POINT=1,);

DdeU=RECU_FONCTION(RESULTAT=REST,
                   NOM_CHAM='VARI_ELGA',
                   NOM_CMP='V2',
                   MAILLE='SR1',
                   POINT=1,);

PdeU=RECU_FONCTION(RESULTAT=REST,
                   NOM_CHAM='VARI_ELGA',
                   NOM_CMP='V1',
                   MAILLE='SR1',
                   POINT=1,);

CHCOR2=CREA_CHAMP(TYPE_CHAM='CART_CORR_R',
                  OPERATION='AFFE',
                  MAILLAGE=MA,
                  AFFE=_F(
                  TOUT='OUI',
                  NOM_CMP='CORR',
                  VALE=2.5,),);

LINST2=DEFI_LIST_REEL(DEBUT=0.0,
                      INTERVALLE=(_F(JUSQU_A=0.002,
                                     NOMBRE=10,),
                                  _F(JUSQU_A=0.018,
                                     NOMBRE=20,),),);

CHMAT2=AFFE_MATERIAU(   MAILLAGE=MA,
      AFFE=       _F( GROUP_MA = 'TOUT', MATER = MATC2),
      AFFE_VARC=_F(NOM_VARC='CORR', CHAM_GD=CHCOR2,), )

REST2=STAT_NON_LINE(MODELE=MO,INFO=1,
                    CHAM_MATER=CHMAT2,
                    CARA_ELEM=CAREL,
                    EXCIT=_F(CHARGE=CHART,
                             FONC_MULT=FONCT,),
                    COMPORTEMENT=_F(RELATION='CORR_ACIER',
                                 GROUP_MA='TOUT',
                                 RESI_INTE_RELA=1e-06,
                                 ITER_INTE_MAXI=15,),
                    INCREMENT=_F(LIST_INST=LINST2,),
                    NEWTON=_F(REAC_INCR=1,
                              #PREDICTION='ELASTIQUE',
                              MATRICE='TANGENTE',
                              PAS_MINI_ELAS=0.0001,
                              REAC_ITER=1,),
                    #RECH_LINEAIRE=_F(ITER_LINE_MAXI=3,
                                     ##RHO_MIN=1e-06,
                                     ##RHO_MAX=10.0,
                                     #),
                    CONVERGENCE=_F(RESI_GLOB_RELA=1e-06,
                                   ITER_GLOB_MAXI=10,
                                   ITER_GLOB_ELAS=10,),);

NdeU2=RECU_FONCTION(RESULTAT=REST2,
                    NOM_CHAM='SIEF_ELGA',
                    NOM_CMP='N',
                    MAILLE='SR1',
                    POINT=1,);

DdeU2=RECU_FONCTION(RESULTAT=REST2,
                    NOM_CHAM='VARI_ELGA',
                    NOM_CMP='V2',
                    MAILLE='SR1',
                    POINT=1,);

PdeU2=RECU_FONCTION(RESULTAT=REST2,
                    NOM_CHAM='VARI_ELGA',
                    NOM_CMP='V1',
                    MAILLE='SR1',
                    POINT=1,);

IMPR_FONCTION(FORMAT='TABLEAU',
              COURBE=_F(FONCTION=NdeU2,),
              UNITE=8,);

IMPR_FONCTION(FORMAT='TABLEAU',
              COURBE=_F(FONCTION=PdeU2,),
              UNITE=8,);

IMPR_FONCTION(FORMAT='TABLEAU',
              COURBE=_F(FONCTION=DdeU2,),
              UNITE=8,);

CHCOR3=CREA_CHAMP(TYPE_CHAM='CART_CORR_R',
                  OPERATION='AFFE',
                  MAILLAGE=MA,
                  AFFE=_F(
                  TOUT='OUI',
                  NOM_CMP='CORR',
                  VALE=13.0,),);

LINST3=DEFI_LIST_REEL(DEBUT=0.0,
                      INTERVALLE=(_F(JUSQU_A=0.003,
                                     NOMBRE=10,),
                                  _F(JUSQU_A=0.008,
                                     NOMBRE=30,),),);

CHMAT3=AFFE_MATERIAU(   MAILLAGE=MA,
      AFFE=       _F( GROUP_MA = 'TOUT', MATER = MATC2),
      AFFE_VARC=_F(NOM_VARC='CORR', CHAM_GD=CHCOR3,), )

REST3=STAT_NON_LINE(MODELE=MO,INFO=1,
                    CHAM_MATER=CHMAT3,
                    CARA_ELEM=CAREL,
                    EXCIT=_F(CHARGE=CHART,
                             FONC_MULT=FONCT,),
                    COMPORTEMENT=_F(RELATION='CORR_ACIER',
                                 GROUP_MA='TOUT',
                                 RESI_INTE_RELA=1e-06,
                                 ITER_INTE_MAXI=15,),
                    INCREMENT=_F(LIST_INST=LINST3,),
                    NEWTON=_F(REAC_INCR=1,
                              #PREDICTION='ELASTIQUE',
                              MATRICE='TANGENTE',
                              PAS_MINI_ELAS=0.0001,
                              REAC_ITER=3,),
                    #RECH_LINEAIRE=_F(ITER_LINE_MAXI=3,
                                     ##RHO_MIN=1e-06,
                                     ##RHO_MAX=10.0,
                                     #),
                    CONVERGENCE=_F(RESI_GLOB_RELA=1e-06,
                                   ITER_GLOB_MAXI=10,
                                   ITER_GLOB_ELAS=10,),);

NdeU3=RECU_FONCTION(RESULTAT=REST3,
                    NOM_CHAM='SIEF_ELGA',
                    NOM_CMP='N',
                    MAILLE='SR1',
                    POINT=1,);

DdeU3=RECU_FONCTION(RESULTAT=REST3,
                    NOM_CHAM='VARI_ELGA',
                    NOM_CMP='V2',
                    MAILLE='SR1',
                    POINT=1,);

PdeU3=RECU_FONCTION(RESULTAT=REST3,
                    NOM_CHAM='VARI_ELGA',
                    NOM_CMP='V1',
                    MAILLE='SR1',
                    POINT=1,);

IMPR_FONCTION(FORMAT='TABLEAU',
              COURBE=_F(FONCTION=NdeU3,),
              UNITE=8,);

IMPR_FONCTION(FORMAT='TABLEAU',
              COURBE=_F(FONCTION=PdeU3,),
              UNITE=8,);

IMPR_FONCTION(FORMAT='TABLEAU',
              COURBE=_F(FONCTION=DdeU3,),
              UNITE=8,);

TEST_RESU(RESU=(_F(INST=0.019,
                   POINT=1,
                   RESULTAT=REST,
                   NOM_CHAM='SIEF_ELGA',
                   NOM_CMP='N',
                   VALE_CALC=21857.142598612,
                   MAILLE='SR1',),
                _F(INST=0.02,
                   POINT=1,
                   RESULTAT=REST,
                   NOM_CHAM='SIEF_ELGA',
                   NOM_CMP='N',
                   VALE_CALC=21193.667628948,
                   MAILLE='SR1',
                   ),
                _F(INST=0.02,
                   POINT=1,
                   RESULTAT=REST,
                   NOM_CHAM='VARI_ELGA',
                   NOM_CMP='V1',
                   VALE_CALC=0.19625156214557,
                   MAILLE='SR1',
                   ),
                _F(INST=0.0192,
                   POINT=1,
                   RESULTAT=REST,
                   NOM_CHAM='VARI_ELGA',
                   NOM_CMP='V2',
                   VALE_CALC=2.2934929488738E-03,
                   MAILLE='SR1',
                   ),
                _F(PARA='ITER_GLOB',
                   VALE_CALC_I=1,
                   INST=0.02,
                   RESULTAT=REST,
                   ),
                _F(PARA='ITER_GLOB',
                   VALE_CALC_I=2,
                   INST=0.02,
                   RESULTAT=REST1E,
                   ),
                ),
          )

TEST_RESU(RESU=(_F(INST=0.0164,
                   POINT=1,
                   RESULTAT=REST2,
                   NOM_CHAM='SIEF_ELGA',
                   NOM_CMP='N',
                   VALE_CALC=21451.630678709,
                   MAILLE='SR1',),
                _F(INST=0.018,
                   POINT=1,
                   RESULTAT=REST2,
                   NOM_CHAM='SIEF_ELGA',
                   NOM_CMP='N',
                   VALE_CALC=20557.642061958,
                   MAILLE='SR1',
                   ),
                _F(INST=0.017999999999999999,
                   POINT=1,
                   RESULTAT=REST2,
                   NOM_CHAM='VARI_ELGA',
                   NOM_CMP='V1',
                   VALE_CALC=0.17636405340255,
                   MAILLE='SR1',
                   ),
                _F(INST=0.0172,
                   POINT=1,
                   RESULTAT=REST2,
                   NOM_CHAM='VARI_ELGA',
                   NOM_CMP='V2',
                   VALE_CALC=0.013713776647068,
                   MAILLE='SR1',
                   ),
                ),
          )

TEST_RESU(RESU=(_F(INST=7.5E-3,
                   POINT=1,
                   RESULTAT=REST3,
                   NOM_CHAM='SIEF_ELGA',
                   NOM_CMP='N',
                   VALE_CALC=19610.109119767,
                   MAILLE='SR1',),
                _F(INST=8.0E-3,
                   POINT=1,
                   RESULTAT=REST3,
                   NOM_CHAM='SIEF_ELGA',
                   NOM_CMP='N',
                   VALE_CALC=18758.609671366,
                   MAILLE='SR1',
                   ),
                _F(INST=8.0E-3,
                   POINT=1,
                   RESULTAT=REST3,
                   NOM_CHAM='VARI_ELGA',
                   NOM_CMP='V1',
                   VALE_CALC=0.076682240949529,
                   MAILLE='SR1',
                   ),
                _F(INST=7.6666700000000004E-3,
                   POINT=1,
                   RESULTAT=REST3,
                   NOM_CHAM='VARI_ELGA',
                   NOM_CMP='V2',
                   VALE_CALC=0.011877894794068,
                   MAILLE='SR1',
                   ),
                ),
          )

IMPR_FONCTION(FORMAT='XMGRACE',
              PILOTE='POSTSCRIPT',UNITE=24,
              COURBE=(_F(FONCTION=NdeU,
                         LEGENDE='O% CORROSION',),
                      _F(FONCTION=NdeU2,
                         LEGENDE='2.5% CORROSION',),
                      _F(FONCTION=NdeU3,
                         LEGENDE='13% CORROSION',),),);

FIN();
