# MODIF  DATE 10/10/2012   AUTEUR COURTOIS M.COURTOIS 
# TITRE ESSAI DE THERMO-PLASTICITE (MISES ECR. ISOT. C_PLAN)
# ssnl111a.para = tps_job 60 mem_job 512Mo ncpus 1 liste_test S
#            CONFIGURATION MANAGEMENT OF EDF VERSION
# ======================================================================
# COPYRIGHT (C) 1991 - 2012  EDF R&D                  WWW.CODE-ASTER.ORG
# THIS PROGRAM IS FREE SOFTWARE; YOU CAN REDISTRIBUTE IT AND/OR MODIFY
# IT UNDER THE TERMS OF THE GNU GENERAL PUBLIC LICENSE AS PUBLISHED BY
# THE FREE SOFTWARE FOUNDATION; EITHER VERSION 2 OF THE LICENSE, OR
# (AT YOUR OPTION) ANY LATER VERSION.
#
# THIS PROGRAM IS DISTRIBUTED IN THE HOPE THAT IT WILL BE USEFUL, BUT
# WITHOUT ANY WARRANTY; WITHOUT EVEN THE IMPLIED WARRANTY OF
# MERCHANTABILITY OR FITNESS FOR A PARTICULAR PURPOSE. SEE THE GNU
# GENERAL PUBLIC LICENSE FOR MORE DETAILS.
#
# YOU SHOULD HAVE RECEIVED A COPY OF THE GNU GENERAL PUBLIC LICENSE
# ALONG WITH THIS PROGRAM; IF NOT, WRITE TO EDF R&D CODE_ASTER,
#    1 AVENUE DU GENERAL DE GAULLE, 92141 CLAMART CEDEX, FRANCE.
# ======================================================================


DEBUT(CODE=_F(NOM='SSNL111A',NIV_PUB_WEB='INTERNET'),DEBUG=_F(SDVERI='OUI'))

#......................................................................
# TROIS BARRES EN THERMOPLASTICITE  CALCUL 2D CONTRAINTES PLANES
# ELASTOPLASTICITE PARFAITE ISOTROPE VON MISES   (3 QUAD4)
#
#  RI ---------  QI
#     !       !
#     !       !
#     !       !               Y
#     !       !             !
#     !       !             !
#     !       !             !
#     !       !             !
#     !       !             !
#     !       !             !
#  SI ---------  PI     ----!--------  X
#
#......................................................................


MA=LIRE_MAILLAGE( )

MO=AFFE_MODELE(

               MAILLAGE=MA,
                 VERIF='MAILLE',

                AFFE=_F(
                TOUT = 'OUI',
                PHENOMENE = 'MECANIQUE',
                MODELISATION = 'C_PLAN')
              )

ACIER=DEFI_MATERIAU(


                ELAS=_F(
                E = 200000.,
                NU = 0.30,
                ALPHA = 1.E-5),

                ECRO_LINE=_F(
                D_SIGM_EPSI = 0.0,
                SY = 200.)
              )


F1_T=DEFI_FONCTION(

                 NOM_PARA='INST',
               PROL_DROITE='EXCLU',
              PROL_GAUCHE='EXCLU',

                VALE=(
                0.0,    0.0,
                1.0,  150.0,
                2.0,  330.0,
                3.0,  330.0,
                3.81, 330.0,
                4.0,  330.0,
                5.0,    0.0,
                )
              )

F2_T=DEFI_FONCTION(

                 NOM_PARA='INST',
               PROL_DROITE='EXCLU',
              PROL_GAUCHE='EXCLU',

                VALE=(
                0.0,    0.0,
                1.0,    0.0,
                2.0,    0.0,
                3.0,  220.0,
                3.81, 310.0,
                4.0,  330.0,
                5.0,    0.0,
                )
              )

F3_T=DEFI_FONCTION(

                 NOM_PARA='INST',
               PROL_DROITE='EXCLU',
              PROL_GAUCHE='EXCLU',

                VALE=(
                0.0,    0.0,
                1.0,    0.0,
                2.0,    0.0,
                3.0,  110.0,
                3.81, 290.0,
                4.0,  330.0,
                5.0,    0.0,
                )
              )

L_INST=DEFI_LIST_REEL(

                     DEBUT=0.0,INTERVALLE=(
                _F( JUSQU_A = 3.0,     NOMBRE = 3),
                           _F( JUSQU_A = 3.81,    NOMBRE = 1),
                           _F( JUSQU_A = 4.0,     NOMBRE = 1),
                           _F( JUSQU_A = 5.0,     NOMBRE = 1))
              )

TEMPIMPO=CREA_CHAMP( OPERATION='AFFE', TYPE_CHAM='NOEU_TEMP_F',
                     MAILLAGE=MA,AFFE=(

                _F(
                NOM_CMP = 'TEMP',
                GROUP_NO = 'BAR1',
                VALE_F = F1_T),

                _F(
                NOM_CMP = 'TEMP',
                GROUP_NO = 'BAR2',
                VALE_F = F2_T),

                _F(
                NOM_CMP = 'TEMP',
                GROUP_NO = 'BAR3',
                VALE_F = F3_T))
              )

TEMPRESU=CREA_RESU(

                   OPERATION='AFFE', TYPE_RESU='EVOL_THER',
                    NOM_CHAM='TEMP',

                AFFE=_F(
                LIST_INST = L_INST,
                NUME_INIT = 1,
                NUME_FIN = 7,
                CHAM_GD = TEMPIMPO)
              )


LIAISON=AFFE_CHAR_MECA(

               MODELE=MO,DDL_IMPO=(

                _F( NOEUD = 'P1',      DX = 0.),
                _F( NOEUD = 'P2',      DX = 0.),
                _F( NOEUD = 'P3',      DX = 0.),

                _F( GROUP_NO = 'HAU1',  DY = 0.),
                _F( GROUP_NO = 'HAU2',  DY = 0.),
                _F( GROUP_NO = 'HAU3',  DY = 0.)),

                LIAISON_UNIF=_F( MAILLE = ('BAS1','BAS2','BAS3',), DDL = 'DY')
              )

CM=AFFE_MATERIAU(

               MAILLAGE=MA,

                AFFE=_F(
                   TOUT = 'OUI',
                   MATER = ACIER,
                   ),
                AFFE_VARC=_F(
                   NOM_VARC='TEMP',
                   TOUT='OUI',
                   EVOL=TEMPRESU,
                   NOM_CHAM='TEMP',
                   VALE_REF=0.),
              )


UELAS=MECA_STATIQUE(

                     MODELE=MO,
                 CHAM_MATER=CM,EXCIT=(

                 _F( CHARGE = LIAISON),),
                  LIST_INST=L_INST,

                 SOLVEUR=_F( METHODE = 'LDLT'),

               )

CALC_CHAMP(reuse=UELAS,RESULTAT=UELAS,LIST_INST=L_INST,CONTRAINTE=('SIGM_ELNO'))



TEST_RESU(RESU=(_F(INST=1.0,
                   RESULTAT=UELAS,
                   NOM_CHAM='SIGM_ELNO',
                   NOEUD='P1',
                   NOM_CMP='SIYY',
                   VALE_CALC=-200.0,
                   TOLE_MACHINE=1.E-3,
                   MAILLE='BARR1',),
                _F(INST=1.0,
                   RESULTAT=UELAS,
                   NOM_CHAM='SIGM_ELNO',
                   NOEUD='P2',
                   NOM_CMP='SIYY',
                   VALE_CALC=100.0,
                   TOLE_MACHINE=1.E-3,
                   MAILLE='BARR2',),
                _F(INST=1.0,
                   RESULTAT=UELAS,
                   NOM_CHAM='SIGM_ELNO',
                   NOEUD='P3',
                   NOM_CMP='SIYY',
                   VALE_CALC=100.0,
                   TOLE_MACHINE=1.E-3,
                   MAILLE='BARR3',),
                _F(INST=2.0,
                   RESULTAT=UELAS,
                   NOM_CHAM='SIGM_ELNO',
                   NOEUD='P1',
                   NOM_CMP='SIYY',
                   VALE_CALC=-440.0,
                   TOLE_MACHINE=1.E-3,
                   MAILLE='BARR1',),
                _F(INST=2.0,
                   RESULTAT=UELAS,
                   NOM_CHAM='SIGM_ELNO',
                   NOEUD='P2',
                   NOM_CMP='SIYY',
                   VALE_CALC=220.0,
                   TOLE_MACHINE=1.E-3,
                   MAILLE='BARR2',),
                _F(INST=2.0,
                   RESULTAT=UELAS,
                   NOM_CHAM='SIGM_ELNO',
                   NOEUD='P3',
                   NOM_CMP='SIYY',
                   VALE_CALC=220.0,
                   TOLE_MACHINE=1.E-3,
                   MAILLE='BARR3',),
                _F(INST=3.0,
                   RESULTAT=UELAS,
                   NOM_CHAM='SIGM_ELNO',
                   NOEUD='P1',
                   NOM_CMP='SIYY',
                   VALE_CALC=-220.0,
                   TOLE_MACHINE=1.E-3,
                   MAILLE='BARR1',),
                _F(INST=3.0,
                   RESULTAT=UELAS,
                   NOM_CHAM='SIGM_ELNO',
                   NOEUD='P2',
                   NOM_CMP='SIYY',
                   VALE_CALC=0.0,
                   TOLE_MACHINE=1.E-3,
                   CRITERE='ABSOLU',
                   MAILLE='BARR2',),
                _F(INST=3.0,
                   RESULTAT=UELAS,
                   NOM_CHAM='SIGM_ELNO',
                   NOEUD='P3',
                   NOM_CMP='SIYY',
                   VALE_CALC=220.0,
                   TOLE_MACHINE=1.E-3,
                   MAILLE='BARR3',),
                _F(INST=4.0,
                   RESULTAT=UELAS,
                   NOM_CHAM='SIGM_ELNO',
                   NOEUD='P1',
                   NOM_CMP='SIYY',
                   VALE_CALC=0.0,
                   TOLE_MACHINE=1.E-3,
                   CRITERE='ABSOLU',
                   MAILLE='BARR1',),
                _F(INST=4.0,
                   RESULTAT=UELAS,
                   NOM_CHAM='SIGM_ELNO',
                   NOEUD='P2',
                   NOM_CMP='SIYY',
                   VALE_CALC=0.0,
                   TOLE_MACHINE=1.E-3,
                   CRITERE='ABSOLU',
                   MAILLE='BARR2',),
                _F(INST=4.0,
                   RESULTAT=UELAS,
                   NOM_CHAM='SIGM_ELNO',
                   NOEUD='P3',
                   NOM_CMP='SIYY',
                   VALE_CALC=0.0,
                   TOLE_MACHINE=1.E-3,
                   CRITERE='ABSOLU',
                   MAILLE='BARR3',),
                _F(INST=5.0,
                   RESULTAT=UELAS,
                   NOM_CHAM='SIGM_ELNO',
                   NOEUD='P1',
                   NOM_CMP='SIYY',
                   VALE_CALC=0.0,
                   TOLE_MACHINE=1.E-3,
                   CRITERE='ABSOLU',
                   MAILLE='BARR1',),
                _F(INST=5.0,
                   RESULTAT=UELAS,
                   NOM_CHAM='SIGM_ELNO',
                   NOEUD='P2',
                   NOM_CMP='SIYY',
                   VALE_CALC=0.0,
                   TOLE_MACHINE=1.E-3,
                   CRITERE='ABSOLU',
                   MAILLE='BARR2',),
                _F(INST=5.0,
                   RESULTAT=UELAS,
                   NOM_CHAM='SIGM_ELNO',
                   NOEUD='P3',
                   NOM_CMP='SIYY',
                   VALE_CALC=0.0,
                   TOLE_MACHINE=1.E-3,
                   CRITERE='ABSOLU',
                   MAILLE='BARR3',),
                ),
          )

UY_T=RECU_FONCTION(
                 RESULTAT=UELAS,
                TOUT_INST='OUI',
                NOM_CHAM='DEPL',
                 NOM_CMP='DY',
                   MAILLE='BARR1',
                    NOEUD='P1',
                 NOM_PARA='INST',
                 NOM_RESU='UY_T',
                 INTERPOL='LIN'
                          )

SIGY1_T=RECU_FONCTION(
                 RESULTAT=UELAS,
                TOUT_INST='OUI',
                NOM_CHAM='SIGM_ELNO',
                 NOM_CMP='SIYY',
                   MAILLE='BARR1',
                    NOEUD='P1',
                 NOM_PARA='INST',
                 NOM_RESU='SIGY1_T',
                 INTERPOL='LIN'
                          )

SIGY2_T=RECU_FONCTION(
                 RESULTAT=UELAS,
                TOUT_INST='OUI',
                NOM_CHAM='SIGM_ELNO',
                 NOM_CMP='SIYY',
                   MAILLE='BARR2',
                    NOEUD='P2',
                 NOM_PARA='INST',
                 NOM_RESU='SIGY2_T',
                 INTERPOL='LIN'
                          )

SIGY3_T=RECU_FONCTION(
                 RESULTAT=UELAS,
                TOUT_INST='OUI',
                NOM_CHAM='SIGM_ELNO',
                 NOM_CMP='SIYY',
                   MAILLE='BARR3',
                    NOEUD='P3',
                 NOM_PARA='INST',
                 NOM_RESU='SIGY3_T',
                 INTERPOL='LIN'
                          )

DEFLIST =DEFI_LIST_INST(DEFI_LIST=_F(LIST_INST = L_INST),
                        ECHEC=_F(ACTION='DECOUPE',
                                 SUBD_METHODE='MANUEL',
                                 SUBD_PAS=5,
                                 SUBD_PAS_MINI = 0.001),)

################################################################
#

U=STAT_NON_LINE(
                            MODELE=MO,
                        CHAM_MATER=CM,EXCIT=(
                             _F(
                CHARGE = LIAISON),),
                         COMP_INCR=_F(
                RELATION = 'VMIS_ISOT_LINE',
                TOUT = 'OUI'),
                         INCREMENT=_F(
                LIST_INST = DEFLIST,
                NUME_INST_INIT = 0,
                NUME_INST_FIN = 6),
                            NEWTON=_F(
                MATRICE = 'ELASTIQUE',
                REAC_INCR = 1),
                       CONVERGENCE=_F(
                RESI_GLOB_MAXI = 1.E-3,
                ITER_GLOB_MAXI = 15),
                           SOLVEUR=_F(
                METHODE = 'LDLT')
              )

CALC_CHAMP(reuse=U,CONTRAINTE=('SIGM_ELNO'),VARI_INTERNE=('VARI_ELNO'),RESULTAT=U)


TEST_RESU(RESU=(_F(INST=1.0,
                   RESULTAT=U,
                   NOM_CHAM='SIGM_ELNO',
                   NOEUD='P1',
                   NOM_CMP='SIYY',
                   VALE_CALC=-200.0,
                   TOLE_MACHINE=1.E-3,
                   MAILLE='BARR1',),
                _F(INST=1.0,
                   RESULTAT=U,
                   NOM_CHAM='SIGM_ELNO',
                   NOEUD='P2',
                   NOM_CMP='SIYY',
                   VALE_CALC=100.0,
                   TOLE_MACHINE=1.E-3,
                   MAILLE='BARR2',),
                _F(INST=1.0,
                   RESULTAT=U,
                   NOM_CHAM='SIGM_ELNO',
                   NOEUD='P3',
                   NOM_CMP='SIYY',
                   VALE_CALC=100.0,
                   TOLE_MACHINE=1.E-3,
                   MAILLE='BARR3',),
                _F(INST=2.0,
                   RESULTAT=U,
                   NOM_CHAM='SIGM_ELNO',
                   NOEUD='P1',
                   NOM_CMP='SIYY',
                   VALE_CALC=-200.0,
                   TOLE_MACHINE=1.E-3,
                   MAILLE='BARR1',),
                _F(INST=2.0,
                   RESULTAT=U,
                   NOM_CHAM='SIGM_ELNO',
                   NOEUD='P2',
                   NOM_CMP='SIYY',
                   VALE_CALC=100.0,
                   TOLE_MACHINE=1.E-3,
                   MAILLE='BARR2',),
                _F(INST=2.0,
                   RESULTAT=U,
                   NOM_CHAM='SIGM_ELNO',
                   NOEUD='P3',
                   NOM_CMP='SIYY',
                   VALE_CALC=100.0,
                   TOLE_MACHINE=1.E-3,
                   MAILLE='BARR3',),
                _F(INST=3.0,
                   RESULTAT=U,
                   NOM_CHAM='SIGM_ELNO',
                   NOEUD='P1',
                   NOM_CMP='SIYY',
                   VALE_CALC=20.0,
                   TOLE_MACHINE=1.E-3,
                   MAILLE='BARR1',),
                _F(INST=3.0,
                   RESULTAT=U,
                   NOM_CHAM='SIGM_ELNO',
                   NOEUD='P2',
                   NOM_CMP='SIYY',
                   VALE_CALC=-120.0,
                   TOLE_MACHINE=1.E-3,
                   MAILLE='BARR2',),
                _F(INST=3.0,
                   RESULTAT=U,
                   NOM_CHAM='SIGM_ELNO',
                   NOEUD='P3',
                   NOM_CMP='SIYY',
                   VALE_CALC=100.0,
                   TOLE_MACHINE=1.E-3,
                   MAILLE='BARR3',),
                _F(INST=4.0,
                   RESULTAT=U,
                   NOM_CHAM='SIGM_ELNO',
                   NOEUD='P1',
                   NOM_CMP='SIYY',
                   VALE_CALC=200.0,
                   TOLE_MACHINE=1.E-3,
                   MAILLE='BARR1',),
                _F(INST=4.0,
                   RESULTAT=U,
                   NOM_CHAM='SIGM_ELNO',
                   NOEUD='P2',
                   NOM_CMP='SIYY',
                   VALE_CALC=-100.0,
                   TOLE_MACHINE=1.E-3,
                   MAILLE='BARR2',),
                _F(INST=4.0,
                   RESULTAT=U,
                   NOM_CHAM='SIGM_ELNO',
                   NOEUD='P3',
                   NOM_CMP='SIYY',
                   VALE_CALC=-100.0,
                   TOLE_MACHINE=1.E-3,
                   MAILLE='BARR3',),
                _F(INST=5.0,
                   RESULTAT=U,
                   NOM_CHAM='SIGM_ELNO',
                   NOEUD='P1',
                   NOM_CMP='SIYY',
                   VALE_CALC=200.0,
                   TOLE_MACHINE=1.E-3,
                   MAILLE='BARR1',),
                _F(INST=5.0,
                   RESULTAT=U,
                   NOM_CHAM='SIGM_ELNO',
                   NOEUD='P2',
                   NOM_CMP='SIYY',
                   VALE_CALC=-100.0,
                   TOLE_MACHINE=1.E-3,
                   MAILLE='BARR2',),
                _F(INST=5.0,
                   RESULTAT=U,
                   NOM_CHAM='SIGM_ELNO',
                   NOEUD='P3',
                   NOM_CMP='SIYY',
                   VALE_CALC=-100.0,
                   TOLE_MACHINE=1.E-3,
                   MAILLE='BARR3',),
                ),
          )

FIN()
#
