# MODIF  DATE 13/02/2007   AUTEUR PELLET J.PELLET 
# TITRE GRANDS DEPLACEMENTS DE L'ARC A ANGLE D'OUVERTURE 45 DEGRES
#            CONFIGURATION MANAGEMENT OF EDF VERSION
# ======================================================================
# COPYRIGHT (C) 1991 - 2006  EDF R&D                  WWW.CODE-ASTER.ORG
# THIS PROGRAM IS FREE SOFTWARE; YOU CAN REDISTRIBUTE IT AND/OR MODIFY  
# IT UNDER THE TERMS OF THE GNU GENERAL PUBLIC LICENSE AS PUBLISHED BY  
# THE FREE SOFTWARE FOUNDATION; EITHER VERSION 2 OF THE LICENSE, OR     
# (AT YOUR OPTION) ANY LATER VERSION.                                                    
#                                                                       
# THIS PROGRAM IS DISTRIBUTED IN THE HOPE THAT IT WILL BE USEFUL, BUT   
# WITHOUT ANY WARRANTY; WITHOUT EVEN THE IMPLIED WARRANTY OF            
# MERCHANTABILITY OR FITNESS FOR A PARTICULAR PURPOSE. SEE THE GNU      
# GENERAL PUBLIC LICENSE FOR MORE DETAILS.                              
#                                                                       
# YOU SHOULD HAVE RECEIVED A COPY OF THE GNU GENERAL PUBLIC LICENSE     
# ALONG WITH THIS PROGRAM; IF NOT, WRITE TO EDF R&D CODE_ASTER,         
#    1 AVENUE DU GENERAL DE GAULLE, 92141 CLAMART CEDEX, FRANCE.        
# ======================================================================

DEBUT(CODE=_F( NOM = 'SSNL136A',NIV_PUB_WEB='INTERNET',VISU_EFICAS='OUI'));

PRE_GIBI(UNITE_GIBI=17,
         UNITE_MAILLAGE=20,);

MA=LIRE_MAILLAGE(UNITE=20,);

MA=DEFI_GROUP(reuse =MA,
              MAILLAGE=MA,
              CREA_GROUP_NO=_F(TOUT_GROUP_MA='OUI',),);

PRE_GIBI(UNITE_GIBI=18,
         UNITE_MAILLAGE=21,);

MA_SECT=LIRE_MAILLAGE(UNITE=21,);

MO=AFFE_MODELE(MAILLAGE=MA,
               AFFE=_F(TOUT='OUI',
                       PHENOMENE='MECANIQUE',
                       MODELISATION='POU_D_TGM',),);

ACIER=DEFI_MATERIAU(ELAS=_F(E=1.0E+7,
                            NU=0.,),);

GF=DEFI_GEOM_FIBRE(
   SECTION =_F(GROUP_FIBRE='SECF',
             GROUP_MA_SECT='SECT',
             MAILLAGE_SECT=MA_SECT,
            COOR_AXE_POUTRE=(0.,0.,),),)

COMPF=DEFI_COMPOR(GEOM_FIBRE=GF,MATER_SECT=ACIER,
                  MULTIFIBRE=_F(GROUP_FIBRE='SECF',MATER=ACIER,
                                 RELATION='ELAS',DEFORMATION='REAC_GEOM',),
                     )


MAT=AFFE_MATERIAU(MAILLAGE=MA,
                  AFFE=_F(TOUT='OUI',MATER=ACIER,),
                  AFFE_COMPOR=_F(TOUT='OUI',COMPOR=COMPF),
                 );

CARA=AFFE_CARA_ELEM(MODELE=MO,
                    POUTRE=_F(GROUP_MA='AB',
                              SECTION='GENERALE',
                              CARA=('A','IY','IZ','AY','AZ','JX','JG',),
                              VALE=(1.0,0.0833333333333,0.0833333333333,1.2,1.2,0.3333333333333,0.,),),
                    ORIENTATION=_F(GROUP_MA='AB',
                                   CARA='ANGL_VRIL',
                                   VALE=0.,),
                    GEOM_FIBRE=GF,
                    MULTIFIBRE=_F(GROUP_MA='AB',
                                 GROUP_FIBRE='SECF',),);

#0.3333333333333,
#0.0069444444444,),),

CL=AFFE_CHAR_MECA(MODELE=MO,
                  DDL_IMPO=_F(GROUP_NO='PA',
                              DX=0.,
                              DY=0.,
                              DZ=0.,
                              DRX=0.,
                              DRY=0.,
                              DRZ=0.,),);

FORCE=AFFE_CHAR_MECA(MODELE=MO,
                     FORCE_NODALE=_F(GROUP_NO='PB',
                                     FZ=600.0,),);

F_FORCE=DEFI_FONCTION(NOM_PARA='INST',
                      VALE=(0.,0.,10.0,10.0,),);

TEMPS=DEFI_LIST_REEL(DEBUT=0.,
                     INTERVALLE=_F(JUSQU_A=1.0,
                                   NOMBRE=60,),);

RESO=STAT_NON_LINE(MODELE=MO,
                   CHAM_MATER=MAT,
                   CARA_ELEM=CARA,
                   EXCIT=(_F(CHARGE=CL,),
                          _F(CHARGE=FORCE,
                             FONC_MULT=F_FORCE,),),
                   COMP_INCR=_F(RELATION='MULTIFIBRE'),
                   INCREMENT=_F(LIST_INST=TEMPS,
                                SUBD_METHODE='UNIFORME', SUBD_PAS=4,
                                SUBD_PAS_MINI=1.0E-6,),
                   NEWTON=_F(MATRICE='TANGENTE',
                             REAC_ITER=1,),
                   CONVERGENCE=_F(RESI_GLOB_RELA=1.0E-6,
                                  ITER_GLOB_MAXI=50,),
                   SOLVEUR=_F(STOP_SINGULIER='DECOUPE',),);

DEPZ=RECU_FONCTION(RESULTAT=RESO,
                   TOUT_ORDRE='OUI',
                   NOM_CHAM='DEPL',
                   NOM_CMP='DZ',
                   GROUP_NO='PB',);

TAB_DEPL=POST_RELEVE_T(ACTION=_F(INTITULE='DEPLA',
                                 GROUP_NO='PB',
                                 RESULTAT=RESO,
                                 NOM_CHAM='DEPL',
                                 TOUT_ORDRE='OUI',
                                 NOM_CMP=('DX','DY','DZ',),
                                 OPERATION='EXTRACTION',),);

GEOM_DX = FORMULE(VALE='DX+29.3',
                  NOM_PARA='DX',);

GEOM_DY = FORMULE(VALE='DY+70.7',
                  NOM_PARA='DY',);

TAB_DEPL=CALC_TABLE(reuse=TAB_DEPL,
                    TABLE=TAB_DEPL,
                    ACTION=(_F(OPERATION='OPER', FORMULE=GEOM_DX, NOM_PARA='X_FINAL'),
                            _F(OPERATION='OPER', FORMULE=GEOM_DY, NOM_PARA='Y_FINAL'),),)

COOR_X=RECU_FONCTION(TABLE=TAB_DEPL,
                     PARA_X='INST',
                     PARA_Y='X_FINAL',);

COOR_Y=RECU_FONCTION(TABLE=TAB_DEPL,
                     PARA_X='INST',
                     PARA_Y='Y_FINAL',);

X_REF=DEFI_FONCTION(NOM_PARA='INST',
                      VALE=(0.,29.3,0.5,22.28,1.0,15.67,),);

Y_REF=DEFI_FONCTION(NOM_PARA='INST',
                      VALE=(0.,70.7,0.5,58.74,1.0,46.99,),);
      
Z_REF=DEFI_FONCTION(NOM_PARA='INST',
                      VALE=(0.,0.,0.5,40.12,1.0,53.62,),);

IMPR_FONCTION(FORMAT='XMGRACE',
              COURBE=(_F(FONCTION=COOR_X,),
                      _F(FONCTION=COOR_Y,),
                      _F(FONCTION=DEPZ,),
                      _F(FONCTION=X_REF,),
                      _F(FONCTION=Y_REF,),
                      _F(FONCTION=Z_REF,),),
              TITRE='Coordonnees du point B en fonction du pseudo-temps',);

IMPR_RESU(FORMAT='CASTEM',
          RESU=_F(MAILLAGE=MA,
                  RESULTAT=RESO,
                  NOM_CHAM='DEPL',),);

TEST_FONCTION(VALEUR=(_F(FONCTION=COOR_X,
                         VALE_PARA=0.5,
                         VALE_REFE=22.28,
                         CRITERE='RELATIF',
                         PRECISION=0.015,
                         REFERENCE='SOURCE_EXTERNE',),
                      _F(FONCTION=COOR_Y,
                         VALE_PARA=0.5,
                         VALE_REFE=58.74,
                         CRITERE='RELATIF',
                         PRECISION=0.01,
                         REFERENCE='SOURCE_EXTERNE',),
                      _F(FONCTION=DEPZ,
                         VALE_PARA=0.5,
                         VALE_REFE=40.12,
                         CRITERE='RELATIF',
                         PRECISION=0.02,
                         REFERENCE='SOURCE_EXTERNE',),),);

TEST_FONCTION(VALEUR=(_F(FONCTION=COOR_X,
                         VALE_PARA=1.0,
                         VALE_REFE=15.67,
                         CRITERE='RELATIF',
                         PRECISION=0.03,
                         REFERENCE='SOURCE_EXTERNE',),
                      _F(FONCTION=COOR_Y,
                         VALE_PARA=1.0,
                         VALE_REFE=46.99,
                         CRITERE='RELATIF',
                         PRECISION=0.015,
                         REFERENCE='SOURCE_EXTERNE',),
                      _F(FONCTION=DEPZ,
                         VALE_PARA=1.0,
                         VALE_REFE=53.52,
                         CRITERE='RELATIF',
                         PRECISION=0.015,
                         REFERENCE='SOURCE_EXTERNE',),),);

# -------------- TESTS DE NON REGRESSION ----------------------

TEST_FONCTION(VALEUR=(_F(FONCTION=COOR_X,
                         VALE_PARA=0.5,
                         VALE_REFE=2.2351509935639E+01,
                         CRITERE='RELATIF',
                         REFERENCE='NON_REGRESSION',
                         VERSION='8.3.2',),
                      _F(FONCTION=COOR_Y,
                         VALE_PARA=0.5,
                         VALE_REFE=5.8967983171959E+01,
                         CRITERE='RELATIF',
                         REFERENCE='NON_REGRESSION',
                         VERSION='8.3.2',),
                      _F(FONCTION=DEPZ,
                         VALE_PARA=0.5,
                         VALE_REFE=3.9347168756635E+01,
                         CRITERE='RELATIF',
                         REFERENCE='NON_REGRESSION',
                         VERSION='8.3.2',),),);

TEST_FONCTION(VALEUR=(_F(FONCTION=COOR_X,
                         VALE_PARA=1.0,
                         VALE_REFE=1.5664980272751E+01,
                         CRITERE='RELATIF',
                         REFERENCE='NON_REGRESSION',
                         VERSION='8.3.2',),
                      _F(FONCTION=COOR_Y,
                         VALE_PARA=1.0,
                         VALE_REFE=4.7472329569190E+01,
                         CRITERE='RELATIF',
                         REFERENCE='NON_REGRESSION',
                         VERSION='8.3.2',),
                      _F(FONCTION=DEPZ,
                         VALE_PARA=1.0,
                         VALE_REFE=5.2861402103321E+01,
                         CRITERE='RELATIF',
                         REFERENCE='NON_REGRESSION',
                         VERSION='8.3.2',),),);

FIN();
