# TITRE PLAQUE INDEFORMABLE SUR UN TAPIS DE RESSORTS
#            CONFIGURATION MANAGEMENT OF EDF VERSION
# ======================================================================
# COPYRIGHT (C) 1991 - 2012  EDF R&D                  WWW.CODE-ASTER.ORG
# THIS PROGRAM IS FREE SOFTWARE; YOU CAN REDISTRIBUTE IT AND/OR MODIFY
# IT UNDER THE TERMS OF THE GNU GENERAL PUBLIC LICENSE AS PUBLISHED BY
# THE FREE SOFTWARE FOUNDATION; EITHER VERSION 2 OF THE LICENSE, OR
# (AT YOUR OPTION) ANY LATER VERSION.
#
# THIS PROGRAM IS DISTRIBUTED IN THE HOPE THAT IT WILL BE USEFUL, BUT
# WITHOUT ANY WARRANTY; WITHOUT EVEN THE IMPLIED WARRANTY OF
# MERCHANTABILITY OR FITNESS FOR A PARTICULAR PURPOSE. SEE THE GNU
# GENERAL PUBLIC LICENSE FOR MORE DETAILS.
#
# YOU SHOULD HAVE RECEIVED A COPY OF THE GNU GENERAL PUBLIC LICENSE
# ALONG WITH THIS PROGRAM; IF NOT, WRITE TO EDF R&D CODE_ASTER,
#    1 AVENUE DU GENERAL DE GAULLE, 92141 CLAMART CEDEX, FRANCE.
# ======================================================================
# CAS_TEST__:SSNL130A
#
DEBUT(CODE=_F(NOM='SSNL130A', NIV_PUB_WEB='INTERNET', VISU_EFICAS='NON'), DEBUG=_F(SDVERI='OUI'))

mail=LIRE_MAILLAGE(FORMAT='MED',);

model=AFFE_MODELE(
   MAILLAGE=mail,
   AFFE=(
      _F(GROUP_MA='DALLE',   PHENOMENE='MECANIQUE', MODELISATION='DKT',),
      _F(GROUP_MA='RESSORT', PHENOMENE='MECANIQUE', MODELISATION='DIS_T',),
   ),
);

acier=DEFI_MATERIAU(
   ELAS=_F(E=200000000000.0, NU=0.3,),
);
resso=DEFI_MATERIAU(
   ELAS=_F(E=200000000000.0, NU=0.3,),
   DIS_CONTACT= _F(DIST_1= 0.100),
);

mater=AFFE_MATERIAU(
   MAILLAGE=mail,
   AFFE=(
      _F(GROUP_MA='DALLE',   MATER=acier,),
      _F(GROUP_MA='RESSORT', MATER=resso,),
   ),
);

carelem=AFFE_CARA_ELEM(INFO=2,
   MODELE=model,
   COQUE=_F(GROUP_MA='DALLE', EPAIS=0.3, COQUE_NCOU=1,),
   ORIENTATION=(
      _F(GROUP_MA='RESSORT', CARA='ANGL_NAUT', VALE=(0.0,0.0,0.0,),),
   ),
   RIGI_PARASOL=_F(GROUP_MA='DALLE',
                  GROUP_MA_SEG2='RESSORT',
                  COEF_GROUP=1.0,
                  REPERE='GLOBAL',
                  CARA='K_T_D_L',
                  VALE=(10000.0,10000.0,10000.0,),
                  GROUP_NO_CENTRE='PCDG',),
);

ZERO=DEFI_CONSTANTE(VALE=0.0,);

ll=DEFI_LIST_REEL(DEBUT=0.0,
   INTERVALLE=(
      _F(JUSQU_A=1.0, PAS=1.000,),
      _F(JUSQU_A=2.0, PAS=0.500,),
   ),
);

def Pression(t,x,y,z):
   Pressy = 5.0*(y-2.0)**2
   if ( t <= 1.0 ): return Pressy*t
   return Pressy

def Deplacer(t,x,y,z):
   if ( t<= 1.0): return 0.0
   return (t-1.0)*0.5E-02

PRESS = FORMULE(NOM_PARA=('INST','X','Y','Z',), VALE='Pression(INST,X,Y,Z)' );
DEPLA = FORMULE(NOM_PARA=('INST','X','Y','Z',), VALE='Deplacer(INST,X,Y,Z)' );

CHARGE=AFFE_CHAR_MECA_F(
   MODELE=model,
   FORCE_COQUE=_F(GROUP_MA='DALLE', PRES=PRESS,),
   DDL_IMPO = _F(GROUP_MA='PTRESS',DX=ZERO,DY=ZERO,DZ=DEPLA),
)

resu=STAT_NON_LINE(
   MODELE=model,
   CHAM_MATER=mater,
   CARA_ELEM=carelem,
   EXCIT=_F(CHARGE=CHARGE,),
   COMP_INCR=(
      _F(RELATION='ELAS',     DEFORMATION='PETIT', TOUT='OUI'),
      _F(RELATION='DIS_CHOC', DEFORMATION='PETIT', GROUP_MA='RESSORT'),
   ),
   NEWTON=(_F(REAC_INCR=1,MATRICE='TANGENTE',REAC_ITER=1,),),
   CONVERGENCE= _F(ITER_GLOB_MAXI=60,),
   INCREMENT=_F(LIST_INST=ll, INST_FIN=2.0,),
);


#IMPR_RESU(
#   FORMAT='GMSH',
#   UNITE=22,
#   VERSION=1.2,
#   RESU=_F(MAILLAGE=mail,
#           RESULTAT=resu,INST=1.0,
#           NOM_CHAM='DEPL',),
#);

#IMPR_RESU(
#   FORMAT='RESULTAT',
#   RESU=_F(RESULTAT=resu, NOM_CHAM='DEPL', INST=(1.0,2.0),),
#);



TEST_RESU(RESU=(_F(GROUP_NO='PT01',
                   INST=1.0,
                   REFERENCE='ANALYTIQUE',
                   RESULTAT=resu,
                   NOM_CHAM='DEPL',
                   NOM_CMP='DZ',
                   VALE_CALC=-3.53343954E-03,
                   VALE_REFE=-3.5329087050000002E-3,
                   CRITERE='RELATIF',
                   PRECISION=4.0000000000000002E-4,
                   ),
                _F(GROUP_NO='PT02',
                   INST=1.0,
                   REFERENCE='ANALYTIQUE',
                   RESULTAT=resu,
                   NOM_CHAM='DEPL',
                   NOM_CMP='DZ',
                   VALE_CALC=-3.53343954E-03,
                   VALE_REFE=-3.5329087050000002E-3,
                   CRITERE='RELATIF',
                   PRECISION=4.0000000000000002E-4,
                   ),
                _F(GROUP_NO='PT03',
                   INST=1.0,
                   REFERENCE='ANALYTIQUE',
                   RESULTAT=resu,
                   NOM_CHAM='DEPL',
                   NOM_CMP='DZ',
                   VALE_CALC= 1.14204623E-03,
                   VALE_REFE=1.1497631879999999E-3,
                   CRITERE='RELATIF',
                   PRECISION=7.0000000000000001E-3,
                   ),
                _F(GROUP_NO='PT04',
                   INST=1.0,
                   REFERENCE='ANALYTIQUE',
                   RESULTAT=resu,
                   NOM_CHAM='DEPL',
                   NOM_CMP='DZ',
                   VALE_CALC= 1.14204623E-03,
                   VALE_REFE=1.1497631879999999E-3,
                   CRITERE='RELATIF',
                   PRECISION=7.0000000000000001E-3,
                   ),
                _F(GROUP_NO='PT01',
                   INST=2.0,
                   REFERENCE='ANALYTIQUE',
                   RESULTAT=resu,
                   NOM_CHAM='DEPL',
                   NOM_CMP='DZ',
                   VALE_CALC= 1.46656046E-03,
                   VALE_REFE=1.4670912949999999E-3,
                   CRITERE='RELATIF',
                   PRECISION=4.0000000000000002E-4,
                   ),
                _F(GROUP_NO='PT02',
                   INST=2.0,
                   REFERENCE='ANALYTIQUE',
                   RESULTAT=resu,
                   NOM_CHAM='DEPL',
                   NOM_CMP='DZ',
                   VALE_CALC= 1.46656046E-03,
                   VALE_REFE=1.4670912949999999E-3,
                   CRITERE='RELATIF',
                   PRECISION=4.0000000000000002E-4,
                   ),
                _F(GROUP_NO='PT03',
                   INST=2.0,
                   REFERENCE='ANALYTIQUE',
                   RESULTAT=resu,
                   NOM_CHAM='DEPL',
                   NOM_CMP='DZ',
                   VALE_CALC= 6.14204623E-03,
                   VALE_REFE=6.149763188E-3,
                   CRITERE='RELATIF',
                   PRECISION=7.0000000000000001E-3,
                   ),
                _F(GROUP_NO='PT04',
                   INST=2.0,
                   REFERENCE='ANALYTIQUE',
                   RESULTAT=resu,
                   NOM_CHAM='DEPL',
                   NOM_CMP='DZ',
                   VALE_CALC= 6.14204623E-03,
                   VALE_REFE=6.149763188E-3,
                   CRITERE='RELATIF',
                   PRECISION=7.0000000000000001E-3,
                   ),
                ),
          )

FIN(FORMAT_HDF='OUI');
