# TITRE POUTRE DKT MODELE GLRC_DM (STATIQUE NON-LINEAIRE)
# ======================================================================
# COPYRIGHT (C) 1991 - 2015  EDF R&D                  WWW.CODE-ASTER.ORG
# THIS PROGRAM IS FREE SOFTWARE; YOU CAN REDISTRIBUTE IT AND/OR MODIFY
# IT UNDER THE TERMS OF THE GNU GENERAL PUBLIC LICENSE AS PUBLISHED BY
# THE FREE SOFTWARE FOUNDATION; EITHER VERSION 2 OF THE LICENSE, OR
# (AT YOUR OPTION) ANY LATER VERSION.
#
# THIS PROGRAM IS DISTRIBUTED IN THE HOPE THAT IT WILL BE USEFUL, BUT
# WITHOUT ANY WARRANTY; WITHOUT EVEN THE IMPLIED WARRANTY OF
# MERCHANTABILITY OR FITNESS FOR A PARTICULAR PURPOSE. SEE THE GNU
# GENERAL PUBLIC LICENSE FOR MORE DETAILS.
#
# YOU SHOULD HAVE RECEIVED A COPY OF THE GNU GENERAL PUBLIC LICENSE
# ALONG WITH THIS PROGRAM; IF NOT, WRITE TO EDF R&D CODE_ASTER,
#    1 AVENUE DU GENERAL DE GAULLE, 92141 CLAMART CEDEX, FRANCE.
# ======================================================================
# tps_job 480 mem_job 32Mo ncpus 1 liste_test S
import math
MPa = 1.e6
#-----------------------------------------------
# PARAMETRES DU CALCUL
#-----------------------------------------------  
## BETON
# epaisseur de la plaque
ep_beton = 0.50
# largeur de la plaque
lg_beton = 0.2
# module de Young  beton
E_beton = 37272*MPa
# coefficient de poisson  beton
Nu_beton = 0.2
# masse volumique beton
Rho_beton =2400
# contrainte limite de traction
ft =3.9*MPa
# pente post-pic en traction
DE_beton = -E_beton
# contrainte limite en compressio
fc = -38.3*MPa

## ACIER moyenne
# section acier longitudinal inf (mm2) par barres
section_acier_haut = math.pi*(8e-3*0.5)**2
# section acier longitudinal sup (mm2) par barres
section_acier_bas = math.pi*(32.E-3*0.5)**2
# section acier lonigitudinal inf (mm2/m)
section_acier = (section_acier_haut+section_acier_bas)/lg_beton
# excentrement des aciers
excentr = ep_beton*0.5-0.032
# module de Young acier
E_acier = 200000*MPa
# coefficient de Poisson acier
Nu_acier = 0.0
# limite elastique acier
sy_acier = 400*MPa
# module d'ecrouissage acier
Dsde_acier = 3280*MPa 
# masse volumique acier
Rho_acier = 7800

###

DEBUT(CODE=_F(NIV_PUB_WEB='INTERNET',),DEBUG=_F(SDVERI='OUI'));

#-----------------------------------------------
# LECTURE DU MAILLAGE
#-----------------------------------------------
MA=LIRE_MAILLAGE(FORMAT='MED',);

MA=DEFI_GROUP(reuse =MA,
                MAILLAGE=MA,
                CREA_GROUP_NO=(_F(GROUP_MA='A',),
                               _F(GROUP_MA='B',),),);

MA=MODI_MAILLAGE(reuse =MA,
                   MAILLAGE=MA,
                   ORIE_NORM_COQUE=_F(GROUP_MA='POUTRE',
                                      VECT_NORM=(0.,1.,0.,),
                                      GROUP_NO='AA',),);

#-----------------------------------------------
# CREATION DU MODELE
#-----------------------------------------------
MO=AFFE_MODELE(MAILLAGE=MA,
               AFFE=(_F(GROUP_MA=('POUTRE'),
                        PHENOMENE='MECANIQUE',
                        MODELISATION='DKTG',),),);

#-----------------------------------------------
# DEFINTION DES MATERIAUX 
#-----------------------------------------------    
BETON=DEFI_MATERIAU(ELAS=_F(E=E_beton,
                            NU=Nu_beton,
                            RHO=Rho_beton,),
                    BETON_ECRO_LINE=_F(D_SIGM_EPSI=(DE_beton),
                                       SYT=ft,
                                       SYC=-fc,),);

ACIER=DEFI_MATERIAU(ELAS=_F(E=E_acier,
                            NU=Nu_acier,
                            RHO=Rho_acier,),
                    ECRO_LINE=_F(D_SIGM_EPSI=Dsde_acier,
                                 SY=sy_acier,),);
 
MAT_T=DEFI_GLRC(RELATION='GLRC_DM',
                BETON=_F(MATER=BETON,
                         EPAIS=ep_beton),
                NAPPE=_F(MATER=ACIER,
                         OMX=section_acier,
                         OMY=section_acier,
                         RX=excentr/ep_beton*2,
                         RY=excentr/ep_beton*2,),
                INFO=2,);

MATER=AFFE_MATERIAU(MAILLAGE=MA,
                    AFFE=(_F(GROUP_MA='POUTRE',
                             MATER=MAT_T,),),);

CAEL=AFFE_CARA_ELEM(MODELE=MO,
                    COQUE=_F(GROUP_MA='POUTRE',
                             EPAIS=ep_beton,
                             ANGL_REP=(0.0,0.0,),
                             INER_ROTA='OUI',),);

#-----------------------------------------------
# DEFINTION DES CONDITIONS AUX LIMITES ET CHARGEMENTS
#-----------------------------------------------
CL=AFFE_CHAR_MECA(MODELE=MO,
                  DDL_IMPO=(_F(GROUP_NO='A',
                               DX=0.0,
                               DY=0.0,
                               DZ=0.0,
                               DRX=0.0,
                               DRY=0.0,),
                            _F(GROUP_NO='B',
                               DY=0.0,),),);

CHARGE=AFFE_CHAR_MECA(MODELE=MO,
                      DDL_IMPO=_F(GROUP_NO='C',
                                  DY=-1.E-2,),);

FOFO=DEFI_FONCTION(NOM_PARA='INST',
                   VALE=(0.0,0.0,5.,5.),
                   PROL_DROITE='EXCLU',
                   PROL_GAUCHE='EXCLU',);

LINST=DEFI_LIST_REEL(DEBUT=0.0,
                     INTERVALLE=(_F(JUSQU_A=0.1,NOMBRE=2,),
                                 _F(JUSQU_A=1.4,NOMBRE=13,),
                                 _F(JUSQU_A=3. ,NOMBRE=16,),
                                 _F(JUSQU_A=5. ,NOMBRE=10,),),);

#-----------------------------------------------
# CALCUL DES RESULTATS POUR LE CHARGEMENT
#-----------------------------------------------
RESU=STAT_NON_LINE(MODELE=MO,
                   CHAM_MATER=MATER,
                   CARA_ELEM=CAEL,
                   EXCIT=(_F(CHARGE=CHARGE,
                             FONC_MULT=FOFO,),
                          _F(CHARGE=CL,),),
                   COMPORTEMENT=(_F(GROUP_MA ='POUTRE',
                                    RELATION='GLRC_DM',
                                    ITER_INTE_MAXI=30,),),
                   INCREMENT=_F(LIST_INST=LINST,),
                   NEWTON=_F(REAC_ITER=1,
                             MATRICE='TANGENTE',),);

CALC_CHAMP(reuse=RESU,
           RESULTAT=RESU,
           FORCE=('FORC_NODA','REAC_NODA'),);

#-----------------------------------------------
# CALCUL DES TEST_RESU
#-----------------------------------------------

# les resultats experimentaux sont donnees dans le fichier joint
# il s'agit de Fy_(N)Uy_(m)Eps_xx(S)_traction
INCLUDE(UNITE=12)

POST=POST_RELEVE_T(ACTION=_F(INTITULE='RESULTANTE',
                             RESULTAT=RESU,
                             OPERATION=('EXTRACTION',),
                             GROUP_NO=('A',),
                             RESULTANTE=('DY'),
                             REPERE='GLOBAL',
                             MOYE_NOEUD='OUI',
                             NOM_CHAM='REAC_NODA',),);

IMPR_TABLE(TABLE=POST)

#########################

TEST_TABLE(TABLE=POST,
           NOM_PARA='DY',
           FILTRE=_F(NOM_PARA='INST',
                     VALE=0.3,
                     CRITERE='RELATIF',
                     CRIT_COMP='EQ',
                     PRECISION=1.E-3,),
           REFERENCE='SOURCE_EXTERNE',
           VALE_CALC=(30889.874360044 ),
           VALE_REFE=(val_exp[3]*0.5 ),
           PRECISION=0.05,
           CRITERE='RELATIF',
           VALE_ABS='NON',);

TEST_TABLE(TABLE=POST,
           NOM_PARA='DY',
           FILTRE=_F(NOM_PARA='INST',
                     VALE=0.5,
                     CRITERE='RELATIF',
                     CRIT_COMP='EQ',
                     PRECISION=1.E-3,),
           REFERENCE='SOURCE_EXTERNE',
           VALE_CALC=( 41854.549871505   ),
           VALE_REFE=(val_exp[6]*0.5 ),
           PRECISION=0.04,
           CRITERE='RELATIF',
           VALE_ABS='NON',);

TEST_TABLE(TABLE=POST,
           NOM_PARA='DY',
           FILTRE=_F(NOM_PARA='INST',
                     VALE=0.7,
                     CRITERE='RELATIF',
                     CRIT_COMP='EQ',
                     PRECISION=1.E-3,),
           REFERENCE='SOURCE_EXTERNE',
           VALE_CALC=(52435.820833159 ),
           VALE_REFE=(val_exp[9]*0.5 ),
           PRECISION=0.06,
           CRITERE='RELATIF',
           VALE_ABS='NON',);

TEST_TABLE(TABLE=POST,
           NOM_PARA='DY',
           FILTRE=_F(NOM_PARA='INST',
                     VALE=1.1,
                     CRITERE='RELATIF',
                     CRIT_COMP='EQ',
                     PRECISION=1.E-3,),
           REFERENCE='SOURCE_EXTERNE',
           VALE_CALC=(73299.919635242 ),
           VALE_REFE=(val_exp[12]*0.5 ),
           PRECISION=0.06,
           CRITERE='RELATIF',
           VALE_ABS='NON',);

TEST_TABLE(TABLE=POST,
           NOM_PARA='DY',
           FILTRE=_F(NOM_PARA='INST',
                     VALE=1.6,
                     CRITERE='RELATIF',
                     CRIT_COMP='EQ',
                     PRECISION=1.E-3,),
           REFERENCE='SOURCE_EXTERNE',
           VALE_CALC=(99158.320493457  ),
           VALE_REFE=(val_exp[15]*0.5 ),
           PRECISION=0.11,
           CRITERE='RELATIF',
           VALE_ABS='NON',);

TEST_TABLE(TABLE=POST,
           NOM_PARA='DY',
           FILTRE=_F(NOM_PARA='INST',
                     VALE=1.9,
                     CRITERE='RELATIF',
                     CRIT_COMP='EQ',
                     PRECISION=1.E-3,),
           REFERENCE='SOURCE_EXTERNE',
           VALE_CALC=(1.1457150899729E+05  ),
           VALE_REFE=(val_exp[18]*0.5  ),
           PRECISION=0.15,
           CRITERE='RELATIF',
           VALE_ABS='NON',);

TEST_TABLE(TABLE=POST,
           NOM_PARA='DY',
           FILTRE=_F(NOM_PARA='INST',
                     VALE=5.0,
                     CRITERE='RELATIF',
                     CRIT_COMP='EQ',
                     PRECISION=1.E-3,),
           REFERENCE='SOURCE_EXTERNE',
           VALE_CALC=(2.7207077072441E+05  ),
           VALE_REFE=(val_exp[21]*0.5  ),
           PRECISION=1.32,
           CRITERE='RELATIF',
           VALE_ABS='NON',);

FIN()
