# MODIF  DATE 16/01/2012   AUTEUR BEAURAIN J.BEAURAIN 
# TITRE FLAMBEMENT NON LINEAIRE POUTRE 3D GROT_GDEP
# ssnl126b.para = tps_job 120 mem_job 64Mo ncpus 1 liste_test S
#            CONFIGURATION MANAGEMENT OF EDF VERSION
# ======================================================================
# COPYRIGHT (C) 1991 - 2012  EDF R&D                  WWW.CODE-ASTER.ORG
# THIS PROGRAM IS FREE SOFTWARE; YOU CAN REDISTRIBUTE IT AND/OR MODIFY  
# IT UNDER THE TERMS OF THE GNU GENERAL PUBLIC LICENSE AS PUBLISHED BY  
# THE FREE SOFTWARE FOUNDATION; EITHER VERSION 2 OF THE LICENSE, OR     
# (AT YOUR OPTION) ANY LATER VERSION.                                                    
#                                                                       
# THIS PROGRAM IS DISTRIBUTED IN THE HOPE THAT IT WILL BE USEFUL, BUT   
# WITHOUT ANY WARRANTY; WITHOUT EVEN THE IMPLIED WARRANTY OF            
# MERCHANTABILITY OR FITNESS FOR A PARTICULAR PURPOSE. SEE THE GNU      
# GENERAL PUBLIC LICENSE FOR MORE DETAILS.                              
#                                                                       
# YOU SHOULD HAVE RECEIVED A COPY OF THE GNU GENERAL PUBLIC LICENSE     
# ALONG WITH THIS PROGRAM; IF NOT, WRITE TO EDF R&D CODE_ASTER,         
#    1 AVENUE DU GENERAL DE GAULLE, 92141 CLAMART CEDEX, FRANCE.        
# ======================================================================

DEBUT(CODE=_F( NOM = 'SSNL126B',NIV_PUB_WEB='INTERNET'));

mail=LIRE_MAILLAGE(FORMAT='MED',);

modele=AFFE_MODELE(MAILLAGE=mail,
                   AFFE=_F(TOUT='OUI',
                           PHENOMENE='MECANIQUE',
                           MODELISATION='3D',),);

CC=AFFE_CHAR_MECA(MODELE=modele,
                  DDL_IMPO=(_F(GROUP_MA='ENCAST',
                               DX=0.0,
                               DY=0.0,
                               DZ=0.0,),),);

CSEL=AFFE_CHAR_MECA(MODELE=modele,
                  FORCE_FACE=_F(GROUP_MA='EFFORT',
                                FX=-20000000.0,),);

acier=DEFI_MATERIAU(ELAS=_F(E=210000000000.0,
                            NU=0.3,),
                    ECRO_LINE=_F(D_SIGM_EPSI=70000000000.0,
                                 SY=4000000.0,),);

ch_mat=AFFE_MATERIAU(MAILLAGE=mail,
                     AFFE=_F(TOUT='OUI',
                             MATER=acier,),);

fonc=DEFI_FONCTION(NOM_PARA='INST',
                   VALE=(0.0,0.0,1.0,1.0,),);
#list=DEFI_LIST_REEL(DEBUT=0.0,
#                    INTERVALLE=_F(JUSQU_A=1.0,
#                                  NOMBRE=10,),);

list=DEFI_LIST_REEL(DEBUT=0.0,
                    INTERVALLE=_F(JUSQU_A=1,
                                  NOMBRE=10,),);

resuel=STAT_NON_LINE(MODELE=modele,
                   CHAM_MATER=ch_mat,
                   EXCIT=(_F(CHARGE=CC,),
                          _F(CHARGE=CSEL,
                             FONC_MULT=fonc,),),
                   COMP_INCR=_F(RELATION='ELAS',
                                DEFORMATION='GROT_GDEP',),
                   INCREMENT=_F(LIST_INST=list,INST_FIN=0.5,),
                   NEWTON=_F(REAC_INCR=1,
                             MATRICE='TANGENTE',
                             REAC_ITER=1,),
                   CONVERGENCE=_F(RESI_GLOB_RELA=1e-06,
                                  ITER_GLOB_MAXI=10,),
                   CRIT_STAB=_F()
                  );
                  
resuel=STAT_NON_LINE(reuse=resuel,
                   MODELE=modele,
                   CHAM_MATER=ch_mat,
                   EXCIT=(_F(CHARGE=CC,),
                          _F(CHARGE=CSEL,
                             FONC_MULT=fonc,),),
                   ETAT_INIT=_F(EVOL_NOLI=resuel),
                   COMP_INCR=_F(RELATION='ELAS',
                                DEFORMATION='GROT_GDEP',),
                   INCREMENT=_F(LIST_INST=list,INST_INIT=0.5,),
                   NEWTON=_F(REAC_INCR=1,
                             MATRICE='TANGENTE',
                             REAC_ITER=1,),
                   CONVERGENCE=_F(RESI_GLOB_RELA=1e-06,
                                  ITER_GLOB_MAXI=10,),
                   CRIT_STAB=_F()
                  );
                  
TEST_RESU(RESU=(
                 _F(RESULTAT=resuel,
                   INST=1.0,
                   PARA='CHAR_CRIT',
                   VALE=-19.065,
                   PRECISION=1.E-4,
                   REFERENCE='NON_REGRESSION',),
                   ),)

# ELASTOPLASTIQUE
CS=AFFE_CHAR_MECA(MODELE=modele,
                  FORCE_FACE=_F(GROUP_MA='EFFORT',
                                FX=-10000000.0,),);
resu=STAT_NON_LINE(MODELE=modele,
                   CHAM_MATER=ch_mat,
                   EXCIT=(_F(CHARGE=CC,),
                          _F(CHARGE=CS,
                             FONC_MULT=fonc,),),
                   COMP_INCR=_F(RELATION='VMIS_ISOT_LINE',
                                DEFORMATION='GROT_GDEP',),
                   INCREMENT=_F(LIST_INST=list,INST_FIN=0.5,),
                   NEWTON=_F(REAC_INCR=1,
                             MATRICE='TANGENTE',
                             REAC_ITER=1,),
                   CONVERGENCE=_F(RESI_GLOB_RELA=1e-06,
                                  ITER_GLOB_MAXI=10,),
                   CRIT_STAB=_F()
                  );
                  
resu=STAT_NON_LINE(reuse=resu,
                   MODELE=modele,
                   CHAM_MATER=ch_mat,
                   EXCIT=(_F(CHARGE=CC,),
                          _F(CHARGE=CS,
                             FONC_MULT=fonc,),),
                   ETAT_INIT=_F(EVOL_NOLI=resu),
                   COMP_INCR=_F(RELATION='VMIS_ISOT_LINE',
                                DEFORMATION='GROT_GDEP',),
                   INCREMENT=_F(LIST_INST=list,INST_INIT=0.5,),
                   NEWTON=_F(REAC_INCR=1,
                             MATRICE='TANGENTE',
                             REAC_ITER=1,),
                   CONVERGENCE=_F(RESI_GLOB_RELA=1e-06,
                                  ITER_GLOB_MAXI=10,),
                   CRIT_STAB=_F()
                  );
TEST_RESU(RESU=(
                 _F(RESULTAT=resu,
                   INST=0.4,
                   PARA='CHAR_CRIT',
                   VALE=4.9917,
                   REFERENCE='NON_REGRESSION',),
                   
                 _F(RESULTAT=resu,
                   INST=0.5,
                   PARA='CHAR_CRIT',
                   VALE=-1.3186,
                   REFERENCE='NON_REGRESSION',),
                   ),)

TEST_RESU(RESU=(
   _F( RESULTAT  = resu,
       NOM_CHAM  = 'MODE_FLAMB',
       NOM_CMP   = 'DX',
       NOEUD     = 'N1',   
       CRITERE   = 'RELATIF',
       PRECISION = 1.E-4,
       INST      = 0.4,
       VALE      = 0.,
       REFERENCE = 'ANALYTIQUE'),
   _F( RESULTAT  = resu,
       NOM_CHAM  = 'MODE_FLAMB',
       NOM_CMP   = 'DX',
       NOEUD     = 'N1',   
       CRITERE   = 'RELATIF',
       PRECISION = 1.E-4,
       INST      = 1.0,
       VALE      = 0.,
       REFERENCE = 'ANALYTIQUE'),
       ),);

FIN();
