# TITRE ESSAI DE DEPLACEMENT IMPOSE SUR UNE BARRE (PINTO)
# ======================================================================
# COPYRIGHT (C) 1991 - 2012  EDF R&D                  WWW.CODE-ASTER.ORG
# THIS PROGRAM IS FREE SOFTWARE; YOU CAN REDISTRIBUTE IT AND/OR MODIFY
# IT UNDER THE TERMS OF THE GNU GENERAL PUBLIC LICENSE AS PUBLISHED BY
# THE FREE SOFTWARE FOUNDATION; EITHER VERSION 2 OF THE LICENSE, OR
# (AT YOUR OPTION) ANY LATER VERSION.
#
# THIS PROGRAM IS DISTRIBUTED IN THE HOPE THAT IT WILL BE USEFUL, BUT
# WITHOUT ANY WARRANTY; WITHOUT EVEN THE IMPLIED WARRANTY OF
# MERCHANTABILITY OR FITNESS FOR A PARTICULAR PURPOSE. SEE THE GNU
# GENERAL PUBLIC LICENSE FOR MORE DETAILS.
#
# YOU SHOULD HAVE RECEIVED A COPY OF THE GNU GENERAL PUBLIC LICENSE
# ALONG WITH THIS PROGRAM; IF NOT, WRITE TO EDF R&D CODE_ASTER,
#    1 AVENUE DU GENERAL DE GAULLE, 92141 CLAMART CEDEX, FRANCE.
# ======================================================================
#       COMPORTEMENT ELASTOPLASTIQUE CYCLIQUE (DEPLACEMENT IMPOSE)
#       RELATION DE PINTO MENEGOTTO SANS FLAMBAGE
#       ELEMENTS DE TYPE MECA_BARRE
#       DEPLACEMENT IMPOSE
#

DEBUT(CODE=_F(NOM='SSNL112E', NIV_PUB_WEB='INTERNET'), DEBUG=_F(SDVERI='OUI'))

#

MAIL=LIRE_MAILLAGE(  )

MAIL=DEFI_GROUP( reuse=MAIL,   MAILLAGE=MAIL,
                 CREA_GROUP_MA=_F(  NOM = 'TOUT', TOUT = 'OUI'))

#

MOD=AFFE_MODELE(
                        MAILLAGE=MAIL,
                        AFFE=_F(  TOUT = 'OUI',
                               PHENOMENE = 'MECANIQUE',
                               MODELISATION = 'BARRE')
                     )

#

MATER=DEFI_MATERIAU(   ELAS=_F(  E = 2.E11,
                                    NU = 0.3,
                                    ALPHA = 1.E-5),
                  PINTO_MENEGOTTO=_F(  SY = 2.E8,
                                    EPSI_ULTM = 3.E-2,
                                    SIGM_ULTM = 2.58E8,
                                    EPSP_HARD = 0.0023,
                                    R_PM = 20.0,
                                    EP_SUR_E = 0.01,
                                    A1_PM = 18.5,
                                    A2_PM = 0.15,
                                    ELAN = 4.9,
                                    A6_PM = 620.0,
                                    C_PM = 0.5,
                                    A_PM = 0.008)
                           )

#

CHMAT=AFFE_MATERIAU(
                            MAILLAGE=MAIL,
                            AFFE=_F(  TOUT = 'OUI',
                                   MATER = MATER,
                                   )
                         )

#

CARBA=AFFE_CARA_ELEM(   MODELE=MOD,
                        BARRE=_F(  GROUP_MA = 'TOUT',
                                   SECTION = 'GENERALE',
                                   CARA = ( 'A', ),
                                   VALE = ( 5.E-4,))
                          )

#

CL=AFFE_CHAR_MECA(
                             MODELE=MOD,DDL_IMPO=(
                             _F(  NOEUD = 'N1',
                                        DX = 0.,
                                        DZ = 0.),
                             _F(  NOEUD = 'N2',
                                        DX = 0.,
                                        DY = 0.,
                                        DZ = 0.))
                       )

#

CH1=AFFE_CHAR_MECA(
                               MODELE=MOD,
               FORCE_NODALE=_F(  NOEUD = ( 'N1', ),
                                 FY = 1.)
                       )

#

LINST1=DEFI_LIST_REEL(   DEBUT=0.,INTERVALLE=(

                                _F(  JUSQU_A = 0.001,  NOMBRE = 1),
                                _F(  JUSQU_A = 0.0023, NOMBRE = 1),
                                _F(  JUSQU_A = 0.03,   NOMBRE = 1),
                                _F(  JUSQU_A = 0.2,    NOMBRE = 1),
                                _F(  JUSQU_A = 0.4,    NOMBRE = 1),
                                _F(  JUSQU_A = 6.4,    NOMBRE = 1),
                                _F(  JUSQU_A = 7.92,   NOMBRE = 1),
                                _F(  JUSQU_A = 17.,    NOMBRE = 1),
                                _F(  JUSQU_A = 19.,    NOMBRE = 1),
                                _F(  JUSQU_A = 20.,    NOMBRE = 1),
                                _F(  JUSQU_A = 21.,    NOMBRE = 1),
                                _F(  JUSQU_A = 22.,    NOMBRE = 1),
                                _F(  JUSQU_A = 25.,    NOMBRE = 1),
                                _F(  JUSQU_A = 50.,    NOMBRE = 1))
                         )

#
# COEF_MULT = DELTA_INSTANT/DELTA_DEPLACEMENT
#

LEDEP=STAT_NON_LINE(
                            MODELE=MOD,
                        CHAM_MATER=CHMAT,
                         CARA_ELEM=CARBA,EXCIT=(
                             _F(
                CHARGE = CL),
                             _F(
                CHARGE = CH1,
                TYPE_CHARGE = 'FIXE_PILO')),
                         COMPORTEMENT=_F(
                RELATION = 'PINTO_MENEGOTTO'),
                         INCREMENT=_F(
                LIST_INST = LINST1,
                NUME_INST_FIN = 1),
                            NEWTON=_F(
                MATRICE = 'TANGENTE',
                REAC_ITER = 7),
                           SOLVEUR=_F(
                METHODE = 'LDLT'),
                       CONVERGENCE=_F(
                RESI_GLOB_MAXI = 1.E-4,
                ITER_GLOB_MAXI = 50),
                          PILOTAGE=_F(
                TYPE = 'DDL_IMPO',
                NOEUD = 'N1',
                NOM_CMP = 'DY',
                COEF_MULT = 1.0)
              )

LEDEP=STAT_NON_LINE( reuse=LEDEP,
                            MODELE=MOD,
                        CHAM_MATER=CHMAT,
                         CARA_ELEM=CARBA,
                         ETAT_INIT=_F(
                EVOL_NOLI = LEDEP,
                NUME_ORDRE = 1),EXCIT=(
                             _F(
                CHARGE = CL),
                             _F(
                CHARGE = CH1,
                TYPE_CHARGE = 'FIXE_PILO')),
                         COMPORTEMENT=_F(
                RELATION = 'PINTO_MENEGOTTO'),
                         INCREMENT=_F(
                LIST_INST = LINST1,
                NUME_INST_INIT = 1,
                NUME_INST_FIN = 2),
                            NEWTON=_F(
                MATRICE = 'TANGENTE',
                REAC_ITER = 7),
                           SOLVEUR=_F(
                METHODE = 'LDLT'),
                       CONVERGENCE=_F(
                RESI_GLOB_MAXI = 1.E-4,
                ITER_GLOB_MAXI = 50),
                          PILOTAGE=_F(
                TYPE = 'DDL_IMPO',
                NOEUD = 'N1',
                NOM_CMP = 'DY',
                COEF_MULT = 1.0)
              )

LEDEP=STAT_NON_LINE( reuse=LEDEP,
                            MODELE=MOD,
                        CHAM_MATER=CHMAT,
                         CARA_ELEM=CARBA,
                         ETAT_INIT=_F(
                EVOL_NOLI = LEDEP,
                NUME_ORDRE = 2),EXCIT=(
                             _F(
                CHARGE = CL),
                             _F(
                CHARGE = CH1,
                TYPE_CHARGE = 'FIXE_PILO')),
                         COMPORTEMENT=_F(
                RELATION = 'PINTO_MENEGOTTO'),
                         INCREMENT=_F(
                LIST_INST = LINST1,
                NUME_INST_INIT = 2,
                NUME_INST_FIN = 3),
                            NEWTON=_F(
                MATRICE = 'TANGENTE',
                REAC_ITER = 7),
                           SOLVEUR=_F(
                METHODE = 'LDLT'),
                       CONVERGENCE=_F(
                RESI_GLOB_MAXI = 1.E-4,
                ITER_GLOB_MAXI = 50),
                          PILOTAGE=_F(
                TYPE = 'DDL_IMPO',
                NOEUD = 'N1',
                NOM_CMP = 'DY',
                COEF_MULT = 1.0)
              )

LEDEP=STAT_NON_LINE( reuse=LEDEP,
                            MODELE=MOD,
                        CHAM_MATER=CHMAT,
                         CARA_ELEM=CARBA,
                         ETAT_INIT=_F(
                EVOL_NOLI = LEDEP,
                NUME_ORDRE = 3),EXCIT=(
                             _F(
                CHARGE = CL),
                             _F(
                CHARGE = CH1,
                TYPE_CHARGE = 'FIXE_PILO')),
                         COMPORTEMENT=_F(
                RELATION = 'PINTO_MENEGOTTO'),
                         INCREMENT=_F(
                LIST_INST = LINST1,
                NUME_INST_INIT = 3,
                NUME_INST_FIN = 4),
                            NEWTON=_F(
                MATRICE = 'TANGENTE',
                REAC_ITER = 7),
                           SOLVEUR=_F(
                METHODE = 'LDLT'),
                       CONVERGENCE=_F(
                RESI_GLOB_MAXI = 1.E-4,
                ITER_GLOB_MAXI = 50),
                          PILOTAGE=_F(
                TYPE = 'DDL_IMPO',
                NOEUD = 'N1',
                NOM_CMP = 'DY',
                COEF_MULT = -510.)
              )

LEDEP=STAT_NON_LINE( reuse=LEDEP,
                            MODELE=MOD,
                        CHAM_MATER=CHMAT,
                         CARA_ELEM=CARBA,
                         ETAT_INIT=_F(
                EVOL_NOLI = LEDEP,
                NUME_ORDRE = 4),EXCIT=(
                             _F(
                CHARGE = CL),
                             _F(
                CHARGE = CH1,
                TYPE_CHARGE = 'FIXE_PILO')),
                         COMPORTEMENT=_F(
                RELATION = 'PINTO_MENEGOTTO'),
                         INCREMENT=_F(
                LIST_INST = LINST1,
                NUME_INST_INIT = 4,
                NUME_INST_FIN = 5),
                            NEWTON=_F(
                MATRICE = 'TANGENTE',
                REAC_ITER = 7),
                           SOLVEUR=_F(
                METHODE = 'LDLT'),
                       CONVERGENCE=_F(
                RESI_GLOB_MAXI = 1.E-4,
                ITER_GLOB_MAXI = 50),
                          PILOTAGE=_F(
                TYPE = 'DDL_IMPO',
                NOEUD = 'N1',
                NOM_CMP = 'DY',
                COEF_MULT = -20.6896552)
              )

LEDEP=STAT_NON_LINE( reuse=LEDEP,
                            MODELE=MOD,
                        CHAM_MATER=CHMAT,
                         CARA_ELEM=CARBA,
                         ETAT_INIT=_F(
                EVOL_NOLI = LEDEP,
                NUME_ORDRE = 5),EXCIT=(
                             _F(
                CHARGE = CL),
                             _F(
                CHARGE = CH1,
                TYPE_CHARGE = 'FIXE_PILO')),
                         COMPORTEMENT=_F(
                RELATION = 'PINTO_MENEGOTTO'),
                         INCREMENT=_F(
                LIST_INST = LINST1,
                NUME_INST_INIT = 5,
                NUME_INST_FIN = 6),
                            NEWTON=_F(
                MATRICE = 'TANGENTE',
                REAC_ITER = 7),
                           SOLVEUR=_F(
                METHODE = 'LDLT'),
                       CONVERGENCE=_F(
                RESI_GLOB_MAXI = 1.E-4,
                ITER_GLOB_MAXI = 50),
                          PILOTAGE=_F(
                TYPE = 'DDL_IMPO',
                NOEUD = 'N1',
                NOM_CMP = 'DY',
                COEF_MULT = -100.)
              )

LEDEP=STAT_NON_LINE( reuse=LEDEP,
                            MODELE=MOD,
                        CHAM_MATER=CHMAT,
                         CARA_ELEM=CARBA,
                         ETAT_INIT=_F(
                EVOL_NOLI = LEDEP,
                NUME_ORDRE = 6),EXCIT=(
                             _F(
                CHARGE = CL),
                             _F(
                CHARGE = CH1,
                TYPE_CHARGE = 'FIXE_PILO')),
                         COMPORTEMENT=_F(
                RELATION = 'PINTO_MENEGOTTO'),
                         INCREMENT=_F(
                LIST_INST = LINST1,
                NUME_INST_INIT = 6,
                NUME_INST_FIN = 7),
                            NEWTON=_F(
                MATRICE = 'TANGENTE',
                REAC_ITER = 7),
                           SOLVEUR=_F(
                METHODE = 'LDLT'),
                       CONVERGENCE=_F(
                RESI_GLOB_MAXI = 1.E-4,
                ITER_GLOB_MAXI = 50),
                          PILOTAGE=_F(
                TYPE = 'DDL_IMPO',
                NOEUD = 'N1',
                NOM_CMP = 'DY',
                COEF_MULT = 217.1428571)
              )

LEDEP=STAT_NON_LINE( reuse=LEDEP,
                            MODELE=MOD,
                        CHAM_MATER=CHMAT,
                         CARA_ELEM=CARBA,
                         ETAT_INIT=_F(
                EVOL_NOLI = LEDEP,
                NUME_ORDRE = 7),EXCIT=(
                             _F(
                CHARGE = CL),
                             _F(
                CHARGE = CH1,
                TYPE_CHARGE = 'FIXE_PILO')),
                         COMPORTEMENT=_F(
                RELATION = 'PINTO_MENEGOTTO'),
                         INCREMENT=_F(
                LIST_INST = LINST1,
                NUME_INST_INIT = 7,
                NUME_INST_FIN = 8),
                            NEWTON=_F(
                MATRICE = 'TANGENTE',
                REAC_ITER = 7),
                           SOLVEUR=_F(
                METHODE = 'LDLT'),
                       CONVERGENCE=_F(
                RESI_GLOB_MAXI = 1.E-4,
                ITER_GLOB_MAXI = 50),
                          PILOTAGE=_F(
                TYPE = 'DDL_IMPO',
                NOEUD = 'N1',
                NOM_CMP = 'DY',
                COEF_MULT = 211.1627907)
              )

LEDEP=STAT_NON_LINE( reuse=LEDEP,
                            MODELE=MOD,
                        CHAM_MATER=CHMAT,
                         CARA_ELEM=CARBA,
                         ETAT_INIT=_F(
                EVOL_NOLI = LEDEP,
                NUME_ORDRE = 8),EXCIT=(
                             _F(
                CHARGE = CL),
                             _F(
                CHARGE = CH1,
                TYPE_CHARGE = 'FIXE_PILO')),
                         COMPORTEMENT=_F(
                RELATION = 'PINTO_MENEGOTTO'),
                         INCREMENT=_F(
                LIST_INST = LINST1,
                NUME_INST_INIT = 8,
                NUME_INST_FIN = 9),
                            NEWTON=_F(
                MATRICE = 'TANGENTE',
                REAC_ITER = 7),
                           SOLVEUR=_F(
                METHODE = 'LDLT'),
                       CONVERGENCE=_F(
                RESI_GLOB_MAXI = 1.E-4,
                ITER_GLOB_MAXI = 50),
                          PILOTAGE=_F(
                TYPE = 'DDL_IMPO',
                NOEUD = 'N1',
                NOM_CMP = 'DY',
                COEF_MULT = 100.)
              )

LEDEP=STAT_NON_LINE( reuse=LEDEP,
                            MODELE=MOD,
                        CHAM_MATER=CHMAT,
                         CARA_ELEM=CARBA,
                         ETAT_INIT=_F(
                EVOL_NOLI = LEDEP,
                NUME_ORDRE = 9),EXCIT=(
                             _F(
                CHARGE = CL),
                             _F(
                CHARGE = CH1,
                TYPE_CHARGE = 'FIXE_PILO')),
                         COMPORTEMENT=_F(
                RELATION = 'PINTO_MENEGOTTO'),
                         INCREMENT=_F(
                LIST_INST = LINST1,
                NUME_INST_INIT = 9,
                NUME_INST_FIN = 10),
                            NEWTON=_F(
                MATRICE = 'TANGENTE',
                REAC_ITER = 7),
                           SOLVEUR=_F(
                METHODE = 'LDLT'),
                       CONVERGENCE=_F(
                RESI_GLOB_MAXI = 1.E-4,
                ITER_GLOB_MAXI = 50),
                          PILOTAGE=_F(
                TYPE = 'DDL_IMPO',
                NOEUD = 'N1',
                NOM_CMP = 'DY',
                COEF_MULT = -5000.)
              )

LEDEP=STAT_NON_LINE( reuse=LEDEP,
                            MODELE=MOD,
                        CHAM_MATER=CHMAT,
                         CARA_ELEM=CARBA,
                         ETAT_INIT=_F(
                EVOL_NOLI = LEDEP,
                NUME_ORDRE = 10),EXCIT=(
                             _F(
                CHARGE = CL),
                             _F(
                CHARGE = CH1,
                TYPE_CHARGE = 'FIXE_PILO')),
                         COMPORTEMENT=_F(
                RELATION = 'PINTO_MENEGOTTO'),
                         INCREMENT=_F(
                LIST_INST = LINST1,
                NUME_INST_INIT = 10,
                NUME_INST_FIN = 11),
                            NEWTON=_F(
                MATRICE = 'TANGENTE',
                REAC_ITER = 7),
                           SOLVEUR=_F(
                METHODE = 'LDLT'),
                       CONVERGENCE=_F(
                RESI_GLOB_MAXI = 1.E-4,
                ITER_GLOB_MAXI = 50),
                          PILOTAGE=_F(
                TYPE = 'DDL_IMPO',
                NOEUD = 'N1',
                NOM_CMP = 'DY',
                COEF_MULT = -263.157895)
              )

LEDEP=STAT_NON_LINE( reuse=LEDEP,
                            MODELE=MOD,
                        CHAM_MATER=CHMAT,
                         CARA_ELEM=CARBA,
                         ETAT_INIT=_F(
                EVOL_NOLI = LEDEP,
                NUME_ORDRE = 11),EXCIT=(
                             _F(
                CHARGE = CL),
                             _F(
                CHARGE = CH1,
                TYPE_CHARGE = 'FIXE_PILO')),
                         COMPORTEMENT=_F(
                RELATION = 'PINTO_MENEGOTTO'),
                         INCREMENT=_F(
                LIST_INST = LINST1,
                NUME_INST_INIT = 11,
                NUME_INST_FIN = 12),
                            NEWTON=_F(
                MATRICE = 'TANGENTE',
                REAC_ITER = 7),
                           SOLVEUR=_F(
                METHODE = 'LDLT'),
                       CONVERGENCE=_F(
                RESI_GLOB_MAXI = 1.E-4,
                ITER_GLOB_MAXI = 50),
                          PILOTAGE=_F(
                TYPE = 'DDL_IMPO',
                NOEUD = 'N1',
                NOM_CMP = 'DY',
                COEF_MULT = -250.)
              )

LEDEP=STAT_NON_LINE( reuse=LEDEP,
                            MODELE=MOD,
                        CHAM_MATER=CHMAT,
                         CARA_ELEM=CARBA,
                         ETAT_INIT=_F(
                EVOL_NOLI = LEDEP,
                NUME_ORDRE = 12),EXCIT=(
                             _F(
                CHARGE = CL),
                             _F(
                CHARGE = CH1,
                TYPE_CHARGE = 'FIXE_PILO')),
                         COMPORTEMENT=_F(
                RELATION = 'PINTO_MENEGOTTO'),
                         INCREMENT=_F(
                LIST_INST = LINST1,
                NUME_INST_INIT = 12,
                NUME_INST_FIN = 13),
                            NEWTON=_F(
                MATRICE = 'TANGENTE',
                REAC_ITER = 7),
                           SOLVEUR=_F(
                METHODE = 'LDLT'),
                       CONVERGENCE=_F(
                RESI_GLOB_MAXI = 1.E-4,
                ITER_GLOB_MAXI = 50),
                          PILOTAGE=_F(
                TYPE = 'DDL_IMPO',
                NOEUD = 'N1',
                NOM_CMP = 'DY',
                COEF_MULT = 1000.)
              )

LEDEP=STAT_NON_LINE( reuse=LEDEP,
                            MODELE=MOD,
                        CHAM_MATER=CHMAT,
                         CARA_ELEM=CARBA,
                         ETAT_INIT=_F(
                EVOL_NOLI = LEDEP,
                NUME_ORDRE = 13),EXCIT=(
                             _F(
                CHARGE = CL),
                             _F(
                CHARGE = CH1,
                TYPE_CHARGE = 'FIXE_PILO')),
                         COMPORTEMENT=_F(
                RELATION = 'PINTO_MENEGOTTO'),
                         INCREMENT=_F(
                LIST_INST = LINST1,
                NUME_INST_INIT = 13,
                NUME_INST_FIN = 14),
                            NEWTON=_F(
                MATRICE = 'TANGENTE',
                REAC_ITER = 7),
                           SOLVEUR=_F(
                METHODE = 'LDLT'),
                       CONVERGENCE=_F(
                RESI_GLOB_MAXI = 1.E-4,
                ITER_GLOB_MAXI = 50),
                          PILOTAGE=_F(
                TYPE = 'DDL_IMPO',
                NOEUD = 'N1',
                NOM_CMP = 'DY',
                COEF_MULT = 1000.)
              )

LEDEP=CALC_CHAMP( reuse=LEDEP,
                             CONTRAINTE=('SIEF_ELNO'),
                          RESULTAT=LEDEP,
              )

#
# -------------------------------------------------
# TEST DES RESULTATS
# -------------------------------------------------
#

TEST_RESU(RESU=(_F(INST=1.E-3,
                   REFERENCE='ANALYTIQUE',
                   RESULTAT=LEDEP,
                   NOM_CHAM='SIEF_ELNO',
                   NOEUD='N1',
                   NOM_CMP='N',
                   VALE_CALC= 1.00000000E+05,
                   VALE_REFE=1.E5,
                   PRECISION=1.E-2,
                   MAILLE='M1',),
                _F(INST=2.3E-3,
                   REFERENCE='ANALYTIQUE',
                   RESULTAT=LEDEP,
                   NOM_CHAM='SIEF_ELNO',
                   NOEUD='N1',
                   NOM_CMP='N',
                   VALE_CALC= 1.00000000E+05,
                   VALE_REFE=1.E5,
                   PRECISION=1.E-2,
                   MAILLE='M1',),
                _F(INST=0.029999999999999999,
                   REFERENCE='ANALYTIQUE',
                   RESULTAT=LEDEP,
                   NOM_CHAM='SIEF_ELNO',
                   NOEUD='N1',
                   NOM_CMP='N',
                   VALE_CALC= 1.29000000E+05,
                   VALE_REFE=1.29000E5,
                   PRECISION=1.E-2,
                   MAILLE='M1',),
                _F(INST=0.20000000000000001,
                   REFERENCE='ANALYTIQUE',
                   RESULTAT=LEDEP,
                   NOM_CHAM='SIEF_ELNO',
                   NOEUD='N1',
                   NOM_CMP='N',
                   VALE_CALC= 9.65781899E+04,
                   VALE_REFE=9.6578199999999997E4,
                   PRECISION=1.E-2,
                   MAILLE='M1',),
                _F(INST=0.40000000000000002,
                   REFERENCE='ANALYTIQUE',
                   RESULTAT=LEDEP,
                   NOM_CHAM='SIEF_ELNO',
                   NOEUD='N1',
                   NOM_CMP='N',
                   VALE_CALC=-7.16556748E+04,
                   VALE_REFE=-7.1655699999999997E4,
                   PRECISION=1.E-2,
                   MAILLE='M1',),
                _F(INST=6.4000000000000004,
                   REFERENCE='ANALYTIQUE',
                   RESULTAT=LEDEP,
                   NOM_CHAM='SIEF_ELNO',
                   NOEUD='N1',
                   NOM_CMP='N',
                   VALE_CALC=-1.38711930E+05,
                   VALE_REFE=-1.38712E5,
                   PRECISION=1.E-2,
                   MAILLE='M1',),
                _F(INST=7.9199999999999999,
                   REFERENCE='ANALYTIQUE',
                   RESULTAT=LEDEP,
                   NOM_CHAM='SIEF_ELNO',
                   NOEUD='N1',
                   NOM_CMP='N',
                   VALE_CALC= 5.05145960E+04,
                   VALE_REFE=5.0514599999999999E4,
                   PRECISION=1.E-2,
                   MAILLE='M1',),
                _F(INST=17.0,
                   REFERENCE='ANALYTIQUE',
                   RESULTAT=LEDEP,
                   NOM_CHAM='SIEF_ELNO',
                   NOEUD='N1',
                   NOM_CMP='N',
                   VALE_CALC= 1.08235188E+05,
                   VALE_REFE=1.08235E5,
                   PRECISION=1.E-3,
                   MAILLE='M1',),
                _F(INST=19.0,
                   REFERENCE='ANALYTIQUE',
                   RESULTAT=LEDEP,
                   NOM_CHAM='SIEF_ELNO',
                   NOEUD='N1',
                   NOM_CMP='N',
                   VALE_CALC= 1.28549805E+05,
                   VALE_REFE=1.28550E5,
                   PRECISION=1.E-2,
                   MAILLE='M1',),
                _F(INST=20.0,
                   REFERENCE='ANALYTIQUE',
                   RESULTAT=LEDEP,
                   NOM_CHAM='SIEF_ELNO',
                   NOEUD='N1',
                   NOM_CMP='N',
                   VALE_CALC= 1.08872644E+05,
                   VALE_REFE=1.08873E5,
                   PRECISION=1.E-2,
                   MAILLE='M1',),
                _F(INST=21.0,
                   REFERENCE='ANALYTIQUE',
                   RESULTAT=LEDEP,
                   NOM_CHAM='SIEF_ELNO',
                   NOEUD='N1',
                   NOM_CMP='N',
                   VALE_CALC=-4.01589926E+04,
                   VALE_REFE=-4.0159E4,
                   PRECISION=1.E-2,
                   MAILLE='M1',),
                _F(INST=22.0,
                   REFERENCE='ANALYTIQUE',
                   RESULTAT=LEDEP,
                   NOM_CHAM='SIEF_ELNO',
                   NOEUD='N1',
                   NOM_CMP='N',
                   VALE_CALC=-6.42435504E+04,
                   VALE_REFE=-6.4243599999999999E4,
                   PRECISION=1.E-2,
                   MAILLE='M1',),
                _F(INST=25.0,
                   REFERENCE='ANALYTIQUE',
                   RESULTAT=LEDEP,
                   NOM_CHAM='SIEF_ELNO',
                   NOEUD='N1',
                   NOM_CMP='N',
                   VALE_CALC= 1.02166163E+05,
                   VALE_REFE=1.02166E5,
                   PRECISION=1.E-2,
                   MAILLE='M1',),
                _F(INST=50.0,
                   REFERENCE='ANALYTIQUE',
                   RESULTAT=LEDEP,
                   NOM_CHAM='SIEF_ELNO',
                   NOEUD='N1',
                   NOM_CMP='N',
                   VALE_CALC= 1.48845470E+05,
                   VALE_REFE=1.48845E5,
                   PRECISION=1.E-2,
                   MAILLE='M1',),
                ),
          )

TEST_RESU(RESU=(_F(INST=1.E-3,
                   REFERENCE='ANALYTIQUE',
                   RESULTAT=LEDEP,
                   NOM_CHAM='DEPL',
                   NOEUD='N1',
                   NOM_CMP='DY',
                   VALE_CALC= 1.00000000E-03,
                   VALE_REFE=1.E-3,
                   PRECISION=1.E-2,),
                _F(INST=2.3E-3,
                   REFERENCE='ANALYTIQUE',
                   RESULTAT=LEDEP,
                   NOM_CHAM='DEPL',
                   NOEUD='N1',
                   NOM_CMP='DY',
                   VALE_CALC= 2.30000000E-03,
                   VALE_REFE=2.3E-3,
                   PRECISION=1.E-2,),
                _F(INST=0.029999999999999999,
                   REFERENCE='ANALYTIQUE',
                   RESULTAT=LEDEP,
                   NOM_CHAM='DEPL',
                   NOEUD='N1',
                   NOM_CMP='DY',
                   VALE_CALC=0.030000000,
                   VALE_REFE=0.029999999999999999,
                   PRECISION=1.E-2,),
                _F(INST=0.20000000000000001,
                   REFERENCE='ANALYTIQUE',
                   RESULTAT=LEDEP,
                   NOM_CHAM='DEPL',
                   NOEUD='N1',
                   NOM_CMP='DY',
                   VALE_CALC=0.029666667,
                   VALE_REFE=0.029666700000000001,
                   PRECISION=1.E-2,),
                _F(INST=0.40000000000000002,
                   REFERENCE='ANALYTIQUE',
                   RESULTAT=LEDEP,
                   NOM_CHAM='DEPL',
                   NOEUD='N1',
                   NOM_CMP='DY',
                   VALE_CALC=0.020000000,
                   VALE_REFE=0.02,
                   PRECISION=1.E-2,),
                _F(INST=6.4000000000000004,
                   REFERENCE='ANALYTIQUE',
                   RESULTAT=LEDEP,
                   NOM_CHAM='DEPL',
                   NOEUD='N1',
                   NOM_CMP='DY',
                   VALE_CALC=-0.040000000,
                   VALE_REFE=-0.040000000000000001,
                   PRECISION=1.E-2,),
                _F(INST=7.9199999999999999,
                   REFERENCE='ANALYTIQUE',
                   RESULTAT=LEDEP,
                   NOM_CHAM='DEPL',
                   NOEUD='N1',
                   NOM_CMP='DY',
                   VALE_CALC=-0.033000000,
                   VALE_REFE=-0.033000000000000002,
                   PRECISION=1.E-2,),
                _F(INST=17.0,
                   REFERENCE='ANALYTIQUE',
                   RESULTAT=LEDEP,
                   NOM_CHAM='DEPL',
                   NOEUD='N1',
                   NOM_CMP='DY',
                   VALE_CALC=0.010000000,
                   VALE_REFE=1.E-2,
                   PRECISION=1.E-3,),
                _F(INST=19.0,
                   REFERENCE='ANALYTIQUE',
                   RESULTAT=LEDEP,
                   NOM_CHAM='DEPL',
                   NOEUD='N1',
                   NOM_CMP='DY',
                   VALE_CALC=0.030000000,
                   VALE_REFE=0.029999999999999999,
                   PRECISION=1.E-2,),
                _F(INST=20.0,
                   REFERENCE='ANALYTIQUE',
                   RESULTAT=LEDEP,
                   NOM_CHAM='DEPL',
                   NOEUD='N1',
                   NOM_CMP='DY',
                   VALE_CALC=0.029800000,
                   VALE_REFE=0.0298,
                   PRECISION=1.E-2,),
                _F(INST=21.0,
                   REFERENCE='ANALYTIQUE',
                   RESULTAT=LEDEP,
                   NOM_CHAM='DEPL',
                   NOEUD='N1',
                   NOM_CMP='DY',
                   VALE_CALC=0.026000000,
                   VALE_REFE=0.025999999999999999,
                   PRECISION=1.E-2,),
                _F(INST=22.0,
                   REFERENCE='ANALYTIQUE',
                   RESULTAT=LEDEP,
                   NOM_CHAM='DEPL',
                   NOEUD='N1',
                   NOM_CMP='DY',
                   VALE_CALC=0.022000000,
                   VALE_REFE=0.021999999999999999,
                   PRECISION=1.E-2,),
                _F(INST=25.0,
                   REFERENCE='ANALYTIQUE',
                   RESULTAT=LEDEP,
                   NOM_CHAM='DEPL',
                   NOEUD='N1',
                   NOM_CMP='DY',
                   VALE_CALC=0.025000000,
                   VALE_REFE=0.025000000000000001,
                   PRECISION=1.E-2,),
                _F(INST=50.0,
                   REFERENCE='ANALYTIQUE',
                   RESULTAT=LEDEP,
                   NOM_CHAM='DEPL',
                   NOEUD='N1',
                   NOM_CMP='DY',
                   VALE_CALC=0.050000000,
                   VALE_REFE=0.050000000000000003,
                   PRECISION=1.E-2,),
                ),
          )

FIN( )
#
