# TITRE  POUTRE EULER_BERNOULLI MULTIFIBRES (STATIQUE NON-LINEAIRE LABORDERIE)
# ======================================================================
# COPYRIGHT (C) 1991 - 2013  EDF R&D                  WWW.CODE-ASTER.ORG
# THIS PROGRAM IS FREE SOFTWARE; YOU CAN REDISTRIBUTE IT AND/OR MODIFY
# IT UNDER THE TERMS OF THE GNU GENERAL PUBLIC LICENSE AS PUBLISHED BY
# THE FREE SOFTWARE FOUNDATION; EITHER VERSION 2 OF THE LICENSE, OR
# (AT YOUR OPTION) ANY LATER VERSION.
#
# THIS PROGRAM IS DISTRIBUTED IN THE HOPE THAT IT WILL BE USEFUL, BUT
# WITHOUT ANY WARRANTY; WITHOUT EVEN THE IMPLIED WARRANTY OF
# MERCHANTABILITY OR FITNESS FOR A PARTICULAR PURPOSE. SEE THE GNU
# GENERAL PUBLIC LICENSE FOR MORE DETAILS.
#
# YOU SHOULD HAVE RECEIVED A COPY OF THE GNU GENERAL PUBLIC LICENSE
# ALONG WITH THIS PROGRAM; IF NOT, WRITE TO EDF R&D CODE_ASTER,
#    1 AVENUE DU GENERAL DE GAULLE, 92141 CLAMART CEDEX, FRANCE.
# ======================================================================
DEBUT(CODE=_F(NOM='SSNL120A', NIV_PUB_WEB='INTERNET'), DEBUG=_F(SDVERI='NON'))

# lecture maillage lineique
POUT=LIRE_MAILLAGE(UNITE=17,FORMAT='MED',);

# lecture maillage section1
MASEC=LIRE_MAILLAGE(UNITE=18,FORMAT='MED',);

MOPOU=AFFE_MODELE(MAILLAGE=POUT,
                  AFFE=_F(TOUT='OUI', PHENOMENE='MECANIQUE', MODELISATION='POU_D_EM',),);

GF=DEFI_GEOM_FIBRE(
           SECTION = _F ( GROUP_FIBRE='SECF',
                            MAILLAGE_SECT = MASEC , TOUT_SECT = 'OUI',
                            COOR_AXE_POUTRE = (0.5, 0.5,)),
            )

BETON=DEFI_MATERIAU(ELAS=_F(E=3.7272000000E10, NU=0.0,  RHO=2400.0,),
     LABORD_1D=_F(Y01 = 310. , Y02 = 0.070E+5, A1  = 9.E-3 ,  A2  = .52E-5 ,
                         B1  = 1.2 ,  B2  = 2. , BETA1  = .1E+7 ,  BETA2  =  -.4E+8, SIGF = 3.5E+6))

COMPF=DEFI_COMPOR(GEOM_FIBRE=GF,MATER_SECT=BETON,
                  MULTIFIBRE=(_F(GROUP_FIBRE='SECF',MATER=BETON, RELATION='LABORD_1D'),))

CHMAT=AFFE_MATERIAU(MAILLAGE=POUT,
                    AFFE=(_F(GROUP_MA='POUTRE', MATER=BETON),),
                    AFFE_COMPOR=_F(TOUT='OUI',COMPOR=COMPF));



POUCA=AFFE_CARA_ELEM(MODELE=MOPOU,            INFO=1,
POUTRE=_F(GROUP_MA=('POUTRE'),
         SECTION='RECTANGLE',
         CARA=('H'),
         VALE=(1.)),
ORIENTATION=_F(GROUP_MA=('POUTRE'),
               CARA='ANGL_VRIL',
               VALE=0.,),
GEOM_FIBRE=GF,
MULTIFIBRE=_F(GROUP_MA='POUTRE', PREC_AIRE=1.0E-05, PREC_INERTIE=2.6E-01, GROUP_FIBRE='SECF'),
);


BLOCAGE=AFFE_CHAR_MECA(MODELE=MOPOU,
                       DDL_IMPO=(_F(GROUP_NO='A', DX=0.0, DY=0.0, DZ=0.0, DRX=0.0, DRY=0.0, DRZ=0.0,),
                                 _F(GROUP_NO='B', DY=0.0, DZ=0.0, DRX=0.0, DRY=0.0, DRZ=0.0,),
                                  ),);


DEPLAC=AFFE_CHAR_MECA(MODELE=MOPOU,
                      DDL_IMPO=_F(GROUP_NO='B', DX=1.E-4,),);


FOFO=DEFI_FONCTION(NOM_PARA='INST',
                   VALE=(0.0,0.0,1.0,1.4,2.0,0.5,3.0,10.,4.0,-40.0,5.0,-20.0,6.0,-50.0,7.0,0.0,),
                   PROL_DROITE='EXCLU',
                   PROL_GAUCHE='EXCLU',);


LINST=DEFI_LIST_REEL(DEBUT=0.0,
INTERVALLE=(_F(JUSQU_A=1.0,  NOMBRE=50,),
            _F(JUSQU_A=2.0,  NOMBRE=50,),
            _F(JUSQU_A=3.0,  NOMBRE=50,),
            _F(JUSQU_A=4.0,  NOMBRE=50,),
            _F(JUSQU_A=5.0,  NOMBRE=50,),
            _F(JUSQU_A=6.0,  NOMBRE=50,),
            _F(JUSQU_A=7.0,  NOMBRE=50,),
),
            );


U1=STAT_NON_LINE(MODELE=MOPOU,
                 CHAM_MATER=CHMAT,
                 CARA_ELEM=POUCA,
                 EXCIT=(_F(CHARGE=BLOCAGE,),
                        _F(CHARGE=DEPLAC,
                           FONC_MULT=FOFO,),),
                 COMP_INCR=(_F(RELATION='MULTIFIBRE',
                               TOUT='OUI',),),
                 INCREMENT=_F(LIST_INST=LINST,
              #                NUME_INST_FIN=178,
                              ),
                 NEWTON=_F(MATRICE='ELASTIQUE'),
               #  NEWTON=_F(MATRICE='TANGENTE',REAC_ITER=1),
                 );


U1=CALC_CHAMP(FORCE='REAC_NODA', reuse =U1, RESULTAT=U1,)
U1=CALC_CHAMP(DEFORMATION=('DEGE_ELNO'),reuse =U1,RESULTAT=U1,)

#test de quelques resultats

TEST_RESU(RESU=(_F(NUME_ORDRE=50,
                   POINT=1,
                   SOUS_POINT=1,
                   RESULTAT=U1,
                   NOM_CHAM='SIEF_ELGA',
                   NOM_CMP='SIXX',
                   VALE_CALC=1.7078117479656E+06,
                   VALE_REFE=1.707816E6,
                   REFERENCE = 'SOURCE_EXTERNE',
                   PRECISION=1.0E-05,
                   MAILLE='M1',),
                _F(NUME_ORDRE=100,
                   POINT=1,
                   SOUS_POINT=1,
                   RESULTAT=U1,
                   NOM_CHAM='SIEF_ELGA',
                   NOM_CMP='SIXX',
                   VALE_CALC=2.4702315207816E+05,
                   VALE_REFE=2.47022E5,
                   REFERENCE = 'SOURCE_EXTERNE',
                   PRECISION=1.0E-05,
                   MAILLE='M1',),
                _F(NUME_ORDRE=100,
                   POINT=1,
                   SOUS_POINT=1,
                   RESULTAT=U1,
                   NOM_CHAM='VARI_ELGA',
                   NOM_CMP='V3',
                   VALE_CALC=447.94067779005,
                   VALE_REFE=448.0,
                   REFERENCE = 'SOURCE_EXTERNE',
                   PRECISION=1.E-3,
                   MAILLE='M1',),
                _F(NUME_ORDRE=100,
                   POINT=1,
                   SOUS_POINT=1,
                   RESULTAT=U1,
                   NOM_CHAM='VARI_ELGA',
                   NOM_CMP='V4',
                   VALE_CALC=0.0E+00,
                   VALE_REFE=0.0,
                   REFERENCE = 'SOURCE_EXTERNE',
                   PRECISION=1.0E-05,
                   CRITERE='ABSOLU',
                   MAILLE='M1',),
                _F(NUME_ORDRE=300,
                   POINT=1,
                   SOUS_POINT=1,
                   RESULTAT=U1,
                   NOM_CHAM='VARI_ELGA',
                   NOM_CMP='V3',
                   VALE_CALC=2450.2890943339,
                   VALE_REFE=2450.0,
                   REFERENCE = 'SOURCE_EXTERNE',
                   PRECISION=1.E-3,
                   MAILLE='M1',),
                _F(NUME_ORDRE=150,
                   POINT=1,
                   SOUS_POINT=1,
                   RESULTAT=U1,
                   NOM_CHAM='SIEF_ELGA',
                   NOM_CMP='SIXX',
                   VALE_CALC=68861.995628681,
                   VALE_REFE=6.8861800000000003E4,
                   REFERENCE = 'SOURCE_EXTERNE',
                   PRECISION=1.0E-05,
                   MAILLE='M1',),
                _F(NUME_ORDRE=200,
                   POINT=1,
                   SOUS_POINT=1,
                   RESULTAT=U1,
                   NOM_CHAM='SIEF_ELGA',
                   NOM_CMP='SIXX',
                   VALE_CALC=-2.2240426976505E+07,
                   VALE_REFE=-2.2240400E7,
                   REFERENCE = 'SOURCE_EXTERNE',
                   PRECISION=1.0E-05,
                   MAILLE='M1',),
                _F(NUME_ORDRE=250,
                   POINT=1,
                   SOUS_POINT=1,
                   RESULTAT=U1,
                   NOM_CHAM='SIEF_ELGA',
                   NOM_CMP='SIXX',
                   VALE_CALC=-2.1435697155993E+06,
                   VALE_REFE=-2.143560E6,
                   REFERENCE = 'SOURCE_EXTERNE',
                   PRECISION=1.0E-05,
                   TOLE_MACHINE=2.0E-6,                    # TODO TOLE_MACHINE
                   MAILLE='M1',),
                _F(NUME_ORDRE=37,
                   POINT=1,
                   SOUS_POINT=1,
                   RESULTAT=U1,
                   NOM_CHAM='SIEF_ELGA',
                   NOM_CMP='SIXX',
                   VALE_CALC=3.8613792E+06,
                   VALE_REFE=3.861380E6,
                   REFERENCE = 'SOURCE_EXTERNE',
                   PRECISION=1.0E-05,
                   MAILLE='M1',),
                _F(NUME_ORDRE=37,
                   RESULTAT=U1,
                   NOM_CHAM='DEGE_ELNO',
                   NOEUD='N1',
                   NOM_CMP='EPXX',
                   VALE_CALC=1.036E-04,
                   VALE_REFE=1.036E-4,
                   REFERENCE = 'SOURCE_EXTERNE',
                   PRECISION=1.0E-05,
                   MAILLE='M1',),
                _F(NUME_ORDRE=178,
                   POINT=1,
                   SOUS_POINT=1,
                   RESULTAT=U1,
                   NOM_CHAM='SIEF_ELGA',
                   NOM_CMP='SIXX',
                   VALE_CALC=-4.0949550670551E+07,
                   VALE_REFE=-4.0949600E7,
                   REFERENCE = 'SOURCE_EXTERNE',
                   PRECISION=1.0E-05,
                   MAILLE='M1',),
                _F(NUME_ORDRE=178,
                   RESULTAT=U1,
                   NOM_CHAM='DEGE_ELNO',
                   NOEUD='N1',
                   NOM_CMP='EPXX',
                   VALE_CALC=-1.8E-03,
                   VALE_REFE=-1.8E-3,
                   REFERENCE = 'SOURCE_EXTERNE',
                   PRECISION=1.0E-05,
                   MAILLE='M1',),
                ),
          )

FIN()
