# MODIF  DATE 14/11/2011   AUTEUR CHEIGNON E.CHEIGNON 
# TITRE  POUTRE EULER_BERNOULLI MULTIFIBRES (STATIQUE NON-LINEAIRE)
# ssnl119a.para = tps_job 480 mem_job 32Mo ncpus 1 liste_test S
#            CONFIGURATION MANAGEMENT OF EDF VERSION
# ======================================================================
# COPYRIGHT (C) 1991 - 2011  EDF R&D                  WWW.CODE-ASTER.ORG
# THIS PROGRAM IS FREE SOFTWARE; YOU CAN REDISTRIBUTE IT AND/OR MODIFY
# IT UNDER THE TERMS OF THE GNU GENERAL PUBLIC LICENSE AS PUBLISHED BY
# THE FREE SOFTWARE FOUNDATION; EITHER VERSION 2 OF THE LICENSE, OR
# (AT YOUR OPTION) ANY LATER VERSION.
#
# THIS PROGRAM IS DISTRIBUTED IN THE HOPE THAT IT WILL BE USEFUL, BUT
# WITHOUT ANY WARRANTY; WITHOUT EVEN THE IMPLIED WARRANTY OF
# MERCHANTABILITY OR FITNESS FOR A PARTICULAR PURPOSE. SEE THE GNU
# GENERAL PUBLIC LICENSE FOR MORE DETAILS.
#
# YOU SHOULD HAVE RECEIVED A COPY OF THE GNU GENERAL PUBLIC LICENSE
# ALONG WITH THIS PROGRAM; IF NOT, WRITE TO EDF R&D CODE_ASTER,
#    1 AVENUE DU GENERAL DE GAULLE, 92141 CLAMART CEDEX, FRANCE.
# ======================================================================

DEBUT(CODE=_F( NOM = 'SSNL119A',NIV_PUB_WEB='INTERNET'))

# lecture maillage lineique
MAPOU=LIRE_MAILLAGE(UNITE=17,FORMAT='MED',);

# lecture maillage section1
MASEC=LIRE_MAILLAGE(UNITE=18,FORMAT='MED',);


GF=DEFI_GEOM_FIBRE(INFO=2,

                    FIBRE = (_F(GROUP_FIBRE='SACI',
                            CARA = 'DIAMETRE',
                            COOR_AXE_POUTRE = (0.,0.,),
                            VALE =( 0.066, -0.218, 32.E-3,
                                   -0.066, -0.218, 32.E-3,
                                    0.066, 0.218, 8.E-3,
                                   -0.066, 0.218,8.E-3,),),
                                   ),
                   SECTION = _F( GROUP_FIBRE='SBET',
                           MAILLAGE_SECT = MASEC, TOUT_SECT = 'OUI',
                           COOR_AXE_POUTRE = (0., 0.,),),
                     )


MOPOU=AFFE_MODELE(MAILLAGE=MAPOU,
                  AFFE=_F(TOUT='OUI', PHENOMENE='MECANIQUE', MODELISATION='POU_D_EM',),);


BETON=DEFI_MATERIAU(ELAS=_F(E=3.7272000000E10, NU=0.0,  RHO=2400.0,),
     LABORD_1D=_F(Y01 = 310. , Y02 = 0.070E+5, A1  = 9.E-3 ,  A2  = .52E-5 ,
                         B1  = 1.2 ,  B2  = 2. , BETA1  = .1E+7 ,  BETA2  =  -.4E+8, SIGF = 3.5E+6))

ACIER=DEFI_MATERIAU(ELAS=_F(E=2.E11,  NU=0.0, RHO=7800.0,),
                    ECRO_LINE=_F(D_SIGM_EPSI=3.28E9, SY=4.E8,),);
MATOR=DEFI_MATERIAU(ELAS=_F(E=2.E11,  NU=0.0, RHO=7800.0,),
                    );



POUCA=AFFE_CARA_ELEM(MODELE=MOPOU, INFO=1,
           POUTRE=_F(GROUP_MA=('POUTRE'),
                     SECTION='RECTANGLE',
                     CARA=('HY','HZ'),
                     VALE=(0.2,0.5),
                     PREC_AIRE=5.,
                     PREC_INERTIE=10.,
                     ),
           ORIENTATION=_F(GROUP_MA=('POUTRE'),
                          CARA='ANGL_VRIL',
                          VALE=-90.0,),
           GEOM_FIBRE=GF,
           MULTIFIBRE=(_F(GROUP_MA=('POUTRE'),
                         GROUP_FIBRE=('SBET','SACI')),
                       )
                  );

COMPPMF=DEFI_COMPOR(GEOM_FIBRE=GF,
                    MATER_SECT=MATOR,
                     MULTIFIBRE=(
                                 _F(GROUP_FIBRE='SACI',
                                    MATER=ACIER,
                                    RELATION='VMIS_CINE_LINE'),
                                 _F(GROUP_FIBRE='SBET',
                                    MATER=BETON,
                                    RELATION='LABORD_1D'),
                                  ),
                      )

CHMAT=AFFE_MATERIAU(MAILLAGE=MAPOU,
                    AFFE=_F(GROUP_MA='POUTRE', MATER=(ACIER,BETON,MATOR),),
                    AFFE_COMPOR=_F(GROUP_MA='POUTRE',COMPOR=COMPPMF),
                          );

BLOCAGE=AFFE_CHAR_MECA(MODELE=MOPOU,
                       DDL_IMPO=(_F(GROUP_NO='A', DX=0.0, DY=0.0, DZ=0.0, DRX=0.0, DRY=0.0,),
                                 _F(GROUP_NO='B', DY=0.0,),
                                 ),);


DEPIMP=AFFE_CHAR_MECA(MODELE=MOPOU,
                      DDL_IMPO=_F(GROUP_NO='C', DY=-1.E-2,),);


FOFO=DEFI_FONCTION(NOM_PARA='INST',
                   VALE=(0.0,0.0,3.5,3.5),
                   PROL_DROITE='EXCLU',
                   PROL_GAUCHE='EXCLU',);


LINST=DEFI_LIST_REEL(DEBUT=0.0,
INTERVALLE=(_F(JUSQU_A=0.1,  NOMBRE=2,),
            _F(JUSQU_A=1.4,  NOMBRE=10,),
            _F(JUSQU_A=3. ,  NOMBRE=10,),
),
            );

U1=STAT_NON_LINE(MODELE=MOPOU,
                 CHAM_MATER=CHMAT,
                 CARA_ELEM=POUCA,
                 EXCIT=(_F(CHARGE=BLOCAGE,),
                        _F(CHARGE=DEPIMP,
                           FONC_MULT=FOFO,),),
                 COMP_INCR=(_F(RELATION='MULTIFIBRE'),
                               ),
                 INCREMENT=_F(LIST_INST=LINST,
                              ),
                 NEWTON=_F(MATRICE='TANGENTE',REAC_ITER=1),
                 CONVERGENCE=_F(RESI_GLOB_RELA=1.E-5,
                                ITER_GLOB_MAXI=250,),
                 );


U1=CALC_NO(OPTION='REAC_NODA', reuse =U1, RESULTAT=U1, );

#IMPR_RESU(RESU=(_F(RESULTAT=U1,NOM_CHAM='REAC_NODA',GROUP_NO = 'A',NOM_CMP='DY'),
#                _F(RESULTAT=U1,NOM_CHAM='SIEF_ELGA',MAILLE='M9',NOM_CMP='SIXX'),
#                ))
U1=CALC_CHAMP(  DEFORMATION=('EPSI_ELGA'), reuse =U1,RESULTAT=U1, );

# Instants
Temps = [  0.100    ,  1.400    ,  2.680    ]
# reactions
React = [  1.7786E+04 ,   1.097E+05 ,   1.2003E+05 ]
# contraintes acier tendu
Aciet = [  1.886E+07  ,   4.001E+08 ,   4.31E+08   ]
# Deformations acier tendu
Eacit = [  9.432E-05  ,   2.026E-03 ,   1.146E-02  ]
# contraintes acier comprime
Aciec = [ -2.189E+07  ,  -1.811E+08 ,  -4.021E+08  ]
# contraintes beton comprime
Betoc = [ -4.418E+06  ,  -3.338E+07 ,  -2.848E+07  ]
# contraintes beton tendu
Betot = [  3.855E+06  ,   2.641E+04 ,   3.366E+03  ]

TEST_RESU(RESU=(
   # Reactions
   _F(RESULTAT=U1, INST=Temps[0], NOM_CHAM='REAC_NODA',         GROUP_NO = 'A', NOM_CMP='DY', VALE=React[0],
      REFERENCE='SOURCE_EXTERNE', CRITERE=('RELATIF','ABSOLU'), PRECISION=(5.E-5,1.0E-5), ),
   _F(RESULTAT=U1, INST=Temps[1], NOM_CHAM='REAC_NODA',         GROUP_NO = 'A', NOM_CMP='DY', VALE=React[1],
      REFERENCE='SOURCE_EXTERNE', CRITERE=('RELATIF','ABSOLU'), PRECISION=(3.E-4,1.0E-5), ),
   _F(RESULTAT=U1, INST=Temps[2], NOM_CHAM='REAC_NODA',         GROUP_NO = 'A', NOM_CMP='DY', VALE=React[2],
      REFERENCE='SOURCE_EXTERNE', CRITERE=('RELATIF','ABSOLU'), PRECISION=(6.E-5,1.0E-5), ),
   # Contraintes acier tendu
   _F(RESULTAT=U1, INST=Temps[0], NOM_CHAM='SIEF_ELGA',         MAILLE='M9', POINT=1, SOUS_POINT=41, NOM_CMP='SIXX', VALE=Aciet[0],
      REFERENCE='SOURCE_EXTERNE', CRITERE=('RELATIF','ABSOLU'), PRECISION=(4.E-4,1.0E-5), ),
   _F(RESULTAT=U1, INST=Temps[1], NOM_CHAM='SIEF_ELGA',         MAILLE='M9', POINT=1, SOUS_POINT=41, NOM_CMP='SIXX', VALE=Aciet[1],
      REFERENCE='SOURCE_EXTERNE', CRITERE=('RELATIF','ABSOLU'), PRECISION=(3.E-4,1.0E-5), ),
   _F(RESULTAT=U1, INST=Temps[2], NOM_CHAM='SIEF_ELGA',         MAILLE='M9', POINT=1, SOUS_POINT=41, NOM_CMP='SIXX', VALE=Aciet[2],
      REFERENCE='SOURCE_EXTERNE', CRITERE=('RELATIF','ABSOLU'), PRECISION=(2.E-2,1.0E-5)),
   # Contraintes acier comprime
   _F(RESULTAT=U1, INST=Temps[0], NOM_CHAM='SIEF_ELGA',         MAILLE='M9', POINT=1, SOUS_POINT=44, NOM_CMP='SIXX', VALE=Aciec[0],
      REFERENCE='SOURCE_EXTERNE', CRITERE=('RELATIF','ABSOLU'), PRECISION=(4.E-4,1.0E-5), ),
   _F(RESULTAT=U1, INST=Temps[1], NOM_CHAM='SIEF_ELGA',         MAILLE='M9', POINT=1, SOUS_POINT=44, NOM_CMP='SIXX', VALE=Aciec[1],
      REFERENCE='SOURCE_EXTERNE', CRITERE=('RELATIF','ABSOLU'), PRECISION=(1.E-3,1.0E-5), ),
   _F(RESULTAT=U1, INST=Temps[2], NOM_CHAM='SIEF_ELGA',         MAILLE='M9', POINT=1, SOUS_POINT=44, NOM_CMP='SIXX', VALE=Aciec[2],
      REFERENCE='SOURCE_EXTERNE', CRITERE=('RELATIF','ABSOLU'), PRECISION=(3.E-3,1.0E-5), ),
   # Deformations acier tendu
   _F(RESULTAT=U1, INST=Temps[0], NOM_CHAM='EPSI_ELGA',         MAILLE='M9', POINT=1, SOUS_POINT=41, NOM_CMP='EPXX', VALE=Eacit[0],
      REFERENCE='SOURCE_EXTERNE', CRITERE=('RELATIF','ABSOLU'), PRECISION=(3.5E-3,1.0E-05), ),
   _F(RESULTAT=U1, INST=Temps[1], NOM_CHAM='EPSI_ELGA',         MAILLE='M9', POINT=1, SOUS_POINT=41, NOM_CMP='EPXX', VALE=Eacit[1],
      REFERENCE='SOURCE_EXTERNE', CRITERE=('RELATIF','ABSOLU'), PRECISION=(5.00E-4,1.0E-05), ),
   _F(RESULTAT=U1, INST=Temps[2], NOM_CHAM='EPSI_ELGA',         MAILLE='M9', POINT=1, SOUS_POINT=41, NOM_CMP='EPXX', VALE=Eacit[2],
      REFERENCE='SOURCE_EXTERNE', CRITERE=('RELATIF','ABSOLU'), PRECISION=(6.5E-2,1.0E-05), ),
   # Contraintes beton comprime
   _F(RESULTAT=U1, INST=Temps[0], NOM_CHAM='SIEF_ELGA',         MAILLE='M9', POINT=1, SOUS_POINT=1,  NOM_CMP='SIXX', VALE=Betoc[0],
      REFERENCE='SOURCE_EXTERNE', CRITERE=('RELATIF','ABSOLU'), PRECISION=(1.0E-4,1.0E-5), ),
   _F(RESULTAT=U1, INST=Temps[1], NOM_CHAM='SIEF_ELGA',         MAILLE='M9', POINT=1, SOUS_POINT=1,  NOM_CMP='SIXX', VALE=Betoc[1],
      REFERENCE='SOURCE_EXTERNE', CRITERE=('RELATIF','ABSOLU'), PRECISION=(5.0E-2,1.0E-5), ),
   _F(RESULTAT=U1, INST=Temps[2], NOM_CHAM='SIEF_ELGA',         MAILLE='M9', POINT=1, SOUS_POINT=1,  NOM_CMP='SIXX', VALE=Betoc[2],
      REFERENCE='SOURCE_EXTERNE', CRITERE=('RELATIF','ABSOLU'), PRECISION=(1.0E-1,1.0E-5), ),
   # Contraintes beton tendu
   _F(RESULTAT=U1, INST=Temps[0], NOM_CHAM='SIEF_ELGA',         MAILLE='M9', POINT=1, SOUS_POINT=40, NOM_CMP='SIXX', VALE=Betot[0],
      REFERENCE='SOURCE_EXTERNE', CRITERE=('RELATIF','ABSOLU'), PRECISION=(1.0E-4,1.0E-5), ),
   _F(RESULTAT=U1, INST=Temps[1], NOM_CHAM='SIEF_ELGA',         MAILLE='M9', POINT=1, SOUS_POINT=40, NOM_CMP='SIXX', VALE=Betot[1],
      REFERENCE='SOURCE_EXTERNE', CRITERE=('RELATIF','ABSOLU'), PRECISION=(2.0E-2,1.0E-5), ),
   _F(RESULTAT=U1, INST=Temps[2], NOM_CHAM='SIEF_ELGA',         MAILLE='M9', POINT=1, SOUS_POINT=40, NOM_CMP='SIXX', VALE=Betot[2],
      REFERENCE='SOURCE_EXTERNE', CRITERE=('RELATIF','ABSOLU'), PRECISION=(13.0E-2,1.0E-5), ),
   )
)


# **************************************************************
#
#              Methode de subdivision (celle par defaut)
#                 EXTRAPOLE,  OPTION = 'IGNORE_PREMIERES'
#
# **************************************************************

LINSTD=DEFI_LIST_REEL(DEBUT=0.0,
   INTERVALLE=(_F(JUSQU_A= 0.100,  NOMBRE=2,),
               _F(JUSQU_A= 1.400,  NOMBRE=2,),
               _F(JUSQU_A= 2.680,  NOMBRE=10,),
              ),)

LINST3 = DEFI_LIST_INST(
   DEFI_LIST=_F(
      METHODE   = 'MANUEL',
      LIST_INST =  LINSTD,
   ),
   ECHEC=_F(
      EVENEMENT       = 'ERREUR',
      ACTION          = 'ITER_SUPPL',
      SUBD_PAS_MINI   = 0.10E-10,
      SUBD_NIVEAU     = 50,
      PCENT_ITER_PLUS = 100,
   ),
)

U3=STAT_NON_LINE(
   MODELE=MOPOU,
   CHAM_MATER=CHMAT,
   CARA_ELEM=POUCA,
   EXCIT=(
      _F(CHARGE=BLOCAGE,),
      _F(CHARGE=DEPIMP, FONC_MULT=FOFO,),),
   COMP_INCR=(
      _F(RELATION='MULTIFIBRE',      GROUP_MA='POUTRE',),
   ),
   INCREMENT= _F(LIST_INST=LINST3,),
   NEWTON=_F(MATRICE='TANGENTE', REAC_ITER=1),
   CONVERGENCE=_F( RESI_GLOB_RELA = 1.0E-6,ITER_GLOB_MAXI = 50,
   ),
)
U3=CALC_NO(  reuse= U3, RESULTAT= U3, OPTION='REAC_NODA', )
U3=CALC_CHAMP(reuse= U3, RESULTAT= U3,  DEFORMATION=('EPSI_ELGA'),)

TEST_RESU(RESU=(
   # Reactions
   _F(RESULTAT=U3, INST=Temps[0], NOM_CHAM='REAC_NODA',         GROUP_NO = 'A', NOM_CMP='DY', VALE=React[0],
      REFERENCE='SOURCE_EXTERNE', CRITERE=('RELATIF','ABSOLU'), PRECISION=(3.E-5,1.0E-5), ),
   _F(RESULTAT=U3, INST=Temps[1], NOM_CHAM='REAC_NODA',         GROUP_NO = 'A', NOM_CMP='DY', VALE=React[1],
      REFERENCE='SOURCE_EXTERNE', CRITERE=('RELATIF','ABSOLU'), PRECISION=(0.5E-3,1.0E-5), ),
   _F(RESULTAT=U3, INST=Temps[2], NOM_CHAM='REAC_NODA',         GROUP_NO = 'A', NOM_CMP='DY', VALE=React[2],
      REFERENCE='SOURCE_EXTERNE', CRITERE=('RELATIF','ABSOLU'), PRECISION=(1.E-4,1.0E-5), ),
   # Contraintes acier tendu
   _F(RESULTAT=U3, INST=Temps[0], NOM_CHAM='SIEF_ELGA',         MAILLE='M9', POINT=1, SOUS_POINT=41, NOM_CMP='SIXX', VALE=Aciet[0],
      REFERENCE='SOURCE_EXTERNE', CRITERE=('RELATIF','ABSOLU'), PRECISION=(5.E-4,1.0E-5), ),
   _F(RESULTAT=U3, INST=Temps[1], NOM_CHAM='SIEF_ELGA',         MAILLE='M9', POINT=1, SOUS_POINT=41, NOM_CMP='SIXX', VALE=Aciet[1],
      REFERENCE='SOURCE_EXTERNE', CRITERE=('RELATIF','ABSOLU'), PRECISION=(5.E-4,1.0E-5), ),
   _F(RESULTAT=U3, INST=Temps[2], NOM_CHAM='SIEF_ELGA',         MAILLE='M9', POINT=1, SOUS_POINT=41, NOM_CMP='SIXX', VALE=Aciet[2],
      REFERENCE='SOURCE_EXTERNE', CRITERE=('RELATIF','ABSOLU'), PRECISION=(2.E-2,1.0E-5)),
   # Contraintes acier comprime
   _F(RESULTAT=U3, INST=Temps[0], NOM_CHAM='SIEF_ELGA',         MAILLE='M9', POINT=1, SOUS_POINT=44, NOM_CMP='SIXX', VALE=Aciec[0],
      REFERENCE='SOURCE_EXTERNE', CRITERE=('RELATIF','ABSOLU'), PRECISION=(3.E-4,1.0E-5), ),
   _F(RESULTAT=U3, INST=Temps[1], NOM_CHAM='SIEF_ELGA',         MAILLE='M9', POINT=1, SOUS_POINT=44, NOM_CMP='SIXX', VALE=Aciec[1],
      REFERENCE='SOURCE_EXTERNE', CRITERE=('RELATIF','ABSOLU'), PRECISION=(1.E-3,1.0E-5), ),
   _F(RESULTAT=U3, INST=Temps[2], NOM_CHAM='SIEF_ELGA',         MAILLE='M9', POINT=1, SOUS_POINT=44, NOM_CMP='SIXX', VALE=Aciec[2],
      REFERENCE='SOURCE_EXTERNE', CRITERE=('RELATIF','ABSOLU'), PRECISION=(3.E-3,1.0E-5), ),
   # Deformations acier tendu
   _F(RESULTAT=U3, INST=Temps[0], NOM_CHAM='EPSI_ELGA',         MAILLE='M9', POINT=1, SOUS_POINT=41, NOM_CMP='EPXX', VALE=Eacit[0],
      REFERENCE='SOURCE_EXTERNE', CRITERE=('RELATIF','ABSOLU'), PRECISION=(3.5E-3,1.0E-05), ),
   _F(RESULTAT=U3, INST=Temps[1], NOM_CHAM='EPSI_ELGA',         MAILLE='M9', POINT=1, SOUS_POINT=41, NOM_CMP='EPXX', VALE=Eacit[1],
      REFERENCE='SOURCE_EXTERNE', CRITERE=('RELATIF','ABSOLU'), PRECISION=(5.00E-4,1.0E-05), ),
   _F(RESULTAT=U3, INST=Temps[2], NOM_CHAM='EPSI_ELGA',         MAILLE='M9', POINT=1, SOUS_POINT=41, NOM_CMP='EPXX', VALE=Eacit[2],
      REFERENCE='SOURCE_EXTERNE', CRITERE=('RELATIF','ABSOLU'), PRECISION=(6.5E-2,1.0E-05), ),
   # Contraintes beton comprime
   _F(RESULTAT=U3, INST=Temps[0], NOM_CHAM='SIEF_ELGA',         MAILLE='M9', POINT=1, SOUS_POINT=1,  NOM_CMP='SIXX', VALE=Betoc[0],
      REFERENCE='SOURCE_EXTERNE', CRITERE=('RELATIF','ABSOLU'), PRECISION=(6.0E-5,1.0E-5), ),
   _F(RESULTAT=U3, INST=Temps[1], NOM_CHAM='SIEF_ELGA',         MAILLE='M9', POINT=1, SOUS_POINT=1,  NOM_CMP='SIXX', VALE=Betoc[1],
      REFERENCE='SOURCE_EXTERNE', CRITERE=('RELATIF','ABSOLU'), PRECISION=(5.0E-3,1.0E-5), ),
   _F(RESULTAT=U3, INST=Temps[2], NOM_CHAM='SIEF_ELGA',         MAILLE='M9', POINT=1, SOUS_POINT=1,  NOM_CMP='SIXX', VALE=Betoc[2],
      REFERENCE='SOURCE_EXTERNE', CRITERE=('RELATIF','ABSOLU'), PRECISION=(1.0E-1,1.0E-5), ),
   # Contraintes beton tendu
   _F(RESULTAT=U3, INST=Temps[0], NOM_CHAM='SIEF_ELGA',         MAILLE='M9', POINT=1, SOUS_POINT=40, NOM_CMP='SIXX', VALE=Betot[0],
      REFERENCE='SOURCE_EXTERNE', CRITERE=('RELATIF','ABSOLU'), PRECISION=(1.0E-4,1.0E-5), ),
   _F(RESULTAT=U3, INST=Temps[1], NOM_CHAM='SIEF_ELGA',         MAILLE='M9', POINT=1, SOUS_POINT=40, NOM_CMP='SIXX', VALE=Betot[1],
      REFERENCE='SOURCE_EXTERNE', CRITERE=('RELATIF','ABSOLU'), PRECISION=(2.0E-2,1.0E-5), ),
   _F(RESULTAT=U3, INST=Temps[2], NOM_CHAM='SIEF_ELGA',         MAILLE='M9', POINT=1, SOUS_POINT=40, NOM_CMP='SIXX', VALE=Betot[2],
      REFERENCE='SOURCE_EXTERNE', CRITERE=('RELATIF','ABSOLU'), PRECISION=(13.0E-2,1.0E-5), ),
   )
)



"""
#####################################################################
# COURBES DES FIGURES DE LA DOCUMENTATION : EN COMMENTAIRE CI-DESSOUS
######################################################################
# reaction
DEP=RECU_FONCTION(RESULTAT=U1,
                  NOM_CHAM='DEPL',
                  NOM_CMP='DY',
                  GROUP_NO='C',
                  )

REA=RECU_FONCTION(RESULTAT=U1,
                  NOM_CHAM='REAC_NODA',
                  NOM_CMP='DY',
                  GROUP_NO='A',
                  )

IMPR_FONCTION(UNITE=30,FORMAT='XMGRACE',
              COURBE=_F(FONC_X=DEP,FONC_Y=REA))

# defo acier tendu
DEFAT=RECU_FONCTION(RESULTAT=U1,
                  NOM_CHAM='EPSI_ELGA_DEPL',
                  NOM_CMP='EPXX',
                  MAILLE='M9',
                  POINT=1,
                  SOUS_POINT=41
                  )

IMPR_FONCTION(UNITE=31,FORMAT='XMGRACE',
              COURBE=_F(FONC_X=DEP,FONC_Y=DEFAT))

# cont beton tendu
CONBT=RECU_FONCTION(RESULTAT=U1,
                  NOM_CHAM='SIEF_ELGA',
                  NOM_CMP='SIXX',
                  MAILLE='M9',
                  POINT=1,
                  SOUS_POINT=40
                  )

IMPR_FONCTION(UNITE=32,FORMAT='XMGRACE',
              COURBE=_F(FONC_X=DEP,FONC_Y=CONBT))

# cont beton comprime
CONBC=RECU_FONCTION(RESULTAT=U1,
                  NOM_CHAM='SIEF_ELGA',
                  NOM_CMP='SIXX',
                  MAILLE='M9',
                  POINT=1,
                  SOUS_POINT=1
                  )

IMPR_FONCTION(UNITE=33,FORMAT='XMGRACE',
              COURBE=_F(FONC_X=DEP,FONC_Y=CONBC))

# cont acier tendu
CONAT=RECU_FONCTION(RESULTAT=U1,
                  NOM_CHAM='SIEF_ELGA',
                  NOM_CMP='SIXX',
                  MAILLE='M9',
                  POINT=1,
                  SOUS_POINT=41
                  )

IMPR_FONCTION(UNITE=34,FORMAT='XMGRACE',
              COURBE=_F(FONC_X=DEP,FONC_Y=CONAT))

# cont acier comprime
CONAC=RECU_FONCTION(RESULTAT=U1,
                  NOM_CHAM='SIEF_ELGA',
                  NOM_CMP='SIXX',
                  MAILLE='M9',
                  POINT=1,
                  SOUS_POINT=44
                  )

IMPR_FONCTION(UNITE=35,FORMAT='XMGRACE',
              COURBE=_F(FONC_X=DEP,FONC_Y=CONAC))

DEPX=RECU_FONCTION(RESULTAT=U1,
                  NOM_CHAM='DEPL',
                  NOM_CMP='DX',
                  GROUP_NO='B',
                  )

IMPR_FONCTION(UNITE=36,FORMAT='XMGRACE',
              COURBE=_F(FONC_X=DEP,FONC_Y=DEPX))

"""
FIN()

