# TITRE ELEMENT DE BETON PRECONTRAINT EN COMPRESSION
# ======================================================================
# COPYRIGHT (C) 1991 - 2012  EDF R&D                  WWW.CODE-ASTER.ORG
# THIS PROGRAM IS FREE SOFTWARE; YOU CAN REDISTRIBUTE IT AND/OR MODIFY
# IT UNDER THE TERMS OF THE GNU GENERAL PUBLIC LICENSE AS PUBLISHED BY
# THE FREE SOFTWARE FOUNDATION; EITHER VERSION 2 OF THE LICENSE, OR
# (AT YOUR OPTION) ANY LATER VERSION.
#
# THIS PROGRAM IS DISTRIBUTED IN THE HOPE THAT IT WILL BE USEFUL, BUT
# WITHOUT ANY WARRANTY; WITHOUT EVEN THE IMPLIED WARRANTY OF
# MERCHANTABILITY OR FITNESS FOR A PARTICULAR PURPOSE. SEE THE GNU
# GENERAL PUBLIC LICENSE FOR MORE DETAILS.
#
# YOU SHOULD HAVE RECEIVED A COPY OF THE GNU GENERAL PUBLIC LICENSE
# ALONG WITH THIS PROGRAM; IF NOT, WRITE TO EDF R&D CODE_ASTER,
#    1 AVENUE DU GENERAL DE GAULLE, 92141 CLAMART CEDEX, FRANCE.
# ======================================================================
#-----------------------------------------------------------------------
#

DEBUT(   CODE=_F(  NOM = 'SSNP108A',NIV_PUB_WEB='INTERNET'),DEBUG=_F(SDVERI='OUI'))

#

MAILLAGE=LIRE_MAILLAGE(    UNITE=20 )

#

MODELE=AFFE_MODELE(
                 MAILLAGE=MAILLAGE,AFFE=(
                     _F(  GROUP_MA = 'VOILE',
                            PHENOMENE = 'MECANIQUE',
                            MODELISATION = 'DKT'),
                     _F(  GROUP_MA = 'CABLE001',
                            PHENOMENE = 'MECANIQUE',
                            MODELISATION = 'BARRE')) )

#

CARAELEM=AFFE_CARA_ELEM(
                      MODELE=MODELE,
                       COQUE=_F(  GROUP_MA = 'VOILE', COQUE_NCOU=5,
                               EPAIS = 6.0E-1),
                       BARRE=_F(  GROUP_MA = 'CABLE001',
                               SECTION = 'GENERALE',
                               CARA = ( 'A', ),
                               VALE = ( 1.5E-4, )) )

#

BETON=DEFI_MATERIAU(
                       ELAS=_F(  E = 3.0E+10,
                              NU = 0.),
                 BPEL_BETON=_F() )

#

ACIER=DEFI_MATERIAU(
                       ELAS=_F(  E = 2.1E+11,
                              NU = 0.),
                 BPEL_ACIER=_F(  F_PRG = 1.77E+9,
                              FROT_COURB = 0.,
                              FROT_LINE = 0.) )

#

CHMATER=AFFE_MATERIAU(
                   MAILLAGE=MAILLAGE,AFFE=(
                       _F(  GROUP_MA = 'VOILE',
                              MATER = BETON),
                       _F(  GROUP_MA = 'CABLE001',
                              MATER = ACIER)) )

#

CABLEPR=DEFI_CABLE_BP(            MODELE=MODELE,
                                  CHAM_MATER=CHMATER,
                                   CARA_ELEM=CARAELEM,
                              GROUP_MA_BETON='VOILE',
                                  DEFI_CABLE=_F(
                               GROUP_MA = 'CABLE001',
                               NOEUD_ANCRAGE = ( 'NC001001',  'NC001005', ),),
                               TYPE_ANCRAGE = ( 'ACTIF',   'ACTIF',  ),
                                TENSION_INIT=2.0E+5,
                               RECUL_ANCRAGE=0. )

#

CHARMECA=AFFE_CHAR_MECA(
                      MODELE=MODELE,DDL_IMPO=(
                    _F(  NOEUD = 'NB001001',
                               DX = 0.,
                               DY = 0.,
                               DZ = 0.,
                               DRX = 0.,
                               DRY = 0.,
                               DRZ = 0.),
                    _F(  NOEUD = 'NB002001',
                               DX = 0.,
                               DZ = 0.)),
                RELA_CINE_BP=_F(  CABLE_BP = CABLEPR,
                               SIGM_BPEL = 'OUI',
                               RELA_CINE = 'OUI'),
                        INFO=2 )

#

LINST=DEFI_LIST_REEL(    VALE=( 0.0,  1.0, ) )

#

EVOLNOLI=STAT_NON_LINE(
                MODELE=MODELE,
                CHAM_MATER=CHMATER,
                CARA_ELEM=CARAELEM,
                EXCIT=      _F( CHARGE = CHARMECA),
                COMPORTEMENT=  _F( RELATION = 'ELAS',
                                DEFORMATION = 'PETIT',
                                TOUT = 'OUI'),
                INCREMENT=  _F( LIST_INST = LINST),
                SOLVEUR=    _F( METHODE = 'MULT_FRONT',),
                CONVERGENCE=_F( ITER_GLOB_MAXI = 10,
                                RESI_GLOB_MAXI = 1.E-5),
                INFO=2
              )

EVOLNOLI=CALC_CHAMP( reuse=EVOLNOLI,  RESULTAT=EVOLNOLI, CONTRAINTE=('EFGE_ELNO'))
EVOLNOLI=CALC_CHAMP( reuse=EVOLNOLI,  RESULTAT=EVOLNOLI, CONTRAINTE=('SIEF_ELNO'))



#
########################################################################
# TESTS POUR LES NOEUDS DE L'ELEMENT DE BETON
########################################################################
#
# EFFORT NORMAL AUX NOEUDS DE L'ELEMENT DE BETON
# ----------------------------------------------
#

TEST_RESU(RESU=_F(NUME_ORDRE=1,
                  REFERENCE='ANALYTIQUE',
                  RESULTAT=EVOLNOLI,
                  NOM_CHAM='EFGE_ELNO',
                  NOEUD='NB001001',
                  NOM_CMP='NXX',
                  VALE_CALC=-9.99125765E+04,
                  VALE_REFE=-9.9912576499999996E4,
                  CRITERE='RELATIF',
                  PRECISION=9.9999999999999995E-07,
                  MAILLE='QD001001',),
          )

#

TEST_RESU(RESU=_F(NUME_ORDRE=1,
                  REFERENCE='ANALYTIQUE',
                  RESULTAT=EVOLNOLI,
                  NOM_CHAM='EFGE_ELNO',
                  NOEUD='NB001002',
                  NOM_CMP='NXX',
                  VALE_CALC=-9.99125765E+04,
                  VALE_REFE=-9.9912576499999996E4,
                  CRITERE='RELATIF',
                  PRECISION=9.9999999999999995E-07,
                  MAILLE='QD001001',),
          )

#

TEST_RESU(RESU=_F(NUME_ORDRE=1,
                  REFERENCE='ANALYTIQUE',
                  RESULTAT=EVOLNOLI,
                  NOM_CHAM='EFGE_ELNO',
                  NOEUD='NB002001',
                  NOM_CMP='NXX',
                  VALE_CALC=-9.99125765E+04,
                  VALE_REFE=-9.9912576499999996E4,
                  CRITERE='RELATIF',
                  PRECISION=9.9999999999999995E-07,
                  MAILLE='QD001001',),
          )

#

TEST_RESU(RESU=_F(NUME_ORDRE=1,
                  REFERENCE='ANALYTIQUE',
                  RESULTAT=EVOLNOLI,
                  NOM_CHAM='EFGE_ELNO',
                  NOEUD='NB002002',
                  NOM_CMP='NXX',
                  VALE_CALC=-9.99125765E+04,
                  VALE_REFE=-9.9912576499999996E4,
                  CRITERE='RELATIF',
                  PRECISION=9.9999999999999995E-07,
                  MAILLE='QD001001',),
          )

#
# DEPLACEMENT DES NOEUDS DE L'ELEMENT DE BETON
# --------------------------------------------
#

TEST_RESU(RESU=_F(NUME_ORDRE=1,
                  REFERENCE='ANALYTIQUE',
                  RESULTAT=EVOLNOLI,
                  NOM_CHAM='DEPL',
                  NOEUD='NB001002',
                  NOM_CMP='DX',
                  VALE_CALC=-1.11013974E-05,
                  VALE_REFE=-1.11013974E-05,
                  CRITERE='RELATIF',
                  PRECISION=9.9999999999999995E-07,),
          )

#

TEST_RESU(RESU=_F(NUME_ORDRE=1,
                  REFERENCE='ANALYTIQUE',
                  RESULTAT=EVOLNOLI,
                  NOM_CHAM='DEPL',
                  NOEUD='NB002002',
                  NOM_CMP='DX',
                  VALE_CALC=-1.11013974E-05,
                  VALE_REFE=-1.11013974E-05,
                  CRITERE='RELATIF',
                  PRECISION=9.9999999999999995E-07,),
          )

#
########################################################################
# TESTS POUR LES NOEUDS DU CABLE
########################################################################
#
# EFFORT NORMAL AUX NOEUDS DU CABLE
# ---------------------------------
#

TEST_RESU(RESU=_F(NUME_ORDRE=1,
                  REFERENCE='ANALYTIQUE',
                  RESULTAT=EVOLNOLI,
                  NOM_CHAM='SIEF_ELNO',
                  NOEUD='NC001001',
                  NOM_CMP='N',
                  VALE_CALC= 1.99825153E+05,
                  VALE_REFE=1.9982515299999999E5,
                  CRITERE='RELATIF',
                  PRECISION=9.9999999999999995E-07,
                  MAILLE='SG001001',),
          )

#

TEST_RESU(RESU=_F(NUME_ORDRE=1,
                  REFERENCE='ANALYTIQUE',
                  RESULTAT=EVOLNOLI,
                  NOM_CHAM='SIEF_ELNO',
                  NOEUD='NC001002',
                  NOM_CMP='N',
                  VALE_CALC= 1.99825153E+05,
                  VALE_REFE=1.9982515299999999E5,
                  CRITERE='RELATIF',
                  PRECISION=9.9999999999999995E-07,
                  MAILLE='SG001002',),
          )

#

TEST_RESU(RESU=_F(NUME_ORDRE=1,
                  REFERENCE='ANALYTIQUE',
                  RESULTAT=EVOLNOLI,
                  NOM_CHAM='SIEF_ELNO',
                  NOEUD='NC001003',
                  NOM_CMP='N',
                  VALE_CALC= 1.99825153E+05,
                  VALE_REFE=1.9982515299999999E5,
                  CRITERE='RELATIF',
                  PRECISION=9.9999999999999995E-07,
                  MAILLE='SG001003',),
          )

#

TEST_RESU(RESU=_F(NUME_ORDRE=1,
                  REFERENCE='ANALYTIQUE',
                  RESULTAT=EVOLNOLI,
                  NOM_CHAM='SIEF_ELNO',
                  NOEUD='NC001004',
                  NOM_CMP='N',
                  VALE_CALC= 1.99825153E+05,
                  VALE_REFE=1.9982515299999999E5,
                  CRITERE='RELATIF',
                  PRECISION=9.9999999999999995E-07,
                  MAILLE='SG001004',),
          )

#

TEST_RESU(RESU=_F(NUME_ORDRE=1,
                  REFERENCE='ANALYTIQUE',
                  RESULTAT=EVOLNOLI,
                  NOM_CHAM='SIEF_ELNO',
                  NOEUD='NC001005',
                  NOM_CMP='N',
                  VALE_CALC= 1.99825153E+05,
                  VALE_REFE=1.9982515299999999E5,
                  CRITERE='RELATIF',
                  PRECISION=9.9999999999999995E-07,
                  MAILLE='SG001004',),
          )

#
# DEPLACEMENT DES NOEUDS DU CABLE
# -------------------------------
#

TEST_RESU(RESU=_F(NUME_ORDRE=1,
                  REFERENCE='ANALYTIQUE',
                  RESULTAT=EVOLNOLI,
                  NOM_CHAM='DEPL',
                  NOEUD='NC001002',
                  NOM_CMP='DX',
                  VALE_CALC=-2.77534935E-06,
                  VALE_REFE=-2.77534935E-06,
                  CRITERE='RELATIF',
                  PRECISION=9.9999999999999995E-07,),
          )

#

TEST_RESU(RESU=_F(NUME_ORDRE=1,
                  REFERENCE='ANALYTIQUE',
                  RESULTAT=EVOLNOLI,
                  NOM_CHAM='DEPL',
                  NOEUD='NC001003',
                  NOM_CMP='DX',
                  VALE_CALC=-5.55069869E-06,
                  VALE_REFE=-5.5506986900000002E-06,
                  CRITERE='RELATIF',
                  PRECISION=9.9999999999999995E-07,),
          )

#

TEST_RESU(RESU=_F(NUME_ORDRE=1,
                  REFERENCE='ANALYTIQUE',
                  RESULTAT=EVOLNOLI,
                  NOM_CHAM='DEPL',
                  NOEUD='NC001004',
                  NOM_CMP='DX',
                  VALE_CALC=-8.32604804E-06,
                  VALE_REFE=-8.3260480400000002E-06,
                  CRITERE='RELATIF',
                  PRECISION=9.9999999999999995E-07,),
          )

#

TEST_RESU(RESU=_F(NUME_ORDRE=1,
                  REFERENCE='ANALYTIQUE',
                  RESULTAT=EVOLNOLI,
                  NOM_CHAM='DEPL',
                  NOEUD='NC001005',
                  NOM_CMP='DX',
                  VALE_CALC=-1.11013974E-05,
                  VALE_REFE=-1.11013974E-05,
                  CRITERE='RELATIF',
                  PRECISION=9.9999999999999995E-07,),
          )

#

FIN( )
#
