# MODIF  DATE 14/10/2008   AUTEUR DELMAS J.DELMAS 
# TITRE PLAQUE ENTAILLEE EN ELASTOPLASTICITE (ELEMENTS QUAD4 SI)
#            CONFIGURATION MANAGEMENT OF EDF VERSION
# ======================================================================
# COPYRIGHT (C) 1991 - 2003  EDF R&D                  WWW.CODE-ASTER.ORG
# THIS PROGRAM IS FREE SOFTWARE; YOU CAN REDISTRIBUTE IT AND/OR MODIFY  
# IT UNDER THE TERMS OF THE GNU GENERAL PUBLIC LICENSE AS PUBLISHED BY  
# THE FREE SOFTWARE FOUNDATION; EITHER VERSION 2 OF THE LICENSE, OR     
# (AT YOUR OPTION) ANY LATER VERSION.                                                    
#                                                                       
# THIS PROGRAM IS DISTRIBUTED IN THE HOPE THAT IT WILL BE USEFUL, BUT   
# WITHOUT ANY WARRANTY; WITHOUT EVEN THE IMPLIED WARRANTY OF            
# MERCHANTABILITY OR FITNESS FOR A PARTICULAR PURPOSE. SEE THE GNU      
# GENERAL PUBLIC LICENSE FOR MORE DETAILS.                              
#                                                                       
# YOU SHOULD HAVE RECEIVED A COPY OF THE GNU GENERAL PUBLIC LICENSE     
# ALONG WITH THIS PROGRAM; IF NOT, WRITE TO EDF R&D CODE_ASTER,         
#    1 AVENUE DU GENERAL DE GAULLE, 92141 CLAMART CEDEX, FRANCE.        
# ======================================================================

DEBUT(CODE=_F(NOM='SSNP123B',
              NIV_PUB_WEB='INTERNET',),);
# DEFINITION DU PROBLEME
#=======================

PRE_GIBI();

MA=LIRE_MAILLAGE();

MO=AFFE_MODELE(MAILLAGE=MA,
               AFFE=_F(TOUT='OUI',
                       PHENOMENE='MECANIQUE',
                       MODELISATION='D_PLAN_INCO',),);

MATERIAU=DEFI_MATERIAU(ELAS=_F(E=200000.0,
                               NU=0.3,),
                       ECRO_LINE=_F(D_SIGM_EPSI=1000.0,
                                    SY=200.0,),);

CH_MATER=AFFE_MATERIAU(MAILLAGE=MA,
                       AFFE=_F(TOUT='OUI',
                               MATER=MATERIAU,),);

SYMETRIE=AFFE_CHAR_MECA(MODELE=MO,
                        FACE_IMPO=(_F(GROUP_MA=('LCD','LBC',),
                                      DY=0.0,),
                                   _F(GROUP_MA=('LDE','LEF',),
                                      DX=0.0,),),);

TRACTION=AFFE_CHAR_MECA(MODELE=MO,
                        FACE_IMPO=_F(GROUP_MA='LFG',
                                     DY=0.1,),);

INSTANTS=DEFI_LIST_REEL(DEBUT=0.0,
                        INTERVALLE=_F(JUSQU_A=1.0,
                                      NOMBRE=5,),);

RAMPE=DEFI_FONCTION(NOM_PARA='INST',
                    VALE=(0.0,0.0,1.0,1.0,),);
# CALCUL
#========

RESU=STAT_NON_LINE(MODELE=MO,
                   CHAM_MATER=CH_MATER,
                   EXCIT=(_F(CHARGE=TRACTION,
                             FONC_MULT=RAMPE,),
                          _F(CHARGE=SYMETRIE,),),
                   COMP_INCR=_F(RELATION='VMIS_ISOT_LINE',),
                   INCREMENT=_F(LIST_INST=INSTANTS,
                                SUBD_METHODE='UNIFORME', SUBD_PAS=4,
                                SUBD_PAS_MINI=0.001,),
                   NEWTON=_F(REAC_ITER=1,),
                   ARCHIVAGE=_F(LIST_INST=INSTANTS,),);
# POST TRAITEMENT
#=================

RESU=CALC_ELEM(reuse =RESU,
               RESULTAT=RESU,
               OPTION=('SIEF_ELNO_ELGA','ERRE_ELEM_SIGM','ERRE_ELNO_ELEM',),);

RESU=CALC_NO(reuse =RESU,
             RESULTAT=RESU,
             OPTION='SIEF_NOEU_ELGA',);

ECHAN=INTE_MAIL_2D(MAILLAGE=MA,
                   DEFI_SEGMENT=_F(ORIGINE=(0.0,1.0,),
                                   EXTREMITE=(5.0,1.0,),),
                   PRECISION=0.001,
                   INFO=1,);

S_T=POST_RELEVE_T(ACTION=_F(INTITULE='S_EXT',
                            CHEMIN=ECHAN,
                            RESULTAT=RESU,
                            NOM_CHAM='SIEF_NOEU_ELGA',
                            INST=1.0,
                            CRITERE='RELATIF',
                            NOM_CMP='SIYY',
                            REPERE='GLOBAL',
                            MOYE_NOEUD='OUI',
                            OPERATION='EXTRACTION',),
                  INFO=1,);

IMPR_TABLE(TABLE=S_T,);
# TESTS
#=======
# NON REGRESSION

TEST_TABLE(TABLE=S_T,
           FILTRE=_F(NOM_PARA='COOR_X',
                     VALE=0.0,),
           NOM_PARA='SIYY',
           VALE=234.174,
           PRECISION=0.0001,
           REFERENCE='NON_REGRESSION',);

TEST_TABLE(TABLE=S_T,
           FILTRE=_F(NOM_PARA='COOR_X',
                     VALE=1.54051,),
           NOM_PARA='SIYY',
           VALE=257.417,
           PRECISION=0.0001,
           REFERENCE='NON_REGRESSION',);

TEST_TABLE(TABLE=S_T,
           FILTRE=_F(NOM_PARA='COOR_X',
                     VALE=3.26795,),
           NOM_PARA='SIYY',
           VALE=300.333,
           PRECISION=0.0001,
           REFERENCE='NON_REGRESSION',);

TEST_TABLE(TABLE=S_T,
           FILTRE=_F(NOM_PARA='COOR_X',
                     VALE=3.83403,),
           NOM_PARA='SIYY',
           VALE=263.212,
           PRECISION=0.0001,
           REFERENCE='NON_REGRESSION',);

TEST_TABLE(TABLE=S_T,
           FILTRE=_F(NOM_PARA='COOR_X',
                     VALE=4.37942,),
           NOM_PARA='SIYY',
           VALE=175.829,
           PRECISION=0.0001,
           REFERENCE='NON_REGRESSION',);
#--------------------------------------------------------------------------------
#
#  TEST SUR L'ESTIMATEUR D'ERREUR EN RESIDU

TEST_RESU(RESU=_F(RESULTAT=RESU,
                  INST=1.0,
                  NOM_CHAM='ERRE_ELEM_SIGM',
                  NOM_CMP='NUEST',
                  MAILLE='M20',
                  POINT=1,
                  VALE=1.2580e-4,
                  CRITERE='RELATIF',
                  PRECISION=0.0001,
                  REFERENCE='NON_REGRESSION',
                  VERSION='8.2.15',),);

TEST_RESU(RESU=_F(RESULTAT=RESU,
                  INST=1.0,
                  NOM_CHAM='ERRE_ELNO_ELEM',
                  NOM_CMP='ERREST',
                  MAILLE='M20',
                  NOEUD='N20',
                  VALE=3.081e-5,
                  CRITERE='RELATIF',
                  PRECISION=0.0001,
                  REFERENCE='NON_REGRESSION',
                  VERSION='8.2.15',),);
#--------------------------------------------------------------------------------
#
#  TEST SUR LES CONTRAINTES AU POINT B

TEST_RESU(RESU=_F(RESULTAT=RESU,
                  INST=1.0,
                  NOM_CHAM='SIEF_ELNO_ELGA',
                  NOM_CMP='SIYY',
                  MAILLE='M20',
                  NOEUD='N20',
                  VALE=439.88472879,
                  CRITERE='RELATIF',
                  PRECISION=0.0001,
                  REFERENCE='NON_REGRESSION',
                  VERSION='7.2.10',),);

TEST_RESU(RESU=_F(RESULTAT=RESU,
                  INST=1.0,
                  NOM_CHAM='SIEF_ELNO_ELGA',
                  NOM_CMP='SIXX',
                  MAILLE='M20',
                  NOEUD='N20',
                  VALE=-0.257673018052,
                  CRITERE='RELATIF',
                  PRECISION=0.0001,
                  REFERENCE='NON_REGRESSION',
                  VERSION='7.2.10',),);

FIN();
