# MODIF  DATE 19/05/2011   AUTEUR DELMAS J.DELMAS 
# TITRE DETECTION DES SINGULARITES DANS UNE PLAQUE FISSUREE (TRIA3)
# ssnp130a.para = tps_job 60 mem_job 200Mo ncpus 1 liste_test R
#            CONFIGURATION MANAGEMENT OF EDF VERSION
# ======================================================================
# COPYRIGHT (C) 1991 - 2011  EDF R&D                  WWW.CODE-ASTER.ORG
# THIS PROGRAM IS FREE SOFTWARE; YOU CAN REDISTRIBUTE IT AND/OR MODIFY
# IT UNDER THE TERMS OF THE GNU GENERAL PUBLIC LICENSE AS PUBLISHED BY
# THE FREE SOFTWARE FOUNDATION; EITHER VERSION 2 OF THE LICENSE, OR
# (AT YOUR OPTION) ANY LATER VERSION.
#
# THIS PROGRAM IS DISTRIBUTED IN THE HOPE THAT IT WILL BE USEFUL, BUT
# WITHOUT ANY WARRANTY; WITHOUT EVEN THE IMPLIED WARRANTY OF
# MERCHANTABILITY OR FITNESS FOR A PARTICULAR PURPOSE. SEE THE GNU
# GENERAL PUBLIC LICENSE FOR MORE DETAILS.
#
# YOU SHOULD HAVE RECEIVED A COPY OF THE GNU GENERAL PUBLIC LICENSE
# ALONG WITH THIS PROGRAM; IF NOT, WRITE TO EDF R&D CODE_ASTER,
#    1 AVENUE DU GENERAL DE GAULLE, 92141 CLAMART CEDEX, FRANCE.
# ======================================================================
# RESPONSABLE DELMAS J.DELMAS
# TEST V6.03.130
# CHARGEMENT EN PRESSION
# MAILLAGE : TRIA3
# COMPORTEMENT ELASTIQUE

DEBUT(CODE=_F(NOM='SSNP130A',
              NIV_PUB_WEB='INTERNET',),
      DEBUG=_F(SDVERI='OUI',),);

PRE_GIBI();

MA=LIRE_MAILLAGE();

# DEFINITION DU MATERIAU

ACIER=DEFI_MATERIAU(ELAS=_F(E=200000.0,
                            NU=0.3,),);

# DEFINITION DES INSTANTS POUR STAT_NON_LINE

L_INST=DEFI_LIST_REEL(DEBUT=0.0,
                      INTERVALLE=_F(JUSQU_A=1.0,
                                    NOMBRE=1,),);

F_INST=DEFI_FONCTION(NOM_PARA='INST',
                     VALE=(0.0,0.0,1.0,1.0,),);

MO=AFFE_MODELE(MAILLAGE=MA,
               AFFE=_F(TOUT='OUI',
                       PHENOMENE='MECANIQUE',
                       MODELISATION='C_PLAN',),);

MA=MODI_MAILLAGE(reuse =MA,
                 MAILLAGE=MA,
                 ORIE_PEAU_2D=_F(GROUP_MA='GMP34',),);

CHMAT=AFFE_MATERIAU(MAILLAGE=MA,
                    AFFE=_F(TOUT='OUI',
                            MATER=ACIER,),);

CHP=AFFE_CHAR_MECA(MODELE=MO,
                   PRES_REP=_F(GROUP_MA='GMP34',
                               PRES=1.0,),);

CHCL=AFFE_CHAR_MECA(MODELE=MO,
                    DDL_IMPO=(_F(GROUP_MA='LIGA',
                                 DY=0.0,),
                              _F(GROUP_NO='GNP2',
                                 DX=0.0,),),);

DEPLA=STAT_NON_LINE(MODELE=MO,
                    CHAM_MATER=CHMAT,
                    EXCIT=(_F(CHARGE=CHP,FONC_MULT=F_INST,),
                           _F(CHARGE=CHCL,),),
                    COMP_INCR=_F(RELATION='ELAS',TOUT='OUI',),
                    INCREMENT=_F(LIST_INST=L_INST,),);

DEPLA=CALC_ELEM(reuse =DEPLA,
                RESULTAT=DEPLA,
                INST=1.,
                OPTION=('SIEF_ELNO','ETOT_ELEM',),);

DEPLA=CALC_ERREUR(reuse =DEPLA,
                  RESULTAT=DEPLA,
                  INST=1.,
                  OPTION=('ERME_ELEM',),);

# DEFINITION DU PROBLEME DUAL

CHDUAL=AFFE_CHAR_MECA(MODELE=MO,
                      FORCE_INTERNE=_F(GROUP_MA=('SURF1','SURF2',),
                                       FX=1.0,),);

RESUD=STAT_NON_LINE(MODELE=MO,
                    CHAM_MATER=CHMAT,
                    EXCIT=(_F(CHARGE=CHDUAL,FONC_MULT=F_INST,),
                           _F(CHARGE=CHCL,),),
                    COMP_INCR=_F(RELATION='ELAS',TOUT='OUI',),
                    INCREMENT=_F(LIST_INST=L_INST,),);

RESUD=CALC_ELEM(reuse =RESUD,
                RESULTAT=RESUD,
                INST=1.,
                OPTION=('SIEF_ELNO',),);

RESUD=CALC_ERREUR(reuse =RESUD,
                  RESULTAT=RESUD,
                  INST=1.,
                  OPTION=('ERME_ELEM',),);

# POST-TRAITEMENT AVEC L'ERREUR EN QUANTITE D'INTERET

DEPLA=CALC_ERREUR(reuse =DEPLA,
                  RESULTAT=DEPLA,
                  INST=1.,
                  RESU_DUAL=RESUD,
                  PREC_ERR=0.8,
                  TYPE_ESTI='QIRE_ELEM',
                  OPTION=('QIRE_ELEM','SING_ELEM','SING_ELNO',),);

# TEST DE SING_ELEM VALEUR MAX ET MIN DES 2 COMPOSANTES

TEST_RESU(RESU=(_F(RESULTAT=DEPLA,
                   INST=1.0,
                   NOM_CHAM='SING_ELEM',
                   NOM_CMP='DEGRE',
                   TYPE_TEST='MAX',
                   VALE=1.0,
                   CRITERE='RELATIF',
                   PRECISION=1.E-6,
                   REFERENCE='NON_REGRESSION',),
                _F(RESULTAT=DEPLA,
                   INST=1.0,
                   NOM_CHAM='SING_ELEM',
                   NOM_CMP='DEGRE',
                   TYPE_TEST='MIN',
                   VALE=0.5,
                   CRITERE='RELATIF',
                   PRECISION=1.E-6,
                   REFERENCE='NON_REGRESSION',),
                _F(RESULTAT=DEPLA,
                   INST=1.0,
                   NOM_CHAM='SING_ELEM',
                   NOM_CMP='RAPPORT',
                   TYPE_TEST='MAX',
                   VALE=7.3626543806501E+00,
                   CRITERE='RELATIF',
                   PRECISION=2.E-3,
                   REFERENCE='NON_REGRESSION',
                   VERSION='10.00.20',),
                _F(RESULTAT=DEPLA,
                   INST=1.0,
                   NOM_CHAM='SING_ELEM',
                   NOM_CMP='RAPPORT',
                   TYPE_TEST='MIN',
                   VALE=1.0310743656741E+00,
                   CRITERE='RELATIF',
                   PRECISION=2.E-3,
                   REFERENCE='NON_REGRESSION',
                   VERSION='10.00.20',),
                _F(RESULTAT=DEPLA,
                   INST=1.0,
                   NOM_CHAM='SING_ELEM',
                   NOM_CMP='TAILLE',
                   TYPE_TEST='MAX',
                   VALE=1.6918129088007E+00,
                   CRITERE='RELATIF',
                   PRECISION=2.E-3,
                   REFERENCE='NON_REGRESSION',
                   VERSION='10.00.20',),
                _F(RESULTAT=DEPLA,
                   INST=1.0,
                   NOM_CHAM='SING_ELEM',
                   NOM_CMP='TAILLE',
                   TYPE_TEST='MIN',
                   VALE=2.9500698175388E-02,
                   CRITERE='RELATIF',
                   PRECISION=2.E-3,
                   REFERENCE='NON_REGRESSION',
                   VERSION='10.00.20',),),);

# TEST DE SING_ELEM VALEUR PARTICULIERE EN POINTE DE FISSURE
# LES MAILLES CHOISIES SONT AU VOISINAGE DE LA FISSURE

TEST_RESU(RESU=(_F(RESULTAT=DEPLA,
                   INST=1.0,
                   NOM_CHAM='SING_ELEM',
                   NOM_CMP='DEGRE',
                   MAILLE='M142',
                   POINT=1,
                   VALE=0.68706655123,
                   CRITERE='RELATIF',
                   PRECISION=2.E-3,
                   REFERENCE='NON_REGRESSION',
                   VERSION='10.00.19',),
                _F(RESULTAT=DEPLA,
                   INST=1.0,
                   NOM_CHAM='SING_ELEM',
                   NOM_CMP='DEGRE',
                   MAILLE='M143',
                   POINT=1,
                   VALE=0.5,
                   CRITERE='RELATIF',
                   PRECISION=1.E-6,
                   REFERENCE='NON_REGRESSION',
                   VERSION='10.00.19',),
                _F(RESULTAT=DEPLA,
                   INST=1.0,
                   NOM_CHAM='SING_ELEM',
                   NOM_CMP='DEGRE',
                   MAILLE='M144',
                   POINT=1,
                   VALE=0.5,
                   CRITERE='RELATIF',
                   PRECISION=1.E-6,
                   REFERENCE='NON_REGRESSION',
                   VERSION='10.00.19',),
                _F(RESULTAT=DEPLA,
                   INST=1.0,
                   NOM_CHAM='SING_ELEM',
                   NOM_CMP='DEGRE',
                   MAILLE='M145',
                   POINT=1,
                   VALE=0.5,
                   CRITERE='RELATIF',
                   PRECISION=1.E-6,
                   REFERENCE='NON_REGRESSION',
                   VERSION='10.00.19',),
                _F(RESULTAT=DEPLA,
                   INST=1.0,
                   NOM_CHAM='SING_ELEM',
                   NOM_CMP='DEGRE',
                   MAILLE='M146',
                   POINT=1,
                   VALE=0.58428910134,
                   CRITERE='RELATIF',
                   PRECISION=1.5E-2,
                   REFERENCE='NON_REGRESSION',
                   VERSION='10.00.19',),
                _F(RESULTAT=DEPLA,
                   INST=1.0,
                   NOM_CHAM='SING_ELEM',
                   NOM_CMP='DEGRE',
                   MAILLE='M189',
                   POINT=1,
                   VALE=0.68706655123,
                   CRITERE='RELATIF',
                   PRECISION=2.E-3,
                   REFERENCE='NON_REGRESSION',
                   VERSION='10.00.19',),
                _F(RESULTAT=DEPLA,
                   INST=1.0,
                   NOM_CHAM='SING_ELEM',
                   NOM_CMP='DEGRE',
                   MAILLE='M190',
                   POINT=1,
                   VALE=0.68706655123,
                   CRITERE='RELATIF',
                   PRECISION=2.E-3,
                   REFERENCE='NON_REGRESSION',
                   VERSION='10.00.19',),
                _F(RESULTAT=DEPLA,
                   INST=1.0,
                   NOM_CHAM='SING_ELEM',
                   NOM_CMP='DEGRE',
                   MAILLE='M191',
                   POINT=1,
                   VALE=0.58428910134,
                   CRITERE='RELATIF',
                   PRECISION=1.5E-2,
                   REFERENCE='NON_REGRESSION',
                   VERSION='10.00.19',),),);

# TEST DE SING_ELNO

TEST_RESU(RESU=(_F(RESULTAT=DEPLA,
                   INST=1.0,
                   NOM_CHAM='SING_ELNO',
                   NOM_CMP='DEGRE',
                   TYPE_TEST='MAX',
                   VALE=1.0,
                   CRITERE='RELATIF',
                   PRECISION=1.E-6,
                   REFERENCE='NON_REGRESSION',),
                _F(RESULTAT=DEPLA,
                   INST=1.0,
                   NOM_CHAM='SING_ELNO',
                   NOM_CMP='DEGRE',
                   TYPE_TEST='MIN',
                   VALE=0.5,
                   CRITERE='RELATIF',
                   PRECISION=1.E-6,
                   REFERENCE='NON_REGRESSION',),
                _F(RESULTAT=DEPLA,
                   INST=1.0,
                   NOM_CHAM='SING_ELNO',
                   NOM_CMP='RAPPORT',
                   TYPE_TEST='MAX',
                   VALE=7.3626543806501E+00,
                   CRITERE='RELATIF',
                   PRECISION=2.E-3,
                   REFERENCE='NON_REGRESSION',
                   VERSION='10.00.20',),
                _F(RESULTAT=DEPLA,
                   INST=1.0,
                   NOM_CHAM='SING_ELNO',
                   NOM_CMP='RAPPORT',
                   TYPE_TEST='MIN',
                   VALE=1.0310743656741E+00,
                   CRITERE='RELATIF',
                   PRECISION=2.E-3,
                   REFERENCE='NON_REGRESSION',
                   VERSION='10.00.20',),
                _F(RESULTAT=DEPLA,
                   INST=1.0,
                   NOM_CHAM='SING_ELNO',
                   NOM_CMP='TAILLE',
                   TYPE_TEST='MAX',
                   VALE=1.6918129088007E+00,
                   CRITERE='RELATIF',
                   PRECISION=2.E-3,
                   REFERENCE='NON_REGRESSION',
                   VERSION='10.00.20',),
                _F(RESULTAT=DEPLA,
                   INST=1.0,
                   NOM_CHAM='SING_ELNO',
                   NOM_CMP='TAILLE',
                   TYPE_TEST='MIN',
                   VALE=2.9500698175388E-02,
                   CRITERE='RELATIF',
                   PRECISION=2.E-3,
                   REFERENCE='NON_REGRESSION',
                   VERSION='10.00.20',),),);

FIN();
