# TITRE MODELISATION DES SOUS PRESSION D'UN BARRAGE 3D A L'AIDE DES ELEMENTS DE JOINT HYME ET DE LA LOI JOINT_MECA_RUPT
# ======================================================================
# COPYRIGHT (C) 1991 - 2012  EDF R&D                  WWW.CODE-ASTER.ORG
# THIS PROGRAM IS FREE SOFTWARE; YOU CAN REDISTRIBUTE IT AND/OR MODIFY
# IT UNDER THE TERMS OF THE GNU GENERAL PUBLIC LICENSE AS PUBLISHED BY
# THE FREE SOFTWARE FOUNDATION; EITHER VERSION 2 OF THE LICENSE, OR
# (AT YOUR OPTION) ANY LATER VERSION.
#
# THIS PROGRAM IS DISTRIBUTED IN THE HOPE THAT IT WILL BE USEFUL, BUT
# WITHOUT ANY WARRANTY; WITHOUT EVEN THE IMPLIED WARRANTY OF
# MERCHANTABILITY OR FITNESS FOR A PARTICULAR PURPOSE. SEE THE GNU
# GENERAL PUBLIC LICENSE FOR MORE DETAILS.
#
# YOU SHOULD HAVE RECEIVED A COPY OF THE GNU GENERAL PUBLIC LICENSE
# ALONG WITH THIS PROGRAM; IF NOT, WRITE TO EDF R&D CODE_ASTER,
#    1 AVENUE DU GENERAL DE GAULLE, 92141 CLAMART CEDEX, FRANCE.
# ======================================================================
DEBUT(CODE=_F(NIV_PUB_WEB='INTERNET',VISU_EFICAS='OUI'),PAR_LOT='OUI',DEBUG=_F(SDVERI='OUI'))

######## PARAMETRES #############
tfin=4
tfin_SNL=4.0

# PARAMETRES MECANIQUES DU BARRAGE DE LA TERRE ET DE L'EAU (VALEURS TESTS)
young=3.E12
poiss=0.25
rho_b=2400.
rho_t=0.
rho_e=1000.
ap=9.81
h=10.
long=5.

# NIVEAU D'EAU
niv_am=DEFI_FONCTION(NOM_PARA='INST',NOM_RESU='NRT_AM',VALE=(0,0, 1,3, 2,6, 3,8, 4,9));
niv_av=DEFI_FONCTION(NOM_PARA='INST',NOM_RESU='NRT_AV',VALE=(0,0, 1,0, 2,0, 3,0, 4,0));

# PARAMETRES MECANIQUES DES JOINTS
k_n=1E12
sig_m=1.E2
alpha=1.0
penrup=0.2

##################################

MA0=LIRE_MAILLAGE(FORMAT='MED');

MA=CREA_MAILLAGE(MAILLAGE  = MA0, LINE_QUAD = _F(TOUT='OUI'));

MA=DEFI_GROUP(reuse =MA,
              MAILLAGE=MA,

  CREA_GROUP_MA = (

# VOLUMES
    _F(NOM = 'BARRAGE',    GROUP_MA = 'G_3D_122'),
    _F(NOM = 'TERRE'  ,    GROUP_MA = 'G_3D_124'),
    _F(NOM = 'JOINT'  ,    GROUP_MA = 'G_3D_121'),

# SURFACES
    _F(NOM = 'TER_BORD', UNION = ('G_2D_130','G_2D_131','G_2D_132')),
    _F(NOM = 'BAR_AM',  GROUP_MA = 'G_2D_127'),
    _F(NOM = 'BAR_AV',   GROUP_MA = 'G_2D_128'),

# LIGNES
    _F(NOM = 'JOINT_H'  ,  GROUP_MA = 'G_1D_133'),
    _F(NOM = 'JOINT_B'  ,  GROUP_MA = 'G_1D_134')),

   CREA_GROUP_NO = (
# LIGNES
    _F(NOM = 'JOINT_H'  ,  GROUP_MA = 'JOINT_H',OPTION='NOEUD_ORDO'),
    _F(NOM = 'JOINT_B'  ,  GROUP_MA = 'JOINT_B',OPTION='NOEUD_ORDO'),
    _F(NOM = 'J_PRE'    ,  OPTION='PLAN',POINT=(0.0,-5.0E-04 ,0.0),VECT_NORMALE=(0.,1.,0.),PRECISION=1.0E-06),

    _F(NOM = 'TMP_AM' ,   OPTION='PLAN',POINT=(0.0,0.0 ,0.0),VECT_NORMALE=(1.,0.,0.),PRECISION=1.0E-06),
    _F(NOM = 'TMP_AV' ,   OPTION='PLAN',POINT=(5.0,0.0 ,0.0),VECT_NORMALE=(1.,0.,0.),PRECISION=1.0E-06),
    _F(NOM = 'TMP_CURV' , OPTION='PLAN',POINT=(0.0,0.0 ,0.0),VECT_NORMALE=(0.,0.,1.),PRECISION=1.0E-06),

    _F(NOM = 'J_AMONT'  ,  INTERSEC=('J_PRE','TMP_AM')),
    _F(NOM = 'J_AVAL'  ,   INTERSEC=('J_PRE','TMP_AV')),
    _F(NOM = 'J_CURV'  ,   INTERSEC=('J_PRE','TMP_CURV')),

                               ));

# ORIENTATION DES MAILLES SURFACIQUES
MA=MODI_MAILLAGE(reuse =MA,
                   MAILLAGE=MA,
                   ORIE_PEAU_3D=_F(GROUP_MA=('BAR_AM','BAR_AV')),
                   INFO=1)

# ORIENTATION DES MAILLES DE JOINT
MA=MODI_MAILLAGE(reuse =MA,
                   MAILLAGE=MA,
                   ORIE_FISSURE=_F(GROUP_MA='JOINT'),
                   INFO=1)


MO=AFFE_MODELE(MAILLAGE=MA,
               
               AFFE=(_F(GROUP_MA=('BARRAGE','TERRE','BAR_AM','BAR_AV'),
                        PHENOMENE='MECANIQUE',
                        MODELISATION='3D'),
                     _F(GROUP_MA='JOINT',
                        PHENOMENE='MECANIQUE',
                        MODELISATION='3D_JOINT_HYME')));


# MATERIAU BETON ET TERRE
MAT_B=DEFI_MATERIAU(ELAS=_F(
                              E   = young,
                              NU  = poiss,
                              RHO = rho_b))

MAT_T=DEFI_MATERIAU(ELAS=_F(
                              E   = young,
                              NU  = poiss,
                              RHO = rho_t))


# MATERIAU JOINT HYDRO MECANIQUE
MAT_JHM=DEFI_MATERIAU(
                    JOINT_MECA_RUPT=_F(K_N=k_n,
                                       K_T=k_n,
                                       ALPHA=alpha,
                                       SIGM_MAX=sig_m,
                                       PENA_RUPTURE=penrup,
                                       RHO_FLUIDE=1000.,
                                       VISC_FLUIDE=1.E-3,
                                       OUV_MIN=1.E-8,
                                       ))

CM_HM=AFFE_MATERIAU(MAILLAGE=MA,
                 AFFE=(
                      _F(GROUP_MA='BARRAGE',MATER = MAT_B),
                      _F(GROUP_MA='TERRE',  MATER = MAT_T),
                      _F(GROUP_MA='JOINT',  MATER = MAT_JHM))
                 );

# CONDITION AUX LIMITES SUR LA TERRE
TERRE=AFFE_CHAR_MECA(MODELE=MO,FACE_IMPO=_F(GROUP_MA='TER_BORD',DX=0.0,DY=0.0,DZ=0.0));

# POIDS
PESBAR = AFFE_CHAR_MECA(
  MODELE = MO,
  FORCE_INTERNE = (_F(GROUP_MA='BARRAGE',FX=0, FY=-rho_b*ap,FZ=0.0))
  );
PESTER = AFFE_CHAR_MECA(
  MODELE = MO,
  FORCE_INTERNE = (_F(GROUP_MA='TERRE',  FX=0, FY=-rho_t*ap,FZ=0.0))
  );

# PRESSION D'EAU SUR LE BARRAGE
p_am = FORMULE(VALE='max(rho_e*ap*(niv_am(INST)-Y),0)',NOM_PARA=('Y','INST'));
p_av = FORMULE(VALE='max(rho_e*ap*(niv_av(INST)-Y),0)',NOM_PARA=('Y','INST'));

PAMONT=AFFE_CHAR_MECA_F(MODELE=MO,PRES_REP=_F(GROUP_MA=('BAR_AM') ,PRES=p_am));
PAVAL =AFFE_CHAR_MECA_F(MODELE=MO,PRES_REP=_F(GROUP_MA=('BAR_AV'),PRES=p_av));


# PRESSION EN AMONT ET AVAL DE FISSURE
pamj = FORMULE(VALE='max(rho_e*ap*(niv_am(INST)),0.0)',NOM_PARA=('Y','INST'));
pavj = FORMULE(VALE='max(rho_e*ap*(niv_av(INST)),0.0)',NOM_PARA=('Y','INST'));

# ON UTILISE AFFE_CHAR_CINE CAR PLUS ROBUSTE POUR LES CALCULS AVEC EJ ET SOLVEUR MUMPS
P_AM_J = AFFE_CHAR_CINE_F(MODELE = MO,MECA_IMPO = (_F(GROUP_NO='J_AMONT', PRE1=pamj )))
P_AV_J = AFFE_CHAR_CINE_F(MODELE = MO,MECA_IMPO = (_F(GROUP_NO='J_AVAL',  PRE1=pavj )))


# LISTE D'INSTANTS
LR=DEFI_LIST_REEL(DEBUT=0.0,INTERVALLE=(_F(JUSQU_A=tfin, NOMBRE=1)));

L_INST =DEFI_LIST_INST(DEFI_LIST=_F(LIST_INST = LR ),
                        ECHEC=_F(
                                 SUBD_NIVEAU=6,
                                 SUBD_PAS  = 2,
                                 SUBD_PAS_MINI = 1.E-10,
                                 ))


# CALCUL HYDRO MECANIQUE
U_HM=STAT_NON_LINE(MODELE=MO,
                  CHAM_MATER=CM_HM,
                  EXCIT=(
                         _F(CHARGE=TERRE),
                         _F(CHARGE=PESBAR),
                         _F(CHARGE=PESTER),
                         _F(CHARGE=PAMONT),
                         _F(CHARGE=PAVAL),
                         _F(CHARGE=P_AM_J),
                         _F(CHARGE=P_AV_J),
                          ),
                  COMPORTEMENT=(_F(RELATION='JOINT_MECA_RUPT',
                                GROUP_MA='JOINT'),
                             _F(RELATION='ELAS',
                                GROUP_MA=('TERRE','BARRAGE'))),
                  INCREMENT=_F(LIST_INST=L_INST,INST_FIN=tfin_SNL),
                  NEWTON=_F(MATRICE='TANGENTE',REAC_ITER=1),
                  CONVERGENCE = _F(
                                   ITER_GLOB_MAXI = 45,
                                   RESI_REFE_RELA = 1.E-6,
                                   SIGM_REFE      = 1.E5,
                                   FLUX_HYD1_REFE = 1.E-14),
                  SOLVEUR=_F(METHODE='MUMPS',NPREC=-1),
                  ARCHIVAGE = _F(LIST_INST = LR)
                  );


################### POST TRAITEMENT U_HM  #######################

U_HM=CALC_CHAMP(reuse =U_HM,
                RESULTAT=U_HM,
                VARI_INTERNE=('VARI_ELNO'),
#                GROUP_MA='JOINT'
                );

U_HM=CALC_CHAMP(reuse =U_HM,
                RESULTAT=U_HM,
                CONTRAINTE=('SIEF_ELNO'),
#                GROUP_MA='JOINT'
                );

U_HM=CALC_CHAMP(reuse =U_HM,
             RESULTAT=U_HM,
             VARI_INTERNE='VARI_NOEU',CONTRAINTE='SIEF_NOEU',
#             GROUP_MA='JOINT'
             );

# SAUT NORMAL DANS LE JOINT
SAUTHM=POST_RELEVE_T(ACTION=_F(OPERATION='EXTRACTION',
                               INTITULE='SAUT_N',
                               RESULTAT=U_HM,
                               NOM_CHAM='VARI_NOEU',
                               INST=tfin,
                               GROUP_NO=('JOINT_H'),
                               NOM_CMP='V7'));

# CONTRAINTE NORMALE TOTALE DANS LE JOINT
SNT_HM=POST_RELEVE_T(ACTION=_F(OPERATION='EXTRACTION',
                               INTITULE='SIG_N',
                               RESULTAT=U_HM,
                               NOM_CHAM='SIEF_NOEU',
                               INST=tfin,
                               GROUP_NO = ('JOINT_H'),
                               NOM_CMP='SIGN'));

# CONTRAINTE NORMALE MECANIQUE DANS LE JOINT (SANS PRESSION DE FLUIDE)
SNM_HM=POST_RELEVE_T(ACTION=_F(OPERATION='EXTRACTION',
                               INTITULE='SIG_N_MECA',
                               RESULTAT=U_HM,
                               NOM_CHAM='VARI_NOEU',
                               INST=tfin,
                               GROUP_NO = ('JOINT_H'),
                               NOM_CMP='V11'));

# PRESSION DE FLUIDE
PRE_HM=POST_RELEVE_T(ACTION=_F(OPERATION='EXTRACTION',
                               INTITULE='PRES_FLUIDE',
                               RESULTAT=U_HM,
                               NOM_CHAM='DEPL',
                               INST=tfin,
                               GROUP_NO = ('J_CURV'),
                               NOM_CMP='PRE1'));

# PRESSION DANS LE JOINT A PARTIR DE V18 :
P_HM=POST_RELEVE_T(ACTION=_F(OPERATION='EXTRACTION',
                             INTITULE='PRESS INTERPOL',
                             RESULTAT=U_HM,
                             NOM_CHAM='VARI_NOEU',
                             INST=tfin,
                             GROUP_NO=('J_CURV'),
                             NOM_CMP='V18'));

################### TESTS U_F COMPARAISON GEFDYN ####################
# REMARQUE : IL S'AGIT ICI DE COMPARER AVEC DES CALCULS REALISES SUR
# MAILLAGES TRES GROSSIERS AVEC DES RESIDUS DE CALCUL ASSEZ IMPORTANTS
# C'EST POURQUOI ON AUTORISE DES ECARTS (ET NON DES ERREURS) DE 15%

TEST_TABLE(REFERENCE='SOURCE_EXTERNE',
           PRECISION=0.06,
           VALE_CALC= 1.43362462E-06,
           VALE_REFE=1.52E-06,
           NOM_PARA='V7',
           TABLE=SAUTHM,
           FILTRE=_F(NOM_PARA='COOR_X',
                     VALE=0.0,),
           )

TEST_TABLE(REFERENCE='SOURCE_EXTERNE',
           PRECISION=1.E-2,
           VALE_CALC=-8.82900000E+04,
           VALE_REFE=-8.8300E4,
           NOM_PARA='SIGN',
           TABLE=SNT_HM,
           FILTRE=_F(NOM_PARA='COOR_X',
                     VALE=0.0,),
           )

TEST_TABLE(REFERENCE='SOURCE_EXTERNE',
           PRECISION=0.15,
           VALE_CALC=-5.86895395E-07,
           VALE_REFE=-5.23E-07,
           NOM_PARA='V7',
           TABLE=SAUTHM,
           FILTRE=_F(NOM_PARA='COOR_X',
                     VALE=5.0,),
           )

TEST_TABLE(REFERENCE='SOURCE_EXTERNE',
           PRECISION=0.15,
           VALE_CALC=-5.86895395E+05,
           VALE_REFE=-5.23E5,
           NOM_PARA='SIGN',
           TABLE=SNT_HM,
           FILTRE=_F(NOM_PARA='COOR_X',
                     VALE=5.0,),
           )

################### TESTS U_HM  NON REGRESSION #######################

# SAUT ET CONTRAINTE NORMALE
TEST_TABLE(
           VALE_CALC=8.58200353333E-07,
           NOM_PARA='V7',
           TABLE=SAUTHM,
           FILTRE=_F(NOM_PARA='COOR_X',
                     VALE=1.3,),
           )

TEST_TABLE(
           VALE_CALC=-88289.948283395,
           NOM_PARA='SIGN',
           TABLE=SNT_HM,
           FILTRE=_F(NOM_PARA='COOR_X',
                     VALE=1.3,),
           )

TEST_TABLE(
           VALE_CALC=5.7675589968519E-08,
           NOM_PARA='V7',
           TABLE=SAUTHM,
           FILTRE=_F(NOM_PARA='COOR_X',
                     VALE=3.2,),
           )

TEST_TABLE(
           VALE_CALC=-88275.202766363,
           NOM_PARA='SIGN',
           TABLE=SNT_HM,
           FILTRE=_F(NOM_PARA='COOR_X',
                     VALE=3.2,),
           )

TEST_TABLE(
           VALE_CALC=-3.6077746089702E-07,
           NOM_PARA='V7',
           TABLE=SAUTHM,
           FILTRE=_F(NOM_PARA='COOR_X',
                     VALE=4.6,),
           )

TEST_TABLE(
           VALE_CALC=-3.8262028781015E5,
           NOM_PARA='SIGN',
           TABLE=SNT_HM,
           FILTRE=_F(NOM_PARA='COOR_X',
                     VALE=4.6,),
           )

# PRESSION
TEST_TABLE(
           VALE_CALC=88289.882469705,
           NOM_PARA='PRE1',
           TABLE=PRE_HM,
           FILTRE=_F(NOM_PARA='COOR_X',
                     VALE=1.8,),
           )

TEST_TABLE(
           VALE_CALC=88289.882469705,
           NOM_PARA='V18',
           TABLE=P_HM,
           FILTRE=_F(NOM_PARA='COOR_X',
                     VALE=1.8,),
           )

TEST_TABLE(
           VALE_CALC=32764.240369734,
           NOM_PARA='PRE1',
           TABLE=PRE_HM,
           FILTRE=_F(NOM_PARA='COOR_X',
                     VALE=4.4,),
           )

TEST_TABLE(
           VALE_CALC=32764.240369734,
           NOM_PARA='V18',
           TABLE=P_HM,
           FILTRE=_F(NOM_PARA='COOR_X',
                     VALE=4.4,),
           )

FIN(FORMAT_HDF='OUI')
