# TITRE ESSAIS BIAXIAUX
# ======================================================================
# COPYRIGHT (C) 1991 - 2012  EDF R&D                  WWW.CODE-ASTER.ORG
# THIS PROGRAM IS FREE SOFTWARE; YOU CAN REDISTRIBUTE IT AND/OR MODIFY
# IT UNDER THE TERMS OF THE GNU GENERAL PUBLIC LICENSE AS PUBLISHED BY
# THE FREE SOFTWARE FOUNDATION; EITHER VERSION 2 OF THE LICENSE, OR
# (AT YOUR OPTION) ANY LATER VERSION.
#
# THIS PROGRAM IS DISTRIBUTED IN THE HOPE THAT IT WILL BE USEFUL, BUT
# WITHOUT ANY WARRANTY; WITHOUT EVEN THE IMPLIED WARRANTY OF
# MERCHANTABILITY OR FITNESS FOR A PARTICULAR PURPOSE. SEE THE GNU
# GENERAL PUBLIC LICENSE FOR MORE DETAILS.
#
# YOU SHOULD HAVE RECEIVED A COPY OF THE GNU GENERAL PUBLIC LICENSE
# ALONG WITH THIS PROGRAM; IF NOT, WRITE TO EDF R&D CODE_ASTER,
#    1 AVENUE DU GENERAL DE GAULLE, 92141 CLAMART CEDEX, FRANCE.
# ======================================================================


DEBUT(CODE=_F(NOM='ssnp161a',NIV_PUB_WEB='INTERNET',),);

MAIL=LIRE_MAILLAGE(FORMAT='MED',);


MAIL=DEFI_GROUP(reuse =MAIL,
                MAILLAGE=MAIL,
                CREA_GROUP_NO=_F(GROUP_MA='haut',
                                 NOM='depno',),);

MA=DEFI_MATERIAU(ELAS=_F(E=34000000000.0,
                         NU=0.19,
                         RHO=2400.0,),
                 MAZARS=_F(AT=1.,
                           BT=9000.0,
                           AC=1.25,
                           BC=1965.0,
                           EPSD0=0.00011,
                          K=0.7),);

MODE=AFFE_MODELE(MAILLAGE=MAIL,
                 AFFE=_F(TOUT='OUI',
                         PHENOMENE='MECANIQUE',
                         MODELISATION='C_PLAN',),);

MATE=AFFE_MATERIAU(MAILLAGE=MAIL,
                   AFFE=_F(TOUT='OUI',
                           MATER=MA,),);

BLO=AFFE_CHAR_MECA(MODELE=MODE,
                    DDL_IMPO=(
                        _F(GROUP_MA='gau',
                           DX=0.0,),
                        _F(GROUP_MA='bas',
                           DY=0.0,),),);

CHAR=AFFE_CHAR_MECA(MODELE=MODE,
                    PRES_REP=(
                        _F(GROUP_MA='droi',
                           PRES=15600000.0,),
                        ), );
PRESS=AFFE_CHAR_MECA(MODELE=MODE,
                    PRES_REP=(
                        _F(GROUP_MA='haut',
                           PRES=30000000.0,),
                    ),);

List=DEFI_LIST_REEL(DEBUT=0.0,
                    INTERVALLE=(_F(JUSQU_A=0.65,
                                  PAS=0.01,),
                     ),);
List2=DEFI_LIST_REEL(DEBUT=0.65,
                    INTERVALLE=(_F(JUSQU_A=0.69,
                                  PAS=0.01,),
                     ),);

Fonc=DEFI_FONCTION(NOM_PARA='INST',VALE=(0.0,0.0,
                         1.0,2.0,
                         ),INTERPOL=('LIN','LIN',),);

STAT=STAT_NON_LINE(MODELE=MODE,
                     CHAM_MATER=MATE,
                     EXCIT=(_F(CHARGE=BLO,),
                            _F(CHARGE=CHAR,
                               FONC_MULT=Fonc,),
                            _F(CHARGE=PRESS,
                               FONC_MULT=Fonc,),),
                     COMPORTEMENT=_F(RELATION='MAZARS',),
                     INCREMENT=_F(LIST_INST=List,),
                     CONVERGENCE=_F(RESI_GLOB_RELA=9.E-5,
                                    ITER_GLOB_MAXI=100,
                                    ARRET='OUI',),
                     NEWTON=_F(MATRICE='TANGENTE',
                               REAC_ITER=1,),);

STAT=STAT_NON_LINE(reuse = STAT,
                   MODELE=MODE,
                   CHAM_MATER=MATE,
                     EXCIT=(_F(CHARGE=BLO,),
                            _F(CHARGE=CHAR,
                               FONC_MULT=Fonc,),
                            _F(CHARGE=PRESS,
                               FONC_MULT=Fonc,),),
                     COMPORTEMENT=_F(RELATION='MAZARS',),
                     INCREMENT=_F(LIST_INST=List2,),
                     ETAT_INIT=_F(EVOL_NOLI=STAT,),
                     CONVERGENCE=_F(RESI_GLOB_RELA=9.E-5,
                                    ITER_GLOB_MAXI=100,
                                    ARRET='OUI',),
                     ARCHIVAGE=_F(PAS_ARCH=1),
                     NEWTON=_F(REAC_ITER=0,),);


STAT=CALC_CHAMP  ( reuse  = STAT,
                RESULTAT=STAT,
                NUME_ORDRE = (18,69),
                CONTRAINTE='SIGM_NOEU',DEFORMATION='EPSI_NOEU',
                );


TEST_RESU(RESU=(_F(RESULTAT=STAT,
                   NUME_ORDRE=18,
                   NOM_CHAM='SIGM_NOEU',
                   NOM_CMP='SIYY',
                   NOEUD='N1',
                   MAILLE='M1',
                   REFERENCE='SOURCE_EXTERNE',
                   CRITERE='RELATIF',
                   PRECISION=5.E-2,
                   VALE_CALC=-1.0799676831475E+07,
                   VALE_REFE=-10842857.,),
               _F( RESULTAT=STAT,
                   NUME_ORDRE=18,
                   NOM_CHAM='EPSI_NOEU',
                   NOM_CMP='EPYY',
                   NOEUD='N1',
                   MAILLE='M1',
                   REFERENCE='SOURCE_EXTERNE',
                   CRITERE='RELATIF',
                   PRECISION=5.E-2,
                   VALE_CALC=-2.8625583039691E-04,
                   VALE_REFE=-0.0003,),
                _F(RESULTAT=STAT,
                   NUME_ORDRE=69,
                   NOM_CHAM='SIGM_NOEU',
                   NOM_CMP='SIYY',
                   NOEUD='N1',
                   MAILLE='M1',
                   REFERENCE='SOURCE_EXTERNE',
                   CRITERE='RELATIF',
                   PRECISION=5.E-2,
                   VALE_CALC=-4.1396614744838E+07,
                   VALE_REFE=-42428571.,),),)

FIN();
