# ======================================================================
# COPYRIGHT (C) 1991 - 2016  EDF R&D                  WWW.CODE-ASTER.ORG
# THIS PROGRAM IS FREE SOFTWARE; YOU CAN REDISTRIBUTE IT AND/OR MODIFY
# IT UNDER THE TERMS OF THE GNU GENERAL PUBLIC LICENSE AS PUBLISHED BY
# THE FREE SOFTWARE FOUNDATION; EITHER VERSION 2 OF THE LICENSE, OR
# (AT YOUR OPTION) ANY LATER VERSION.
#
# THIS PROGRAM IS DISTRIBUTED IN THE HOPE THAT IT WILL BE USEFUL, BUT
# WITHOUT ANY WARRANTY; WITHOUT EVEN THE IMPLIED WARRANTY OF
# MERCHANTABILITY OR FITNESS FOR A PARTICULAR PURPOSE. SEE THE GNU
# GENERAL PUBLIC LICENSE FOR MORE DETAILS.
#
# YOU SHOULD HAVE RECEIVED A COPY OF THE GNU GENERAL PUBLIC LICENSE
# ALONG WITH THIS PROGRAM; IF NOT, WRITE TO EDF R&D CODE_ASTER,
#    1 AVENUE DU GENERAL DE GAULLE, 92141 CLAMART CEDEX, FRANCE.
# ======================================================================

DEBUT(CODE=_F(NIV_PUB_WEB='INTERNET'),
      DEBUG=_F(SDVERI='OUI'),);

################
### MAILLAGE ###
################

MA0=LIRE_MAILLAGE(FORMAT = 'MED',);
                       
MA0=MODI_MAILLAGE(reuse =MA0,
                 MAILLAGE=MA0,
                 ORIE_PEAU_2D=(_F(GROUP_MA='SCO1',),
                               _F(GROUP_MA='SCO2',),),);

MA=CREA_MAILLAGE(MAILLAGE=MA0,
                 DECOUPE_LAC=_F(GROUP_MA_ESCL='SCO1',),);

##############
### MODELE ###
##############

MO=AFFE_MODELE(MAILLAGE=MA,
               AFFE=_F(TOUT='OUI',
                       PHENOMENE='MECANIQUE',
                       MODELISATION='D_PLAN',),);
#################
### MATERIAUX ###
#################

BASUP=DEFI_MATERIAU(ELAS=_F(E=1.0E5,
                             NU=0.3,
                             RHO=2.7E-5,),                             
                    ECRO_LINE=_F(D_SIGM_EPSI=9.0E4,
                                 SY=10.E100,),);

BAINF=DEFI_MATERIAU(ELAS=_F(E=1.0E3,
                             NU=0.3,
                             RHO=2.7E-5,),                             
                    ECRO_LINE=_F(D_SIGM_EPSI=9.0E2,
                                 SY=10.E100,),);

BLOCK=DEFI_MATERIAU(ELAS=_F(E=3.0E2,
                             NU=0.3,
                             RHO=2.7E-5,),                             
                    ECRO_LINE=_F(D_SIGM_EPSI=10.0,
                                 SY=10.E100,),);

CHMAT=AFFE_MATERIAU(MAILLAGE=MA,
                      MODELE=MO,
                      AFFE=(_F(GROUP_MA='BASUP',
                               MATER=BASUP,),
                            _F(GROUP_MA='BAINF',
                               MATER=BAINF,),
                            _F(GROUP_MA='BLOC',
                               MATER=BLOCK,),),);

########################
### CHARGEMENT ET CL ###
########################

CHA1=AFFE_CHAR_MECA(MODELE=MO,
                    DDL_IMPO=(_F(GROUP_MA='SU1',
                                 DX=0.0,
                                 DY=0.0,),
                              _F(GROUP_MA='DEPL',
                                 DX=0.0,
                                 DY=-90.0,),),);

RAMPE=DEFI_FONCTION(NOM_PARA='INST',
                    VALE=(0.0,0.0,
                          1.0,1.0,),
                          PROL_DROITE='LINEAIRE',
                          PROL_GAUCHE='LINEAIRE',);

###############
### CONTACT ###
###############
           


NGENE=DEFI_CONTACT(MODELE=MO,
                   FORMULATION='CONTINUE',
                   FROTTEMENT='SANS',
                   LISSAGE ='OUI',
                   RESI_GEOM = 1.0E-3,
                   ALGO_RESO_CONT = 'NEWTON',
                   ALGO_RESO_GEOM = 'NEWTON',
                   ZONE=_F(ALGO_CONT='LAC',
                           TYPE_JACOBIEN = "ACTUALISE",
                           GROUP_MA_MAIT='SCO2',
                           GROUP_MA_ESCL='SCO1',
                           ));


######################
### LISTE INSTANTS ###
######################

L_INST=DEFI_LIST_REEL(DEBUT=0.,
                      INTERVALLE=(_F(JUSQU_A=1.,
                                     NOMBRE=20,),),);

LINST=DEFI_LIST_INST(DEFI_LIST=_F(METHODE='MANUEL',
                                  LIST_INST=L_INST,),
                     ECHEC=_F(SUBD_PAS=5,
                              SUBD_NIVEAU=5,),);

##################
### RESOLUTION ###
##################

RESU=STAT_NON_LINE(MODELE=MO,
                   CHAM_MATER=CHMAT,
                   EXCIT=_F(CHARGE=CHA1,
                            FONC_MULT=RAMPE,),
                   CONTACT=NGENE,
                   COMPORTEMENT=_F(RELATION='VMIS_ISOT_LINE',
                                   DEFORMATION='PETIT_REAC',),
                   INCREMENT=_F(LIST_INST=LINST,),
                   CONVERGENCE=_F(ITER_GLOB_MAXI=50,
                                  RESI_GLOB_MAXI=5.E-1),
                   SOLVEUR=_F(ELIM_LAGR='NON',
                              METHODE='MUMPS',
                              RESI_RELA=1.E-6,
                              PCENT_PIVOT= 30),
                   NEWTON=_F(REAC_ITER=1,),);

#######################
### POST-TRAITEMENT ###
#######################

RESU=CALC_CHAMP(reuse=RESU,
                RESULTAT=RESU,
                CONTRAINTE=('SIEF_NOEU',),
                FORCE=('FORC_NODA','REAC_NODA'),
                CRITERES='SIEQ_NOEU');

pr_esc = [None]*5
l_inst =[.4,.6,.8,.9,1.]
for i in range(5):
    pr_esc[i]=CALC_PRESSION(MAILLAGE=MA,
                             RESULTAT=RESU,
                             GROUP_MA=('SCO1',),
                             INST=l_inst[i],
                             );


IMPR_RESU(UNITE=80,
          FORMAT='MED',
          RESU=_F(RESULTAT=RESU,),);

##################
### VALIDATION ###
##################

TEST_RESU(RESU=(_F(RESULTAT=RESU,
                   INST=0.40,
                   NOM_CHAM='DEPL',
                   NOM_CMP='DX',
                   GROUP_NO='PA',
                   CRITERE='ABSOLU',
                   VALE_CALC=-1.66048991819E-15,),
                _F(RESULTAT=RESU,
                   INST=0.60,
                   NOM_CHAM='DEPL',
                   NOM_CMP='DX',
                   GROUP_NO='PA',
                   CRITERE='ABSOLU',
                   VALE_CALC=-1.00157498103E-15,),
                _F(RESULTAT=RESU,
                   INST=0.80,
                   NOM_CHAM='DEPL',
                   NOM_CMP='DX',
                   GROUP_NO='PA',
                   CRITERE='ABSOLU',
                   VALE_CALC=-3.60914704699E-15,),
                _F(RESULTAT=RESU,
                   INST=0.90,
                   NOM_CHAM='DEPL',
                   NOM_CMP='DX',
                   GROUP_NO='PA',
                   CRITERE='ABSOLU',
                   VALE_CALC=-3.54828228629E-15,),
                _F(RESULTAT=RESU,
                   INST=1.00,
                   NOM_CHAM='DEPL',
                   NOM_CMP='DX',
                   GROUP_NO='PA',
                   CRITERE='ABSOLU',
                   VALE_CALC=-1.01661819597E-14,),
                _F(RESULTAT=RESU,
                   INST=0.40,
                   NOM_CHAM='DEPL',
                   NOM_CMP='DY',
                   GROUP_NO='PA',
                   VALE_CALC=-4.38953661357,),
                _F(RESULTAT=RESU,
                   INST=0.60,
                   NOM_CHAM='DEPL',
                   NOM_CMP='DY',
                   GROUP_NO='PA',
                   VALE_CALC=-2.8680623808,),
                _F(RESULTAT=RESU,
                   INST=0.80,
                   NOM_CHAM='DEPL',
                   NOM_CMP='DY',
                   GROUP_NO='PA',
                   VALE_CALC=0.520769200581,),
                _F(RESULTAT=RESU,
                   INST=0.90,
                   NOM_CHAM='DEPL',
                   NOM_CMP='DY',
                   GROUP_NO='PA',
                   VALE_CALC=0.473878691919,),
                _F(RESULTAT=RESU,
                   INST=1.00,
                   NOM_CHAM='DEPL',
                   NOM_CMP='DY',
                   GROUP_NO='PA',
                   VALE_CALC=0.510778107173,),
                _F(RESULTAT=RESU,
                   INST=0.40,
                   NOM_CHAM='DEPL',
                   NOM_CMP='DX',
                   GROUP_NO='PB',
                   CRITERE='ABSOLU',
                   VALE_CALC=0.14889944892,),
                _F(RESULTAT=RESU,
                   INST=0.60,
                   NOM_CHAM='DEPL',
                   NOM_CMP='DX',
                   GROUP_NO='PB',
                   CRITERE='ABSOLU',
                   VALE_CALC=0.0621550212986,),
                _F(RESULTAT=RESU,
                   INST=0.80,
                   NOM_CHAM='DEPL',
                   NOM_CMP='DX',
                   GROUP_NO='PB',
                   CRITERE='ABSOLU',
                   VALE_CALC=-0.363860274303,),
                _F(RESULTAT=RESU,
                   INST=0.90,
                   NOM_CHAM='DEPL',
                   NOM_CMP='DX',
                   GROUP_NO='PB',
                   CRITERE='ABSOLU',
                   VALE_CALC=-0.581425885014,),
                _F(RESULTAT=RESU,
                   INST=1.00,
                   NOM_CHAM='DEPL',
                   NOM_CMP='DX',
                   GROUP_NO='PB',
                   CRITERE='ABSOLU',
                   VALE_CALC=-0.608042676073,),
                _F(RESULTAT=RESU,
                   INST=0.40,
                   NOM_CHAM='DEPL',
                   NOM_CMP='DY',
                   GROUP_NO='PB',
                   VALE_CALC=-0.0696822934883,),
                _F(RESULTAT=RESU,
                   INST=0.60,
                   NOM_CHAM='DEPL',
                   NOM_CMP='DY',
                   GROUP_NO='PB',
                   VALE_CALC=-4.74671235423,),
                _F(RESULTAT=RESU,
                   INST=0.80,
                   NOM_CHAM='DEPL',
                   NOM_CMP='DY',
                   GROUP_NO='PB',
                   VALE_CALC=-11.9247436784,),
                _F(RESULTAT=RESU,
                   INST=0.90,
                   NOM_CHAM='DEPL',
                   NOM_CMP='DY',
                   GROUP_NO='PB',
                   VALE_CALC=-9.00425272452,),
                _F(RESULTAT=RESU,
                   INST=1.00,
                   NOM_CHAM='DEPL',
                   NOM_CMP='DY',
                   GROUP_NO='PB',
                   VALE_CALC=-10.0417082392,),
                ),);

TEST_RESU(CHAM_NO=(_F(CHAM_GD=pr_esc[0],
                      NOM_CMP='LAGS_C',
                      GROUP_NO='PA',
                      VALE_CALC=-38.0540781024,),
                   _F(CHAM_GD=pr_esc[1],
                      NOM_CMP='LAGS_C',
                      GROUP_NO='PA',
                      VALE_CALC=-20.9725592227,),
                   _F(CHAM_GD=pr_esc[2],
                      NOM_CMP='LAGS_C',
                      GROUP_NO='PA',
                      CRITERE='ABSOLU',
                      TOLE_MACHINE = 1e-2,
                      VALE_CALC=0.816493530878,),
                   _F(CHAM_GD=pr_esc[3],
                      NOM_CMP='LAGS_C',
                      GROUP_NO='PA',
                      CRITERE='ABSOLU',
                      TOLE_MACHINE = 1e-2,
                      VALE_CALC=0.270696939406,),
                   _F(CHAM_GD=pr_esc[4],
                      NOM_CMP='LAGS_C',
                      GROUP_NO='PA',
                      CRITERE='ABSOLU',
                      TOLE_MACHINE = 1e-2,
                      VALE_CALC=0.351288981919,),
                   _F(CHAM_GD=pr_esc[0],
                      NOM_CMP='LAGS_C',
                      GROUP_NO='PB',
                      CRITERE='ABSOLU',
                      TOLE_MACHINE = 1e-2,
                      VALE_CALC=0.499900286493,),
                   _F(CHAM_GD=pr_esc[1],
                      NOM_CMP='LAGS_C',
                      GROUP_NO='PB',
                      VALE_CALC=-41.5031676375,),
                   _F(CHAM_GD=pr_esc[2],
                      NOM_CMP='LAGS_C',
                      GROUP_NO='PB',
                      VALE_CALC=-119.336297656,),
                   _F(CHAM_GD=pr_esc[3],
                      NOM_CMP='LAGS_C',
                      GROUP_NO='PB',
                      VALE_CALC=-96.7796073035,),
                   _F(CHAM_GD=pr_esc[4],
                      NOM_CMP='LAGS_C',
                      GROUP_NO='PB',
                      VALE_CALC=-106.947679442,),
                   ),);



FIN();
