# MODIF  DATE 13/05/2008   AUTEUR MEUNIER S.MEUNIER 
# TITRE SIMULATION D'UNE PLAQUE TROUEE EN ELASTICITE - METHODE ARLEQUIN
#            CONFIGURATION MANAGEMENT OF EDF VERSION
# ======================================================================
# COPYRIGHT (C) 1991 - 2007  EDF R&D                  WWW.CODE-ASTER.ORG
# THIS PROGRAM IS FREE SOFTWARE; YOU CAN REDISTRIBUTE IT AND/OR MODIFY
# IT UNDER THE TERMS OF THE GNU GENERAL PUBLIC LICENSE AS PUBLISHED BY
# THE FREE SOFTWARE FOUNDATION; EITHER VERSION 2 OF THE LICENSE, OR
# (AT YOUR OPTION) ANY LATER VERSION.
#
# THIS PROGRAM IS DISTRIBUTED IN THE HOPE THAT IT WILL BE USEFUL, BUT
# WITHOUT ANY WARRANTY; WITHOUT EVEN THE IMPLIED WARRANTY OF
# MERCHANTABILITY OR FITNESS FOR A PARTICULAR PURPOSE. SEE THE GNU
# GENERAL PUBLIC LICENSE FOR MORE DETAILS.
#
# YOU SHOULD HAVE RECEIVED A COPY OF THE GNU GENERAL PUBLIC LICENSE
# ALONG WITH THIS PROGRAM; IF NOT, WRITE TO EDF R&D CODE_ASTER,
#    1 AVENUE DU GENERAL DE GAULLE, 92141 CLAMART CEDEX, FRANCE.
# ======================================================================
# ARLEQUIN : RACCORD 2D/2D INCOMPATIBLE.
#            MAILLAGES DE DENSITES DIFFERENTES

DEBUT(CODE=_F(NOM='SSNP135B', NIV_PUB_WEB='INTERNET'), DEBUG=_F(SDVERI='OUI'))

########################
# 1. Lecture du maillage
#    de la partie trouee
#    (patch Arlequin)
########################

PRE_GMSH(UNITE_GMSH=19,
         UNITE_MAILLAGE=20,);

MAIL1=LIRE_MAILLAGE(UNITE=20,);

########################
# 2. Lecture du maillage
#    de la plaque
########################

PRE_GMSH(UNITE_GMSH=22,
         UNITE_MAILLAGE=21,);

MAIL2=LIRE_MAILLAGE(UNITE=21,);

MAIL=ASSE_MAILLAGE(MAILLAGE_1=MAIL1,
                   MAILLAGE_2=MAIL2,
                   OPERATION='SUPERPOSE',);

MOD=AFFE_MODELE(MAILLAGE=MAIL,
                VERIF='MAILLE',
                AFFE=_F(TOUT='OUI',
                        PHENOMENE='MECANIQUE',
                        MODELISATION='C_PLAN',),);

MATER=DEFI_MATERIAU(ELAS=_F(E=1000.0,
                            NU=0.3,),);

CHMATER=AFFE_MATERIAU(MAILLAGE=MAIL,
                      AFFE=_F(TOUT='OUI',
                              MATER=MATER,),);

SYMET=AFFE_CHAR_MECA(MODELE=MOD,
                     FACE_IMPO=(_F(GROUP_MA=('GM1027','GM27',),
                                   DY=0.0,),
                                _F(GROUP_MA=('GM1029','GM29',),
                                   DX=0.0,),),);

F_Y = 1;

EFFORT=AFFE_CHAR_MECA(MODELE=MOD,
                      FORCE_CONTOUR=_F(GROUP_MA='GM26',
                                       FY=F_Y,),);

################################################
# 3. Creation des relations de couplage Arlequin
#    entre les groupes de mailles
#    GM111 (maillage fin) et
#    GM61 (maillage grossier)
#    Collage sur le modele fin
################################################

ARLQ=AFFE_CHAR_MECA(MODELE=MOD,
                    ARLEQUIN=_F(GROUP_MA_1='GM61',
                                GROUP_MA_2=('GM9','GM111',),
                                GROUP_MA_COLL='GM111',
                                COLLAGE='FIN',
                                POIDS_FIN=0.99,),);

RESU=MECA_STATIQUE(MODELE=MOD,
                   CHAM_MATER=CHMATER,
                   EXCIT=(_F(CHARGE=SYMET,),
                          _F(CHARGE=EFFORT,),
                          _F(CHARGE=ARLQ,),),
                   );

####################
# 4. POST-TRAITEMENT
####################

RESU=CALC_ELEM(reuse =RESU,
               RESULTAT=RESU,
               OPTION=('SIEF_ELNO_ELGA','EQUI_ELNO_SIGM',),);

RESU=CALC_NO(reuse =RESU,
             RESULTAT=RESU,
             OPTION=('SIEF_NOEU_ELGA','EQUI_NOEU_SIGM',),);

# A. SIGMA THETA AU BORD DU TROU

CERCLE=INTE_MAIL_2D(MAILLAGE=MAIL,
                    DEFI_CHEMIN=_F(GROUP_MA='GM28',),);

STHETA=POST_RELEVE_T(ACTION=_F(INTITULE='STHETA',
                               CHEMIN=CERCLE,
                               RESULTAT=RESU,
                               NOM_CHAM='SIEF_ELNO_ELGA',
                               NOM_CMP=('SIXX','SIYY','SIXY',),
                               REPERE='POLAIRE',
                               OPERATION='EXTRACTION',),);

# B. CONTRAINTES
# TROIS COMPARAISONS: ANALYTIQUE, NON-REGRESSION, SANS ARLEQUIN

sigth1 = 3.0
signr1 = 2.9782054698380E+00
sigsa1 = 3.02275E+00

TEST_TABLE(TABLE=STHETA,
           FILTRE = _F(NOM_PARA='COOR_X',VALE=1.00000E+01),
           NOM_PARA='SIYY',
           VALE = sigth1,
           REFERENCE= 'ANALYTIQUE',
           CRITERE = 'RELATIF',
           PRECISION = 0.01,);

TEST_TABLE(TABLE=STHETA,
           FILTRE = _F(NOM_PARA='COOR_X',VALE=1.00000E+01),
           NOM_PARA='SIYY',
           VALE = signr1,
           REFERENCE= 'NON_REGRESSION',
           VERSION  = '8.3.19',
           CRITERE = 'RELATIF',
           PRECISION = 1E-10,);

TEST_TABLE(TABLE=STHETA,
           FILTRE = _F(NOM_PARA='COOR_X',VALE=1.00000E+01),
           NOM_PARA='SIYY',
           VALE = sigsa1,
           REFERENCE= 'AUTRE_ASTER',
           CRITERE = 'RELATIF',
           PRECISION = 0.015,);

sigth2 = -1.0
signr2 = -9.4424095959215E-01
sigsa2 = -9.66034E-01

TEST_TABLE(TABLE=STHETA,
           FILTRE = _F(NOM_PARA='COOR_Y',VALE=1.00000E+01),
           NOM_PARA='SIYY',
           VALE = sigth2,
           REFERENCE= 'ANALYTIQUE',
           CRITERE = 'RELATIF',
           PRECISION = 0.06,);

TEST_TABLE(TABLE=STHETA,
           FILTRE = _F(NOM_PARA='COOR_Y',VALE=1.00000E+01),
           NOM_PARA='SIYY',
           VALE = signr2,
           REFERENCE= 'NON_REGRESSION',
           VERSION  = '8.3.20',
           CRITERE = 'RELATIF',
           PRECISION = 1E-10,);

TEST_TABLE(TABLE=STHETA,
           FILTRE = _F(NOM_PARA='COOR_Y',VALE=1.00000E+01),
           NOM_PARA='SIYY',
           VALE = sigsa2,
           REFERENCE= 'AUTRE_ASTER',
           CRITERE = 'RELATIF',
           PRECISION = 0.023,);

# C. DEPLACEMENTS
# DEUX COMPARAISONS: NON-REGRESSION ET SANS ARLEQUIN

HAUT=INTE_MAIL_2D(MAILLAGE=MAIL,
                    DEFI_CHEMIN=_F(GROUP_MA='GM26',),);

DPL_H=POST_RELEVE_T(ACTION=_F(INTITULE='STHETA',
                               CHEMIN=HAUT,
                               RESULTAT=RESU,
                               NOM_CHAM='DEPL',
                               NOM_CMP=('DY',),
                               OPERATION='EXTRACTION',),);

depsa1 = 1.51067E-01
depnr1 = 1.5153074197663E-01

TEST_TABLE(TABLE=DPL_H,
           FILTRE = _F(NOM_PARA='COOR_X',VALE=1.00000E+02),
           NOM_PARA='DY',
           VALE = depsa1,
           REFERENCE= 'AUTRE_ASTER',
           CRITERE = 'RELATIF',
           PRECISION = 0.004,);

TEST_TABLE(TABLE=DPL_H,
           FILTRE = _F(NOM_PARA='COOR_X',VALE=1.00000E+02),
           NOM_PARA='DY',
           VALE = depnr1,
           REFERENCE= 'NON_REGRESSION',
           VERSION  = '8.3.19',
           CRITERE = 'RELATIF',
           PRECISION = 1E-12,);

depsa2 = 1.53288E-01
depnr2 = 1.5325113035196E-01

TEST_TABLE(TABLE=DPL_H,
           FILTRE = _F(NOM_PARA='COOR_X',VALE=0.00000E+02),
           NOM_PARA='DY',
           VALE = depsa2,
           REFERENCE= 'AUTRE_ASTER',
           CRITERE = 'RELATIF',
           PRECISION = 0.0003,);

TEST_TABLE(TABLE=DPL_H,
           FILTRE = _F(NOM_PARA='COOR_X',VALE=0.00000E+02),
           NOM_PARA='DY',
           VALE = depnr2,
           REFERENCE= 'NON_REGRESSION',
           VERSION  = '8.3.19',
           CRITERE = 'RELATIF',
           PRECISION = 1E-12,);
FIN();

