# MODIF  DATE 11/06/2012   AUTEUR DELMAS J.DELMAS 
# TITRE ESSAI DE TRACTION-CISAILLEMENT (MISES ECR. ISOT. COQUE3D)
#            CONFIGURATION MANAGEMENT OF EDF VERSION
# ======================================================================
# COPYRIGHT (C) 1991 - 2012  EDF R&D                  WWW.CODE-ASTER.ORG
# THIS PROGRAM IS FREE SOFTWARE; YOU CAN REDISTRIBUTE IT AND/OR MODIFY
# IT UNDER THE TERMS OF THE GNU GENERAL PUBLIC LICENSE AS PUBLISHED BY
# THE FREE SOFTWARE FOUNDATION; EITHER VERSION 2 OF THE LICENSE, OR
# (AT YOUR OPTION) ANY LATER VERSION.
#
# THIS PROGRAM IS DISTRIBUTED IN THE HOPE THAT IT WILL BE USEFUL, BUT
# WITHOUT ANY WARRANTY; WITHOUT EVEN THE IMPLIED WARRANTY OF
# MERCHANTABILITY OR FITNESS FOR A PARTICULAR PURPOSE. SEE THE GNU
# GENERAL PUBLIC LICENSE FOR MORE DETAILS.
#
# YOU SHOULD HAVE RECEIVED A COPY OF THE GNU GENERAL PUBLIC LICENSE
# ALONG WITH THIS PROGRAM; IF NOT, WRITE TO EDF R&D CODE_ASTER,
#    1 AVENUE DU GENERAL DE GAULLE, 92141 CLAMART CEDEX, FRANCE.
# ======================================================================

DEBUT(CODE=_F(NOM='SSNP15D', NIV_PUB_WEB='INTERNET'), DEBUG=_F(SDVERI='OUI'))

#......................................................................
# PLAQUE CARREE EN TRACTION CISAILLEMENT CALCUL COQUE_3D EN MEMBRANE
# ELASTOPLASTICITE ISOTROPE VON MISES   (2 MEC3TR7H ET 1 MEC4QU9H)
#......................................................................

M=LIRE_MAILLAGE();

M=DEFI_GROUP(reuse =M,
             MAILLAGE=M,
             CREA_GROUP_MA=_F(NOM='TOUT',
                              TOUT='OUI',),);

MO=AFFE_MODELE(MAILLAGE=M,
               VERIF='MAILLE',
               AFFE=_F(TOUT='OUI',
                       PHENOMENE='MECANIQUE',
                       MODELISATION='COQUE_3D',),);

CARAC=AFFE_CARA_ELEM(MODELE=MO,
                     COQUE=_F(GROUP_MA='TOUT',
                              EPAIS=2.,
                              ANGL_REP=(10.0,43.0,),
                              A_CIS=0.8333333333,
                              COQUE_NCOU=1,),);

ACIER=DEFI_MATERIAU(ELAS=_F(E=195000.,
                            NU=0.3,),
                    ECRO_LINE=_F(D_SIGM_EPSI=1930.,
                                 SY=181.,),);

CM=AFFE_MATERIAU(MAILLAGE=M,
                 AFFE=_F(TOUT='OUI',
                         MATER=ACIER,),);

SIGMA_F=DEFI_FONCTION(NOM_PARA='INST',VALE=(0.0,0.0,
                            1.0,151.2,
                            ),PROL_DROITE='EXCLU',PROL_GAUCHE='EXCLU',);

TAU_F=DEFI_FONCTION(NOM_PARA='INST',VALE=(0.0,0.0,
                          1.0,93.1,
                          ),PROL_DROITE='EXCLU',PROL_GAUCHE='EXCLU',);

TRACTION=AFFE_CHAR_MECA(MODELE=MO,
                        FORCE_ARETE=_F(MAILLE='GAUCHE',
                                       FY=-1.2,
                                       FZ=-1.6,),);

CISAIL=AFFE_CHAR_MECA(MODELE=MO,
                      FORCE_ARETE=(_F(MAILLE='GAUCHE',
                                      FY=1.6,
                                      FZ=-1.2,),
                                   _F(MAILLE='DROITE',
                                      FY=-1.6,
                                      FZ=1.2,),
                                   _F(GROUP_MA='HAUT',
                                      FY=1.2,
                                      FZ=1.6,),
                                   _F(GROUP_MA='BAS',
                                      FY=-1.2,
                                      FZ=-1.6,),),);

LIAISON=AFFE_CHAR_MECA(MODELE=MO,
                       DDL_IMPO=(_F(NOEUD='NO4',
                                    DX=0.,
                                    DY=0.,
                                    DZ=0.,
                                    DRX=0.,
                                    DRY=0.,
                                    DRZ=0.,),
                                 _F(NOEUD='NO2',
                                    DRX=0.,
                                    DRY=0.,
                                    DRZ=0.,),
                                 _F(NOEUD='NO7',
                                    DRX=0.,
                                    DRY=0.,
                                    DRZ=0.,),),
                       LIAISON_DDL=(_F(NOEUD=('NO2','NO2',),
                                       DDL=('DY','DZ',),
                                       COEF_MULT=(0.75,1.,),
                                       COEF_IMPO=0.,),
                                    _F(NOEUD=('NO7','NO7',),
                                       DDL=('DY','DZ',),
                                       COEF_MULT=(0.75,1.,),
                                       COEF_IMPO=0.,),),);

RAMPE=DEFI_FONCTION(NOM_PARA='INST',
                    VALE=(0.0,0.0,1.0,1.0,),
                    PROL_DROITE='LINEAIRE',
                    PROL_GAUCHE='LINEAIRE',);

L_INST=DEFI_LIST_REEL(DEBUT=0.0,
                      INTERVALLE=_F(JUSQU_A=1.0,
                                    NOMBRE=1,),);
# STAT_NON_LINE 'VMIS_ISOT_LINE'
#-------------------------------

U=STAT_NON_LINE(MODELE=MO,
                CHAM_MATER=CM,
                CARA_ELEM=CARAC,
                EXCIT=(_F(CHARGE=LIAISON,),
                       _F(CHARGE=TRACTION,
                          FONC_MULT=SIGMA_F,),
                       _F(CHARGE=CISAIL,
                          FONC_MULT=TAU_F,),),
                COMP_INCR=_F(RELATION='VMIS_ISOT_LINE',
                             RESI_INTE_RELA=1.E-6,
                             ITER_INTE_MAXI=30,),
                INCREMENT=_F(LIST_INST=L_INST,),
                NEWTON=_F(MATRICE='TANGENTE',
                          REAC_ITER=3,),
                RECH_LINEAIRE=_F(RHO_MAX=150,),);

U=CALC_CHAMP(reuse=U,
             RESULTAT=U,
             CONTRAINTE =('SIGM_ELGA','SIGM_ELNO','EFGE_ELNO'),
             DEFORMATION='EPSI_ELNO',
             VARI_INTERNE ='VARI_ELNO',);

USUP=POST_CHAMP(RESULTAT=U,
                EXTR_COQUE=_F(NOM_CHAM=('SIGM_ELNO','EPSI_ELNO','VARI_ELNO'),
                              NUME_COUCHE=1,
                              NIVE_COUCHE='SUP',),);

UINF=POST_CHAMP(RESULTAT=U,
                TOUT_ORDRE='OUI',
                GROUP_MA='TOUT',
                EXTR_COQUE=_F(NOM_CHAM='VARI_ELNO',
                              NUME_COUCHE=1,
                              NIVE_COUCHE='INF',),);
UMOY=POST_CHAMP(RESULTAT=U,
                TOUT_ORDRE='OUI',
                GROUP_MA='TOUT',
                EXTR_COQUE=_F(NOM_CHAM=('EPSI_ELNO','VARI_ELNO',),
                              NUME_COUCHE=1,
                              NIVE_COUCHE='MOY',),);


SIGMGAUS=MODI_REPERE(RESULTAT=U,
                     MODI_CHAM=_F(TYPE_CHAM='TENS_3D',
                                  NOM_CHAM='SIGM_ELGA',
                                  NOM_CMP=('SIXX','SIYY','SIZZ','SIXY','SIXZ','SIYZ',),),
                     REPERE='COQUE',
                     AFFE=_F(ANGL_REP=(90.0,-53.13,),),);

SIGM=MODI_REPERE(RESULTAT=USUP,
                 MODI_CHAM=_F(TYPE_CHAM='TENS_3D',
                              NOM_CHAM='SIGM_ELNO',
                              NOM_CMP=('SIXX','SIYY','SIZZ','SIXY','SIXZ','SIYZ',),),
                 REPERE='COQUE',
                 AFFE=_F(ANGL_REP=(90.0,-53.13,),),);

EPSI=MODI_REPERE(RESULTAT=USUP,
                 MODI_CHAM=_F(TYPE_CHAM='TENS_3D',
                              NOM_CHAM='EPSI_ELNO',
                              NOM_CMP=('EPXX','EPYY','EPZZ','EPXY','EPXZ','EPYZ',),),
                 REPERE='COQUE',
                 AFFE=_F(ANGL_REP=(90.0,-53.13,),),);

EFGE=MODI_REPERE(RESULTAT=U,
                 MODI_CHAM=_F(TYPE_CHAM='COQUE_GENE',
                              NOM_CHAM='EFGE_ELNO',
                              NOM_CMP=('NXX','NYY','NXY','MXX','MYY','MXY','QX','QY',),),
                 REPERE='COQUE',
                 AFFE=_F(ANGL_REP=(90.0,-53.13,),),);

U=CALC_ELEM(reuse =U,
            RESULTAT=USUP,
            TOUT_ORDRE='OUI',
            REPE_COQUE=_F(NUME_COUCHE=1,
                          NIVE_COUCHE='SUP',),
            OPTION='SIEQ_ELNO',);

TEST_RESU(RESU=(_F(
                   RESULTAT = U,  NOM_CHAM = 'DEPL',  NOEUD = 'NO1',
                   INST = 1.,    NOM_CMP = 'DY',
                   VALE = 1.8672237E-02,   PRECISION = 1.E-06),
                  _F(
                   RESULTAT = U,  NOM_CHAM = 'DEPL',  NOEUD = 'NO1',
                   INST = 1.,    NOM_CMP = 'DZ',
                   VALE = -3.2541319E-02,   PRECISION = 1.E-06),
                  _F(
                   RESULTAT = U,  NOM_CHAM = 'DEPL',  NOEUD = 'NO8',
                   INST = 1.,    NOM_CMP = 'DY',
                   VALE = 1.2240029E-02,   PRECISION = 1.E-06),
                  _F(
                   RESULTAT = U,  NOM_CHAM = 'DEPL',  NOEUD = 'NO8',
                   INST = 1.,    NOM_CMP = 'DZ',
                   VALE = -1.8448593E-02,   PRECISION = 1.E-06),
                  _F(
                   RESULTAT = U,  NOM_CHAM = 'DEPL',  NOEUD = 'NO2',
                   INST = 1.,    NOM_CMP = 'DY',
                   VALE = 5.807823904E-03, PRECISION = 1.E-06),
                  _F(
                   RESULTAT = U,  NOM_CHAM = 'DEPL',  NOEUD = 'NO2',
                   INST = 1.,    NOM_CMP = 'DZ',
                   VALE = -4.355867928E-03, PRECISION = 1.E-06))
             )

TEST_RESU(RESU=(_F(
                   RESULTAT = SIGM,  NOM_CHAM = 'SIGM_ELNO',
                   MAILLE = 'MA1',  NOEUD = 'NO1',
                   INST = 1.,     NOM_CMP = 'SIXX',
                   VALE = 1.512E+02,      PRECISION = 1.E-02),
                  _F(
                   RESULTAT = SIGM,   NOM_CHAM = 'SIGM_ELNO',
                   MAILLE = 'MA1',   NOEUD = 'NO1',
                   INST = 1.,      NOM_CMP = 'SIXY',
                   VALE = 0.931E+02,      PRECISION = 1.E-02),
                  _F(
                   RESULTAT = SIGM,   NOM_CHAM = 'SIGM_ELNO',
                   MAILLE = 'MA1',   NOEUD = 'NO3',
                   INST = 1.,      NOM_CMP = 'SIXX',
                   VALE = 1.512E+02,      PRECISION = 1.E-02),
                  _F(
                   RESULTAT = SIGM,   NOM_CHAM = 'SIGM_ELNO',
                   MAILLE = 'MA1',  NOEUD = 'NO3',
                   INST = 1.,      NOM_CMP = 'SIXY',
                   VALE = 0.931E+02,      PRECISION = 1.E-02),
                  _F(
                   RESULTAT = SIGM,   NOM_CHAM = 'SIGM_ELNO',
                   MAILLE = 'MA2',   NOEUD = 'NO3',
                   INST = 1.,      NOM_CMP = 'SIXX',
                   VALE = 1.512E+02,      PRECISION = 1.E-02),
                  _F(
                   RESULTAT = SIGM,   NOM_CHAM = 'SIGM_ELNO',
                   MAILLE = 'MA2',   NOEUD = 'NO3',
                   INST = 1.,      NOM_CMP = 'SIXY',
                   VALE = 0.931E+02,      PRECISION = 1.E-02),
                  _F(
                   RESULTAT = SIGM,   NOM_CHAM = 'SIGM_ELNO',
                   MAILLE = 'MA3',   NOEUD = 'NO2',
                   INST = 1.,      NOM_CMP = 'SIXX',
                   VALE = 1.512E+02,      PRECISION = 1.E-02),
                  _F(
                   RESULTAT = SIGM,   NOM_CHAM = 'SIGM_ELNO',
                   MAILLE = 'MA3',   NOEUD = 'NO2',
                   INST = 1.,      NOM_CMP = 'SIXY',
                   VALE = 0.931E+02,      PRECISION = 1.E-02),
                  _F(
                   RESULTAT = SIGM,   NOM_CHAM = 'SIGM_ELNO',
                   MAILLE = 'MA3',   NOEUD = 'NO4',
                   INST = 1.,      NOM_CMP = 'SIXX',
                   VALE = 1.512E+02,      PRECISION = 1.E-02),
                  _F(
                   RESULTAT = SIGM,   NOM_CHAM = 'SIGM_ELNO',
                   MAILLE = 'MA3',   NOEUD = 'NO4',
                   INST = 1.,      NOM_CMP = 'SIXY',
                   VALE = 0.931E+02,      PRECISION = 1.E-02))
            )


TEST_RESU(RESU=(_F(
                   RESULTAT = EPSI,  NOM_CHAM = 'EPSI_ELNO',
                   MAILLE = 'MA1',  NOEUD = 'NO1',
                   INST = 1.,     NOM_CMP = 'EPXX',
                   VALE = 1.4829713E-02,  PRECISION = 1.E-04),
                  _F(
                   RESULTAT = EPSI,  NOM_CHAM = 'EPSI_ELNO',
                   MAILLE = 'MA1',  NOEUD = 'NO1',
                   INST = 1.,     NOM_CMP = 'EPYY',
                   VALE = -7.25977988E-03,  PRECISION = 1.E-04),
                  _F(
                   RESULTAT = EPSI,   NOM_CHAM = 'EPSI_ELNO',
                   MAILLE = 'MA1',   NOEUD = 'NO1',
                   INST = 1.,      NOM_CMP = 'EPXY',
                   VALE = 1.3601401E-02,   PRECISION = 1.E-04),
                  _F(
                   RESULTAT = EPSI,   NOM_CHAM = 'EPSI_ELNO',
                   MAILLE = 'MA1',   NOEUD = 'NO3',
                   INST = 1.,     NOM_CMP = 'EPXX',
                   VALE = 1.4829713E-02,  PRECISION = 1.E-04),
                  _F(
                   RESULTAT = EPSI,  NOM_CHAM = 'EPSI_ELNO',
                   MAILLE = 'MA1',  NOEUD = 'NO3',
                   INST = 1.,     NOM_CMP = 'EPYY',
                   VALE = -7.25977988E-03,  PRECISION = 1.E-04),
                  _F(
                   RESULTAT = EPSI,   NOM_CHAM = 'EPSI_ELNO',
                   MAILLE = 'MA1',  NOEUD = 'NO3',
                   INST = 1.,      NOM_CMP = 'EPXY',
                   VALE = 1.3601401E-02,   PRECISION = 1.E-04),
                  _F(
                   RESULTAT = EPSI,   NOM_CHAM = 'EPSI_ELNO',
                   MAILLE = 'MA2',   NOEUD = 'NO3',
                   INST = 1.,     NOM_CMP = 'EPXX',
                   VALE = 1.4829713E-02,  PRECISION = 1.E-04),
                  _F(
                   RESULTAT = EPSI,  NOM_CHAM = 'EPSI_ELNO',
                   MAILLE = 'MA2',  NOEUD = 'NO3',
                   INST = 1.,     NOM_CMP = 'EPYY',
                   VALE = -7.25977988E-03,  PRECISION = 1.E-04),
                  _F(
                   RESULTAT = EPSI,   NOM_CHAM = 'EPSI_ELNO',
                   MAILLE = 'MA2',   NOEUD = 'NO3',
                   INST = 1.,      NOM_CMP = 'EPXY',
                   VALE = 1.3601401E-02,   PRECISION = 1.E-04),
                  _F(
                   RESULTAT = EPSI,   NOM_CHAM = 'EPSI_ELNO',
                   MAILLE = 'MA3',   NOEUD = 'NO2',
                   INST = 1.,     NOM_CMP = 'EPXX',
                   VALE = 1.4829713E-02,  PRECISION = 1.E-04),
                  _F(
                   RESULTAT = EPSI,  NOM_CHAM = 'EPSI_ELNO',
                   MAILLE = 'MA3',  NOEUD = 'NO2',
                   INST = 1.,     NOM_CMP = 'EPYY',
                   VALE = -7.25977988E-03,  PRECISION = 1.E-04),
                  _F(
                   RESULTAT = EPSI,   NOM_CHAM = 'EPSI_ELNO',
                   MAILLE = 'MA3',   NOEUD = 'NO2',
                   INST = 1.,      NOM_CMP = 'EPXY',
                   VALE = 1.3601401E-02,   PRECISION = 1.E-04),
                  _F(
                   RESULTAT = EPSI,   NOM_CHAM = 'EPSI_ELNO',
                   MAILLE = 'MA3',   NOEUD = 'NO4',
                   INST = 1.,     NOM_CMP = 'EPXX',
                   VALE = 1.4829713E-02,  PRECISION = 1.E-04),
                  _F(
                   RESULTAT = EPSI,  NOM_CHAM = 'EPSI_ELNO',
                   MAILLE = 'MA3',  NOEUD = 'NO4',
                   INST = 1.,     NOM_CMP = 'EPYY',
                   VALE = -7.25977988E-03,  PRECISION = 1.E-04),
                  _F(
                   RESULTAT = EPSI,   NOM_CHAM = 'EPSI_ELNO',
                   MAILLE = 'MA3',   NOEUD = 'NO4',
                   INST = 1.,      NOM_CMP = 'EPXY',
                   VALE = 1.3601401E-02,   PRECISION = 1.E-04))
            )

TEST_RESU(RESU=(_F(
                   RESULTAT = EFGE,  NOM_CHAM = 'EFGE_ELNO',
                   MAILLE = 'MA1',  NOEUD = 'NO1',
                   INST = 1.,     NOM_CMP = 'NXX',
                   VALE = 3.024E+02,      PRECISION = 1.E-02),
                  _F(
                   RESULTAT = EFGE,   NOM_CHAM = 'EFGE_ELNO',
                   MAILLE = 'MA1',   NOEUD = 'NO1',
                   INST = 1.,      NOM_CMP = 'NXY',
                   VALE = 1.862E+02,      PRECISION = 1.E-02),
                  _F(
                   RESULTAT = EFGE,   NOM_CHAM = 'EFGE_ELNO',
                   MAILLE = 'MA1',   NOEUD = 'NO3',
                   INST = 1.,      NOM_CMP = 'NXX',
                   VALE = 3.024E+02,      PRECISION = 1.E-02),
                  _F(
                   RESULTAT = EFGE,   NOM_CHAM = 'EFGE_ELNO',
                   MAILLE = 'MA1',  NOEUD = 'NO3',
                   INST = 1.,      NOM_CMP = 'NXY',
                   VALE = 1.862E+02,      PRECISION = 1.E-02),
                  _F(
                   RESULTAT = EFGE,   NOM_CHAM = 'EFGE_ELNO',
                   MAILLE = 'MA2',   NOEUD = 'NO3',
                   INST = 1.,      NOM_CMP = 'NXX',
                   VALE = 3.024E+02,      PRECISION = 1.E-02),
                  _F(
                   RESULTAT = EFGE,   NOM_CHAM = 'EFGE_ELNO',
                   MAILLE = 'MA2',   NOEUD = 'NO3',
                   INST = 1.,      NOM_CMP = 'NXY',
                   VALE = 1.862E+02,      PRECISION = 1.E-02),
                  _F(
                   RESULTAT = EFGE,   NOM_CHAM = 'EFGE_ELNO',
                   MAILLE = 'MA3',   NOEUD = 'NO2',
                   INST = 1.,      NOM_CMP = 'NXX',
                   VALE = 3.024E+02,      PRECISION = 1.E-02),
                  _F(
                   RESULTAT = EFGE,   NOM_CHAM = 'EFGE_ELNO',
                   MAILLE = 'MA3',   NOEUD = 'NO2',
                   INST = 1.,      NOM_CMP = 'NXY',
                   VALE = 1.862E+02,      PRECISION = 1.E-02),
                  _F(
                   RESULTAT = EFGE,   NOM_CHAM = 'EFGE_ELNO',
                   MAILLE = 'MA3',   NOEUD = 'NO4',
                   INST = 1.,      NOM_CMP = 'NXX',
                   VALE = 3.024E+02,      PRECISION = 1.E-02),
                  _F(
                   RESULTAT = EFGE,   NOM_CHAM = 'EFGE_ELNO',
                   MAILLE = 'MA3',   NOEUD = 'NO4',
                   INST = 1.,      NOM_CMP = 'NXY',
                   VALE = 1.862E+02,      PRECISION = 1.E-02))
            )

TEST_RESU(RESU=(_F(
                   RESULTAT = U,  NOM_CHAM = 'VARI_ELNO',
                   MAILLE = 'MA1',  NOEUD = 'NO14',
                   INST = 1.,
                   NOM_CMP = 'V1', SOUS_POINT=1,
                   VALE = 2.055E-02,      PRECISION = 1.E-02),
                 _F(
                   RESULTAT = U,  NOM_CHAM = 'VARI_ELNO',
                   MAILLE = 'MA2',  NOEUD = 'NO13',
                   INST = 1.,
                   NOM_CMP = 'V1', SOUS_POINT=1,
                   VALE = 2.055E-02,      PRECISION = 1.E-02),
                 _F(
                   RESULTAT = U,  NOM_CHAM = 'VARI_ELNO',
                   MAILLE = 'MA3',  NOEUD = 'NO17',
                   INST = 1.,
                   NOM_CMP = 'V1', SOUS_POINT=1,
                   VALE = 2.055E-02,      PRECISION = 1.E-02))
            )


TEST_RESU(RESU=(
            _F(  RESULTAT = UINF,  NOM_CHAM = 'VARI_ELNO',  INST = 1.,   TYPE_TEST='MIN',
             CRITERE = 'ABSOLU',    PRECISION = 1.E-6,     NOM_CMP = 'V1',         VALE = 2.05473E-02),
            _F(  RESULTAT = UINF,  NOM_CHAM = 'VARI_ELNO',  INST = 1.,   TYPE_TEST='MAX',
             CRITERE = 'ABSOLU',    PRECISION = 1.E-6,     NOM_CMP = 'V1',         VALE = 2.05473E-02),
            _F(  RESULTAT = UINF,  NOM_CHAM = 'VARI_ELNO',  INST = 1.,   TYPE_TEST='MIN',
             CRITERE = 'ABSOLU',    PRECISION = 1.E-6,     NOM_CMP = 'V2',         VALE = 1.00000E+00),
            _F(  RESULTAT = UINF,  NOM_CHAM = 'VARI_ELNO',  INST = 1.,   TYPE_TEST='MAX',
             CRITERE = 'ABSOLU',    PRECISION = 1.E-6,     NOM_CMP = 'V2',         VALE = 1.00000E+00),
             ),)

TEST_RESU(RESU=(
            _F(  RESULTAT = UMOY,  NOM_CHAM = 'VARI_ELNO',  INST = 1.,   TYPE_TEST='MIN',
             CRITERE = 'ABSOLU',    PRECISION = 1.E-6,     NOM_CMP = 'V1',         VALE = 2.05473E-02),
            _F(  RESULTAT = UMOY,  NOM_CHAM = 'VARI_ELNO',  INST = 1.,   TYPE_TEST='MAX',
             CRITERE = 'ABSOLU',    PRECISION = 1.E-6,     NOM_CMP = 'V1',         VALE = 2.05473E-02),
            _F(  RESULTAT = UMOY,  NOM_CHAM = 'VARI_ELNO',  INST = 1.,   TYPE_TEST='MIN',
             CRITERE = 'ABSOLU',    PRECISION = 1.E-6,     NOM_CMP = 'V2',         VALE = 1.00000E+00),
            _F(  RESULTAT = UMOY,  NOM_CHAM = 'VARI_ELNO',  INST = 1.,   TYPE_TEST='MAX',
             CRITERE = 'ABSOLU',    PRECISION = 1.E-6,     NOM_CMP = 'V2',         VALE = 1.00000E+00),
             ),)

TEST_RESU(RESU=(
            _F(  RESULTAT = USUP,  NOM_CHAM = 'VARI_ELNO',  INST = 1.,   TYPE_TEST='MIN',
             CRITERE = 'ABSOLU',    PRECISION = 1.E-6,     NOM_CMP = 'V1',         VALE = 2.05473E-02),
            _F(  RESULTAT = USUP,  NOM_CHAM = 'VARI_ELNO',  INST = 1.,   TYPE_TEST='MAX',
             CRITERE = 'ABSOLU',    PRECISION = 1.E-6,     NOM_CMP = 'V1',         VALE = 2.05473E-02),
            _F(  RESULTAT = USUP,  NOM_CHAM = 'VARI_ELNO',  INST = 1.,   TYPE_TEST='MIN',
             CRITERE = 'ABSOLU',    PRECISION = 1.E-6,     NOM_CMP = 'V2',         VALE = 1.00000E+00),
            _F(  RESULTAT = USUP,  NOM_CHAM = 'VARI_ELNO',  INST = 1.,   TYPE_TEST='MAX',
             CRITERE = 'ABSOLU',    PRECISION = 1.E-6,     NOM_CMP = 'V2',         VALE = 1.00000E+00),
             ),)




TEST_RESU(RESU=(_F(
                   RESULTAT = U,  NOM_CHAM = 'SIEQ_ELNO',REFERENCE='AUTRE_ASTER',
                   MAILLE = 'MA1',  NOEUD = 'NO1',
                   INST = 1.,     NOM_CMP = 'VMIS',
                   VALE = 2.21053E+02,      PRECISION = 1.E-02),
                  _F(
                   RESULTAT = U,   NOM_CHAM = 'SIEQ_ELNO',REFERENCE='AUTRE_ASTER',
                   MAILLE = 'MA1',   NOEUD = 'NO1',
                   INST = 1.,      NOM_CMP = 'PRIN_1',
                   VALE = -4.43290E+01,      PRECISION = 1.E-02),
                  _F(
                   RESULTAT = U,   NOM_CHAM = 'SIEQ_ELNO',REFERENCE='AUTRE_ASTER',
                   MAILLE = 'MA1',   NOEUD = 'NO1',
                   INST = 1.,      NOM_CMP = 'PRIN_3',
                   VALE = 1.95529E+02,      PRECISION = 1.E-02),
                   ),)


TEST_RESU(RESU=(_F(
                   RESULTAT = SIGMGAUS,  NOM_CHAM = 'SIGM_ELGA',
                   MAILLE = 'MA3',  POINT = 2,SOUS_POINT=3,
                   INST = 1.,     NOM_CMP = 'SIXX',
                   VALE = 1.512E+02,      PRECISION = 1.E-02),
                  _F(
                   RESULTAT = SIGMGAUS,  NOM_CHAM = 'SIGM_ELGA',
                   MAILLE = 'MA3',  POINT = 2,SOUS_POINT=3,
                   INST = 1.,     NOM_CMP = 'SIXY',
                   VALE = 0.931E+02,      PRECISION = 1.E-02))
            )


FIN()
