# MODIF  DATE 08/10/2007   AUTEUR NISTOR I.NISTOR 
# TITRE CONTACT EN GRANDS GLISSEMENTS AVEC X-FEM POUR DES FISSURES
#            CONFIGURATION MANAGEMENT OF EDF VERSION
# ======================================================================
# COPYRIGHT (C) 1991 - 2007  EDF R&D                  WWW.CODE-ASTER.ORG
# THIS PROGRAM IS FREE SOFTWARE; YOU CAN REDISTRIBUTE IT AND/OR MODIFY  
# IT UNDER THE TERMS OF THE GNU GENERAL PUBLIC LICENSE AS PUBLISHED BY  
# THE FREE SOFTWARE FOUNDATION; EITHER VERSION 2 OF THE LICENSE, OR     
# (AT YOUR OPTION) ANY LATER VERSION.                                                    
#                                                                       
# THIS PROGRAM IS DISTRIBUTED IN THE HOPE THAT IT WILL BE USEFUL, BUT   
# WITHOUT ANY WARRANTY; WITHOUT EVEN THE IMPLIED WARRANTY OF            
# MERCHANTABILITY OR FITNESS FOR A PARTICULAR PURPOSE. SEE THE GNU      
# GENERAL PUBLIC LICENSE FOR MORE DETAILS.                              
#                                                                       
# YOU SHOULD HAVE RECEIVED A COPY OF THE GNU GENERAL PUBLIC LICENSE     
# ALONG WITH THIS PROGRAM; IF NOT, WRITE TO EDF R&D CODE_ASTER,         
#    1 AVENUE DU GENERAL DE GAULLE, 92141 CLAMART CEDEX, FRANCE.        
# ======================================================================
#                          HORIZONTALES


DEBUT(CODE=_F(NOM='SSNP503A',NIV_PUB_WEB='INTERNET'),DEBUG=_F(SDVERI='OUI'));

PRE_GIBI();

MAILLAG1=LIRE_MAILLAGE(INFO=1,);

MAILLAG1=DEFI_GROUP(reuse =MAILLAG1,
                    MAILLAGE=MAILLAG1,
                    CREA_GROUP_NO=(_F(NOM='SURFQUAD',
                                     GROUP_MA='SURF',), 
                                   _F(NOM='PHAU',
                                      OPTION ='ENV_SPHERE',
                                      POINT  = (0.0,9.0),
                                      RAYON = 1E-3,
                                      PRECISION = 2E-3,
                                     ),
                                   )
                     );
                     
MAILLAG1=DEFI_GROUP(reuse =MAILLAG1,
                    MAILLAGE=MAILLAG1,
                    CREA_GROUP_NO =(
                                _F(
                                   NOM = 'LIGSUP',
                                   OPTION = 'PLAN',
                                   GROUP_NO_CENTRE  = 'PHAU',
                                   VECT_NORMALE = (0.0,1.0),
                                   PRECISION = 1E-3,
                                  ),
                                _F(
                                   NOM = 'COTEG',
                                   NOEUD = ('N15','N16','N17','N18')
#                                   NOEUD = ('N14','N15','N16','N17')                              
                                  ),
                                _F(
                                   NOM = 'COTED',
                                   NOEUD = ('N23','N24','N25','N26',
                                            'N2','N21','N22','N27','N28','N12', ),
                                  ), 
                                )
                    ); 
                    
MAILLAGE=CREA_MAILLAGE(MAILLAGE=MAILLAG1,
                       );
                       
MAILLAG2=CREA_MAILLAGE(MAILLAGE=MAILLAGE,
                        LINE_QUAD=_F(GROUP_MA='SURF',),);
                                
MODELEIN=AFFE_MODELE(MAILLAGE=MAILLAG2,
                     AFFE=(_F(GROUP_MA=('SURF',),
                              PHENOMENE='MECANIQUE',
                              MODELISATION='D_PLAN_XFEM_CONT',),
                           _F(GROUP_MA=('LIGINF',),
                              PHENOMENE='MECANIQUE',
                              MODELISATION='D_PLAN',),),);       


LN1=FORMULE(NOM_PARA=('X','Y'),VALE='Y-2.5');
LT1=FORMULE(NOM_PARA=('X','Y'),VALE='-X-10.');  


LN2=FORMULE(NOM_PARA=('X','Y'),VALE='-Y+6.5');
LT2=FORMULE(NOM_PARA=('X','Y'),VALE='-X-10.'); 
 
 
FISS1=DEFI_FISS_XFEM(MODELE=MODELEIN,  
                    DEFI_FISS=_F(FONC_LT=LT1,FONC_LN=LN1,),
                    GROUP_MA_ENRI='SURF',           
                    INFO=1,);

FISS2=DEFI_FISS_XFEM(MODELE=MODELEIN,  
                    DEFI_FISS=_F(FONC_LT=LT2,FONC_LN=LN2,),
                    GROUP_MA_ENRI='SURF',
                    INFO=1,);
                    
MODELEK=MODI_MODELE_XFEM(MODELE_IN=MODELEIN,
                         FISSURE=(FISS1,FISS2),
                         CONTACT='OUI',
                         INFO=1,);
                         
CTXFEM = AFFE_CHAR_MECA( CONTACT=(_F(METHODE='XFEM',
                                     INTEGRATION='GAUSS',
                                     COEF_REGU_CONT=100., 
                                     ITER_CONT_MAXI=40,
                                     ITER_GEOM_MAXI=6,
                                     TOLE_PROJ_EXT =0.0,   
                                     CONTACT_INIT='OUI',    
                                     COEF_ECHELLE=1.,
                                     FROTTEMENT='SANS',
                                     FISS_MAIT = FISS1,
                                    ),
                                  _F(METHODE='XFEM',
                                     INTEGRATION='GAUSS',
                                     COEF_REGU_CONT=100., 
                                     ITER_CONT_MAXI=40,
                                     ITER_GEOM_MAXI=6,
                                     TOLE_PROJ_EXT =0.0,    
                                     CONTACT_INIT='OUI',    
                                     COEF_ECHELLE=1.,
                                     FROTTEMENT='SANS',
                                     FISS_MAIT = FISS2,
                                    ),  
                                ),
                                MODELE=MODELEK,
                          ),
                          
E=100.0E6
nu=0.3
ACIER=DEFI_MATERIAU(ELAS=_F(E=E,
                            NU=nu,
                            RHO=7800.0,),);

CHAMPMAT=AFFE_MATERIAU(MAILLAGE=MAILLAG2,
                       MODELE=MODELEK,
                       AFFE=_F(GROUP_MA=('SURF','LIGINF',),
                                MATER=ACIER,
                                TEMP_REF=0.0,),);

DEPX=2.00
DEPY=1.E-3
ZERO=0.0

CH1=AFFE_CHAR_MECA(MODELE=MODELEK,
                   DDL_IMPO=(_F(GROUP_MA='LIGINF',
                                          DY=DEPY,),
                             _F(GROUP_NO='LIGSUP',
                                          DY=-DEPY,),                        
                             _F(NOEUD=('N1','N2','N8','N12'),
                                          DX=0.0,
                                          ),                              
                            ),     
                    INFO=1,);
                    
CH2=AFFE_CHAR_MECA(MODELE=MODELEK,
                   DDL_IMPO=(
                             _F(GROUP_NO='COTEG',
                                          DX=DEPX,
#                                         DY=0.0,
                                          ),                      
                            ),     
                    INFO=1,);               
                    
                    
VAR1=DEFI_FONCTION(NOM_PARA='INST',
                    VALE=(0.,0.,1.,1.),
                    );
                    
VAR2=DEFI_FONCTION(NOM_PARA='INST',
                    VALE=(0.,0.,1.,1.),
                    );   
CHXFEM=AFFE_CHAR_MECA(MODELE=MODELEK,
                      CONTACT_XFEM=CTXFEM,
                      LIAISON_XFEM='OUI',
                                INFO=1,);

L_INST=DEFI_LIST_REEL(DEBUT=0.0,
                      INTERVALLE=_F(JUSQU_A=1.0,
                                    NOMBRE=4,),);
                             

UTOT1=STAT_NON_LINE(MODELE=MODELEK,
                   CHAM_MATER=CHAMPMAT,              
                   EXCIT=(_F(CHARGE=CTXFEM,),
                          _F(CHARGE=CHXFEM,),                                    
                          _F(CHARGE=CH1,FONC_MULT=VAR1),
                          _F(CHARGE=CH2,FONC_MULT=VAR2),),  
                               COMP_ELAS=_F(RELATION='ELAS',
                                GROUP_MA='SURF',),
                                INCREMENT=_F(LIST_INST=L_INST,),
                                CONVERGENCE=(_F(ITER_GLOB_MAXI=8,
                                                              RESI_GLOB_MAXI=1E-06)),
                                SOLVEUR=_F(METHODE='MUMPS',
                                PCENT_PIVOT=500,),
                                ARCHIVAGE=_F(CHAM_EXCLU='VARI_ELGA',),
                  INFO=1,);
                   
LAG1=POST_RELEVE_T(ACTION=_F(INTITULE='DEPLE',
                            NOEUD=( 'NS25','NS23','NS26','NS28','NS30',
                                    'NS59','NS61','NS62','NS64','NS66'),
                            RESULTAT=UTOT1,
                            NOM_CHAM='DEPL',
                            NUME_ORDRE=1,
                            NOM_CMP=('LAGS_C',),
                            OPERATION='EXTRACTION',),);
            
IMPR_TABLE(TABLE=LAG1,
           FORMAT='AGRAF',
           FORMAT_R='1PE12.7',
           FORMAT_C='MODULE_PHASE',
           IMPR_FONCTION='NON',);

TEST_TABLE(TABLE=LAG1,
           NOM_PARA='LAGS_C',
           FILTRE=_F(NOM_PARA='NOEUD',
                      VALE_K='NS25',),
           VALE=0.0,
           CRITERE='RELATIF',
           PRECISION=1.0E-1,
           REFERENCE='AUTRE_ASTER',);

TEST_TABLE(TABLE=LAG1,
           NOM_PARA='LAGS_C',
           FILTRE=_F(NOM_PARA='NOEUD',
                      VALE_K='NS23',),
           VALE=-6.808E+3,
           CRITERE='RELATIF',
           PRECISION=1.0E-1,
           REFERENCE='AUTRE_ASTER',);       

TEST_TABLE(TABLE=LAG1,
           NOM_PARA='LAGS_C',
           FILTRE=_F(NOM_PARA='NOEUD',
                      VALE_K='NS26',),
           VALE=-6.257E+3,
           CRITERE='RELATIF',
           PRECISION=1.0E-1,
           REFERENCE='AUTRE_ASTER',);

TEST_TABLE(TABLE=LAG1,
           NOM_PARA='LAGS_C',
           FILTRE=_F(NOM_PARA='NOEUD',
                      VALE_K='NS28',),
           VALE=-6.496E+3,
           CRITERE='RELATIF',
           PRECISION=1.0E-1,
           REFERENCE='AUTRE_ASTER',);
 
TEST_TABLE(TABLE=LAG1,
           NOM_PARA='LAGS_C',
           FILTRE=_F(NOM_PARA='NOEUD',
                      VALE_K='NS30',),
           VALE=-7.217E+3,
           CRITERE='RELATIF',
           PRECISION=1.0E-1,
           REFERENCE='AUTRE_ASTER',);               
 
                            
LAG2=POST_RELEVE_T(ACTION=_F(INTITULE='DEPLE',
                            NOEUD=('NS25', 'NS23','NS26','NS28','NS30',
                                    'NS59','NS61','NS62','NS64','NS66'),
                            RESULTAT=UTOT1,
                            NOM_CHAM='DEPL',
                            NUME_ORDRE=2,
                            NOM_CMP=('LAGS_C',),
                            OPERATION='EXTRACTION',),);
                            
IMPR_TABLE(TABLE=LAG2,
           FORMAT='AGRAF',
           FORMAT_R='1PE12.7',
           FORMAT_C='MODULE_PHASE',
           IMPR_FONCTION='NON',);

TEST_TABLE(TABLE=LAG2,
           NOM_PARA='LAGS_C',
           FILTRE=_F(NOM_PARA='NOEUD',
                      VALE_K='NS25',),
           VALE=0.0,
           CRITERE='RELATIF',
           PRECISION=1.0E-1,
           REFERENCE='AUTRE_ASTER',);

TEST_TABLE(TABLE=LAG2,
           NOM_PARA='LAGS_C',
           FILTRE=_F(NOM_PARA='NOEUD',
                      VALE_K='NS23',),
           VALE=-9.159E+3,
           CRITERE='RELATIF',
           PRECISION=1.0E-1,
           REFERENCE='AUTRE_ASTER',);       

TEST_TABLE(TABLE=LAG2,
           NOM_PARA='LAGS_C',
           FILTRE=_F(NOM_PARA='NOEUD',
                      VALE_K='NS26',),
           VALE=-1.265E+4,
           CRITERE='RELATIF',
           PRECISION=1.0E-1,
           REFERENCE='AUTRE_ASTER',);

TEST_TABLE(TABLE=LAG2,
           NOM_PARA='LAGS_C',
           FILTRE=_F(NOM_PARA='NOEUD',
                      VALE_K='NS28',),
           VALE=-1.216E+4,
           CRITERE='RELATIF',
           PRECISION=1.0E-1,
           REFERENCE='AUTRE_ASTER',);
 
TEST_TABLE(TABLE=LAG2,
           NOM_PARA='LAGS_C',
           FILTRE=_F(NOM_PARA='NOEUD',
                      VALE_K='NS30',),
           VALE=-1.517E+4,
           CRITERE='RELATIF',
           PRECISION=1.0E-1,
           REFERENCE='AUTRE_ASTER',);

LAG3=POST_RELEVE_T(ACTION=_F(INTITULE='DEPLE',
                            NOEUD=( 'NS25','NS23','NS26','NS28','NS30',
                                    'NS59','NS61','NS62','NS64','NS66'),
                            RESULTAT=UTOT1,
                            NOM_CHAM='DEPL',
                            NUME_ORDRE=3,
                            NOM_CMP=('LAGS_C',),
                            OPERATION='EXTRACTION',),);
                            
IMPR_TABLE(TABLE=LAG3,
           FORMAT='AGRAF',
           FORMAT_R='1PE12.7',
           FORMAT_C='MODULE_PHASE',
           IMPR_FONCTION='NON',);

TEST_TABLE(TABLE=LAG3,
           NOM_PARA='LAGS_C',
           FILTRE=_F(NOM_PARA='NOEUD',
                      VALE_K='NS25',),
           VALE=0.0,
           CRITERE='RELATIF',
           PRECISION=1.0E-1,
           REFERENCE='AUTRE_ASTER',);

TEST_TABLE(TABLE=LAG3,
           NOM_PARA='LAGS_C',
           FILTRE=_F(NOM_PARA='NOEUD',
                      VALE_K='NS23',),
           VALE=0.0,
           CRITERE='RELATIF',
           PRECISION=1.0E-1,
           REFERENCE='AUTRE_ASTER',);       

TEST_TABLE(TABLE=LAG3,
           NOM_PARA='LAGS_C',
           FILTRE=_F(NOM_PARA='NOEUD',
                      VALE_K='NS26',),
           VALE=-2.088E+4,
           CRITERE='RELATIF',
           PRECISION=1.0E-1,
           REFERENCE='AUTRE_ASTER',);

TEST_TABLE(TABLE=LAG3,
           NOM_PARA='LAGS_C',
           FILTRE=_F(NOM_PARA='NOEUD',
                      VALE_K='NS28',),
           VALE=-1.890E+4,
           CRITERE='RELATIF',
           PRECISION=1.0E-1,
           REFERENCE='AUTRE_ASTER',);
 
TEST_TABLE(TABLE=LAG3,
           NOM_PARA='LAGS_C',
           FILTRE=_F(NOM_PARA='NOEUD',
                      VALE_K='NS30',),
           VALE=-2.210E+4,
           CRITERE='RELATIF',
           PRECISION=1.0E-1,
           REFERENCE='AUTRE_ASTER',);

           
           
           
LAG4=POST_RELEVE_T(ACTION=_F(INTITULE='DEPLE',
                            NOEUD=( 'NS25','NS23','NS26','NS28','NS30',
                                    'NS59','NS61','NS62','NS64','NS66'),
                            RESULTAT=UTOT1,
                            NOM_CHAM='DEPL',
                            NUME_ORDRE=4,
                            NOM_CMP=('LAGS_C',),
                            OPERATION='EXTRACTION',),);
                            
IMPR_TABLE(TABLE=LAG4,
           FORMAT='AGRAF',
           FORMAT_R='1PE12.7',
           FORMAT_C='MODULE_PHASE',
           IMPR_FONCTION='NON',);
           
TEST_TABLE(TABLE=LAG4,
           NOM_PARA='LAGS_C',
           FILTRE=_F(NOM_PARA='NOEUD',
                      VALE_K='NS25',),
           VALE=0.0,
           CRITERE='RELATIF',
           PRECISION=1.0E-1,
           REFERENCE='AUTRE_ASTER',);

TEST_TABLE(TABLE=LAG4,
           NOM_PARA='LAGS_C',
           FILTRE=_F(NOM_PARA='NOEUD',
                      VALE_K='NS23',),
           VALE=0.0,
           CRITERE='RELATIF',
           PRECISION=1.0E-1,
           REFERENCE='AUTRE_ASTER',);       

TEST_TABLE(TABLE=LAG4,
           NOM_PARA='LAGS_C',
           FILTRE=_F(NOM_PARA='NOEUD',
                      VALE_K='NS26',),
           VALE=-1.862E+4,
           CRITERE='RELATIF',
           PRECISION=1.0E-1,
           REFERENCE='AUTRE_ASTER',);

TEST_TABLE(TABLE=LAG4,
           NOM_PARA='LAGS_C',
           FILTRE=_F(NOM_PARA='NOEUD',
                      VALE_K='NS28',),
           VALE=-2.442E+4,
           CRITERE='RELATIF',
           PRECISION=1.0E-1,
           REFERENCE='AUTRE_ASTER',);
 
TEST_TABLE(TABLE=LAG4,
           NOM_PARA='LAGS_C',
           FILTRE=_F(NOM_PARA='NOEUD',
                      VALE_K='NS30',),
           VALE=-2.917E+4,
           CRITERE='RELATIF',
           PRECISION=1.0E-1,
           REFERENCE='AUTRE_ASTER',);

MA_XFEM=POST_MAIL_XFEM(MAILLAGE_SAIN = MAILLAG1,
                       MODELE=MODELEK);
                       
DEFI_FICHIER(UNITE=31);                
IMPR_RESU(FORMAT='GMSH',UNITE=31,RESU=_F(MAILLAGE=MA_XFEM))

MOD_VISU=AFFE_MODELE(MAILLAGE=MA_XFEM,
                     AFFE=_F(TOUT='OUI',
                              PHENOMENE='MECANIQUE',
                              MODELISATION='D_PLAN',),) 

DEPL=POST_CHAM_XFEM(MAILLAGE_SAIN=MAILLAG1,
                    MAILLAGE_FISS=MA_XFEM,
                    MODELE=MODELEK,
                    MODELE_VISU= MOD_VISU,
                    RESULTAT=UTOT1,
                    NOM_CHAM=('DEPL','SIEF_ELGA'),
                    INFO =2)


DEFI_FICHIER(UNITE=32);

IMPR_RESU(FORMAT='GMSH',
          UNITE=32,
          RESU=_F(TYPE_CHAM='VECT_2D',
                  NOM_CHAM=('DEPL',),
                  NOM_CMP=('DX','DY',),
                  RESULTAT=DEPL));

FIN();                  

