# MODIF  DATE 05/08/2008   AUTEUR MAZET S.MAZET 
# TITRE CONTACT EN GRANDS GLISSEMENTS AVEC X-FEM POUR DES FISSURES
#            CONFIGURATION MANAGEMENT OF EDF VERSION
# ======================================================================
# COPYRIGHT (C) 1991 - 2008  EDF R&D                  WWW.CODE-ASTER.ORG
# THIS PROGRAM IS FREE SOFTWARE; YOU CAN REDISTRIBUTE IT AND/OR MODIFY  
# IT UNDER THE TERMS OF THE GNU GENERAL PUBLIC LICENSE AS PUBLISHED BY  
# THE FREE SOFTWARE FOUNDATION; EITHER VERSION 2 OF THE LICENSE, OR     
# (AT YOUR OPTION) ANY LATER VERSION.                                                    
#                                                                       
# THIS PROGRAM IS DISTRIBUTED IN THE HOPE THAT IT WILL BE USEFUL, BUT   
# WITHOUT ANY WARRANTY; WITHOUT EVEN THE IMPLIED WARRANTY OF            
# MERCHANTABILITY OR FITNESS FOR A PARTICULAR PURPOSE. SEE THE GNU      
# GENERAL PUBLIC LICENSE FOR MORE DETAILS.                              
#                                                                       
# YOU SHOULD HAVE RECEIVED A COPY OF THE GNU GENERAL PUBLIC LICENSE     
# ALONG WITH THIS PROGRAM; IF NOT, WRITE TO EDF R&D CODE_ASTER,         
#    1 AVENUE DU GENERAL DE GAULLE, 92141 CLAMART CEDEX, FRANCE.        
# ======================================================================
#
# CONTACT-FROTTANT EN GRANDS GLISSEMENTS
# AVEC XFEM POUR DES FISSURES OBLIQUES
#

DEBUT(CODE=_F(NOM='SSNP504B',NIV_PUB_WEB='INTERNET'),
      DEBUG=_F(SDVERI='OUI'),);

PRE_GIBI();

MAILLE=LIRE_MAILLAGE(INFO=1,);

MAILLE=DEFI_GROUP(reuse =MAILLE,
                  MAILLAGE=MAILLE,
                  CREA_GROUP_NO=(_F(NOM='SURFQUAD',
                                    GROUP_MA='SURF',), 
                                 _F(NOM='PHAU',
                                    OPTION ='ENV_SPHERE',
                                    POINT  = (0.0,9.0),
                                    RAYON = 1E-3,
                                    PRECISION = 2E-3,
                                    ),
                                  )
                  );
                     
MAILLE=DEFI_GROUP(reuse =MAILLE,
                  MAILLAGE=MAILLE,
                  CREA_GROUP_NO =(_F(NOM = 'LIGSUP',
                                     OPTION = 'PLAN',
                                     GROUP_NO_CENTRE  = 'PHAU',
                                     VECT_NORMALE = (0.0,1.0),
                                     PRECISION = 1E-3,
                                     ),
                                  _F(NOM = 'COTEG',
                                     NOEUD = ('N45','N46','N47','N48','N49',
                                              'N50',
                                              'N51','N52','N53','N54','N55',
                                              'N56','N57','N58','N59','N60',),
                                     ),                            
                                  ), 
                  ); 
                            
MAILLAG2=CREA_MAILLAGE(MAILLAGE=MAILLE,
                        LINE_QUAD=_F(GROUP_MA='SURF',),);
                            
MODELEIN=AFFE_MODELE(MAILLAGE=MAILLAG2,
                     AFFE=(_F(GROUP_MA=('SURF',),
                              PHENOMENE='MECANIQUE',
                              MODELISATION='D_PLAN_XFEM_CONT',),
                           _F(GROUP_MA=('LIGINF',),
                              PHENOMENE='MECANIQUE',
                              MODELISATION='D_PLAN',),),);       


LN1=FORMULE(NOM_PARA=('X','Y'),VALE='Y-0.24*X-2.125');
LT1=FORMULE(NOM_PARA=('X','Y'),VALE='-X-50. ');  
                    
LN2=FORMULE(NOM_PARA=('X','Y'),VALE='-Y+0.24*X+6.125');
LT2=FORMULE(NOM_PARA=('X','Y'),VALE='-X-50. '); 
 
 
FISS1=DEFI_FISS_XFEM(MODELE=MODELEIN,  
                    DEFI_FISS=_F(FONC_LT=LT1,FONC_LN=LN1,),
                    GROUP_MA_ENRI='SURF',
                    INFO=1,);

FISS2=DEFI_FISS_XFEM(MODELE=MODELEIN,  
                    DEFI_FISS=_F(FONC_LT=LT2,FONC_LN=LN2,),
                    GROUP_MA_ENRI='SURF',
                    INFO=1,);
                    
MODELEK=MODI_MODELE_XFEM(MODELE_IN=MODELEIN,
                         FISSURE=(FISS1,FISS2),
                         CONTACT='OUI',
                         INFO=1,);
                         
algo_la='VERSION2'
CTXFEM = AFFE_CHAR_MECA( CONTACT=(_F(METHODE='XFEM',
                                     INTEGRATION='NOEUD',
                                     FROTTEMENT='COULOMB',
                                     COULOMB=0.5,
                                     COEF_REGU_FROT=100,
                                     COEF_REGU_CONT=100., 
                                     ITER_CONT_MAXI=6,
                                     ITER_GEOM_MAXI=10,
                                     ITER_FROT_MAXI=10,
                                     TOLE_PROJ_EXT =0.0,   
                                     CONTACT_INIT='OUI',
                                     GLISSIERE='NON',   
                                     COEF_ECHELLE=1.,
                                     FISS_MAIT = FISS1,
                                     ALGO_LAGR=algo_la,
                                    ),
                                  _F(METHODE='XFEM',
                                     INTEGRATION='NOEUD',
                                     FROTTEMENT='COULOMB',
                                     COULOMB=0.5,
                                     COEF_REGU_FROT=100,
                                     COEF_REGU_CONT=100., 
                                     ITER_CONT_MAXI=40,
                                     ITER_GEOM_MAXI=10,
                                     ITER_FROT_MAXI=10,
                                     TOLE_PROJ_EXT =0.0, 
                                     CONTACT_INIT='OUI', 
                                     GLISSIERE='NON',   
                                     COEF_ECHELLE=1.,
                                     FISS_MAIT = FISS2,
                                     ALGO_LAGR=algo_la,
                                    ),  
                                ),
                                MODELE=MODELEK,
                         INFO=1,
                          ),    
                                        
E=100.0E6
nu=0.3
ACIER=DEFI_MATERIAU(ELAS=_F(E=E,
                            NU=nu,
                            RHO=7800.0,),);

CHAMPMAT=AFFE_MATERIAU(MAILLAGE=MAILLAG2,
                       MODELE=MODELEK,
                       AFFE=_F(GROUP_MA=('SURF','LIGINF',),
                                MATER=ACIER,),);

DEPX=2
DEPY=1E-2
ZERO=0.0

CH1=AFFE_CHAR_MECA(MODELE=MODELEK,
                   DDL_IMPO=(
                            _F(GROUP_MA='LIGINF',
                                         DY=DEPY,),
                            _F(GROUP_NO='LIGSUP',
                                          DY=-DEPY,
                                          ),
                             _F(NOEUD=('N1','N2','N36','N20',), 
                                        DX=0.0,
                                          ),
                                                                                                                                                                                          
                            ),
                    INFO=1,);
                    
CH2=AFFE_CHAR_MECA(MODELE=MODELEK,
                   DDL_IMPO=(
                             _F(GROUP_NO='COTEG',
                                      DX=DEPX,
                                          ),
                            ),
                   # CONDITIONS IMPOSEES A LA MAIN
                   # POUR LES MAILLES XFEM INFERIEURE
                   # ET SUPERIEURE
                   LIAISON_DDL=(_F(NOEUD=('N44','N44','N45','N45',),
                                   DDL=('DCX','H1X','DCX','H1X',),
                                   COEF_MULT=(.5,0.5,0.5,.5),
                                   COEF_IMPO=DEPX,),
                                _F(NOEUD=('N60','N60','N61','N61',),
                                   DDL=('DCX','H1X','DCX','H1X',),
                                   COEF_MULT=(.5,0.5,0.5,.5),
                                   COEF_IMPO=DEPX,),),
                    INFO=1,);   

VAR1=DEFI_FONCTION(NOM_PARA='INST',
                    VALE=(0.,0.,1.,1.),
                    PROL_DROITE='CONSTANT',
                    PROL_GAUCHE='CONSTANT',);

VAR2=DEFI_FONCTION(NOM_PARA='INST',
                    VALE=(0.,0.,1.,1.),
                    PROL_DROITE='CONSTANT',
                    PROL_GAUCHE='CONSTANT',);               
                    
   
CHXFEM=AFFE_CHAR_MECA(MODELE=MODELEK,
                      CONTACT_XFEM=CTXFEM,
                      LIAISON_XFEM='OUI',
                                INFO=1,);

L_INST=DEFI_LIST_REEL(DEBUT=0.0,
                      INTERVALLE=_F(JUSQU_A=1.0,
                                    NOMBRE=8,),);

UTOT1=STAT_NON_LINE(MODELE=MODELEK,
                   CHAM_MATER=CHAMPMAT,              
                   EXCIT=(_F(CHARGE=CTXFEM,),
                          _F(CHARGE=CHXFEM,),
                          _F(CHARGE=CH1,FONC_MULT=VAR1),
                          _F(CHARGE=CH2,FONC_MULT=VAR2),
                             ),  
                   COMP_ELAS=_F(RELATION='ELAS',
                                GROUP_MA='SURF',),
                   INCREMENT=_F(LIST_INST=L_INST,),
                   CONVERGENCE=(_F(ITER_GLOB_MAXI=40,
                                   RESI_GLOB_RELA=1E-06)),
                   SOLVEUR=_F(METHODE='MUMPS',
                                         PCENT_PIVOT=250,),
                   ARCHIVAGE=_F(CHAM_EXCLU='VARI_ELGA',),
                   INFO=1,);

LAG=[None]*6

# INST=0.25

LAG[1]=POST_RELEVE_T(ACTION=_F(INTITULE='DEPLE',
                               NOEUD=( 'NS283','NS281','NS284','NS287','NS319',
                                       'NS321','NS323','NS325','NS328','NS360',
                                       'NS362','NS364','NS366','NS369','NS401',
                                       'NS403','NS405','NS407','NS410','NS442','NS444',
                                       ),
                               RESULTAT=UTOT1,
                               NOM_CHAM='DEPL',
                               INST=0.25,
                               NOM_CMP=('LAGS_C','LAGS_F1',),
                               OPERATION='EXTRACTION',),);

IMPR_TABLE(TABLE=LAG[1],
           FORMAT='AGRAF',
           FORMAT_R='1PE12.5',
           FORMAT_C='MODULE_PHASE',
           IMPR_FONCTION='NON',);

TEST_TABLE(TABLE=LAG[1],
           NOM_PARA='LAGS_C',
           FILTRE=_F(NOM_PARA='COOR_X',
                     CRIT_COMP='EQ',
                     VALE=0.0,
                     PRECISION=1E-3,
                     CRITERE='ABSOLU',),
           VALE=0.0,
           CRITERE='ABSOLU',
           PRECISION=1.0E-12,
           REFERENCE='AUTRE_ASTER',);

TEST_TABLE(TABLE=LAG[1],
           NOM_PARA='LAGS_C',
           FILTRE=_F(NOM_PARA='COOR_X',
                     CRIT_COMP='EQ',
                     VALE=1.0,
                     PRECISION=1E-3,
                     CRITERE='ABSOLU',),
           VALE=-6.33578E+04,
           CRITERE='RELATIF',
           PRECISION=5.E-2,
           REFERENCE='AUTRE_ASTER',);       

TEST_TABLE(TABLE=LAG[1],
           NOM_PARA='LAGS_C',
           FILTRE=_F(NOM_PARA='COOR_X',
                     CRIT_COMP='EQ',
                     VALE=2.0,
                     PRECISION=1E-3,
                     CRITERE='ABSOLU',),
           VALE=-6.06408E+04,
           CRITERE='RELATIF',
           PRECISION=1.0E-1,
           REFERENCE='AUTRE_ASTER',);

TEST_TABLE(TABLE=LAG[1],
           NOM_PARA='LAGS_C',
           FILTRE=_F(NOM_PARA='COOR_X',
                     CRIT_COMP='EQ',
                     VALE=3.0,
                     PRECISION=1E-3,
                     CRITERE='ABSOLU',),
           VALE=-5.07482E+04,
           CRITERE='RELATIF',
           PRECISION=1.0E-1,
           REFERENCE='AUTRE_ASTER',);
 
TEST_TABLE(TABLE=LAG[1],
           NOM_PARA='LAGS_C',
           FILTRE=_F(NOM_PARA='COOR_X',
                     CRIT_COMP='EQ',
                     VALE=4.0,
                     PRECISION=1E-3,
                     CRITERE='ABSOLU',),
           VALE=0.0,
           CRITERE='ABSOLU',
           PRECISION=1.0E-12,
           REFERENCE='AUTRE_ASTER',);               
 
# INST=0.5

LAG[2]=POST_RELEVE_T(ACTION=_F(INTITULE='DEPLE',
                               NOEUD=( 'NS283','NS281','NS284','NS287','NS319',
                                       'NS321','NS323','NS325','NS328','NS360',
                                       'NS362','NS364','NS366','NS369','NS401',
                                       'NS403','NS405','NS407','NS410','NS442','NS444',
                                       ),
                               RESULTAT=UTOT1,
                               NOM_CHAM='DEPL',
                               INST=0.5,
                               NOM_CMP=('LAGS_C','LAGS_F1',),
                               OPERATION='EXTRACTION',),);

IMPR_TABLE(TABLE=LAG[2],
           FORMAT='AGRAF',
           FORMAT_R='1PE12.5',
           FORMAT_C='MODULE_PHASE',
           IMPR_FONCTION='NON',);  
 
TEST_TABLE(TABLE=LAG[2],
           NOM_PARA='LAGS_C',
           FILTRE=_F(NOM_PARA='NOEUD',
                      VALE_K='NS283',),
           VALE=0.0,
           CRITERE='ABSOLU',
           PRECISION=1.0E-12,
           REFERENCE='AUTRE_ASTER',);

TEST_TABLE(TABLE=LAG[2],
           NOM_PARA='LAGS_C',
           FILTRE=_F(NOM_PARA='NOEUD',
                      VALE_K='NS321',),
           VALE=-1.81138E+05,
           CRITERE='RELATIF',
           PRECISION=1.0E-1,
           REFERENCE='AUTRE_ASTER',);       

TEST_TABLE(TABLE=LAG[2],
           NOM_PARA='LAGS_C',
           FILTRE=_F(NOM_PARA='NOEUD',
                      VALE_K='NS362',),
           VALE=-1.24775E+05,
           CRITERE='RELATIF',
           PRECISION=1.0E-1,
           REFERENCE='AUTRE_ASTER',);

TEST_TABLE(TABLE=LAG[2],
           NOM_PARA='LAGS_C',
           FILTRE=_F(NOM_PARA='NOEUD',
                      VALE_K='NS403',),
           VALE=-1.03054E+05,
           CRITERE='RELATIF',
           PRECISION=1.0E-1,
           REFERENCE='AUTRE_ASTER',);
 
TEST_TABLE(TABLE=LAG[2],
           NOM_PARA='LAGS_C',
           FILTRE=_F(NOM_PARA='NOEUD',
                      VALE_K='NS444',),
           VALE=0.0,
           CRITERE='ABSOLU',
           PRECISION=1.0E-12,
           REFERENCE='AUTRE_ASTER',);    

# INST=0.75

LAG[3]=POST_RELEVE_T(ACTION=_F(INTITULE='DEPLE',
                               NOEUD=( 'NS283','NS281','NS284','NS287','NS319',
                                       'NS321','NS323','NS325','NS328','NS360',
                                       'NS362','NS364','NS366','NS369','NS401',
                                       'NS403','NS405','NS407','NS410','NS442','NS444',
                                       ),
                               RESULTAT=UTOT1,
                               NOM_CHAM='DEPL',
                               INST=0.75,
                               NOM_CMP=('LAGS_C','LAGS_F1',),
                               OPERATION='EXTRACTION',),);

IMPR_TABLE(TABLE=LAG[3],
           FORMAT='AGRAF',
           FORMAT_R='1PE12.5',
           FORMAT_C='MODULE_PHASE',
           IMPR_FONCTION='NON',);

TEST_TABLE(TABLE=LAG[3],
           NOM_PARA='LAGS_C',
           FILTRE=_F(NOM_PARA='NOEUD',
                      VALE_K='NS283',),
           VALE=0.0,
           CRITERE='ABSOLU',
           PRECISION=1.0E-12,
           REFERENCE='AUTRE_ASTER',);

TEST_TABLE(TABLE=LAG[3],
           NOM_PARA='LAGS_C',
           FILTRE=_F(NOM_PARA='NOEUD',
                      VALE_K='NS321',),
           VALE=0.0,
           CRITERE='ABSOLU',
           PRECISION=1.0E-12,
           REFERENCE='AUTRE_ASTER',);       

TEST_TABLE(TABLE=LAG[3],
           NOM_PARA='LAGS_C',
           FILTRE=_F(NOM_PARA='NOEUD',
                      VALE_K='NS362',),
           VALE=-2.01598E+05,
           CRITERE='RELATIF',
           PRECISION=1.0E-1,
           REFERENCE='AUTRE_ASTER',);

TEST_TABLE(TABLE=LAG[3],
           NOM_PARA='LAGS_C',
           FILTRE=_F(NOM_PARA='NOEUD',
                      VALE_K='NS403',),
           VALE=-1.57818E+05,
           CRITERE='RELATIF',
           PRECISION=1.0E-1,
           REFERENCE='AUTRE_ASTER',);

TEST_TABLE(TABLE=LAG[3],
           NOM_PARA='LAGS_C',
           FILTRE=_F(NOM_PARA='NOEUD',
                      VALE_K='NS444',),
           VALE=0.0,
           CRITERE='ABSOLU',
           PRECISION=1.0E-12,
           REFERENCE='AUTRE_ASTER',);  

# INST=1.0

LAG[4]=POST_RELEVE_T(ACTION=_F(INTITULE='DEPLE',
                               NOEUD=( 'NS283','NS281','NS284','NS287','NS319',
                                       'NS321','NS323','NS325','NS328','NS360',
                                       'NS362','NS364','NS366','NS369','NS401',
                                       'NS403','NS405','NS407','NS410','NS442','NS444',
                                       ),
                               RESULTAT=UTOT1,
                               NOM_CHAM='DEPL',
                               INST=1.0,
                               NOM_CMP=('LAGS_C','LAGS_F1',),
                               OPERATION='EXTRACTION',),);

IMPR_TABLE(TABLE=LAG[4],
           FORMAT='AGRAF',
           FORMAT_R='1PE12.5',
           FORMAT_C='MODULE_PHASE',
           IMPR_FONCTION='NON',);
           
TEST_TABLE(TABLE=LAG[4],
           NOM_PARA='LAGS_C',
           FILTRE=_F(NOM_PARA='NOEUD',
                      VALE_K='NS283',),
           VALE=0.0,
           CRITERE='ABSOLU',
           PRECISION=1.0E-12,
           REFERENCE='AUTRE_ASTER',);

TEST_TABLE(TABLE=LAG[4],
           NOM_PARA='LAGS_C',
           FILTRE=_F(NOM_PARA='NOEUD',
                      VALE_K='NS321',),
           VALE=0.0,
           CRITERE='ABSOLU',
           PRECISION=1.0E-12,
           REFERENCE='AUTRE_ASTER',);       

TEST_TABLE(TABLE=LAG[4],
           NOM_PARA='LAGS_C',
           FILTRE=_F(NOM_PARA='NOEUD',
                      VALE_K='NS362',),
           VALE=-3.79705E+05,
           CRITERE='RELATIF',
           PRECISION=1.0E-1,
           REFERENCE='AUTRE_ASTER',);

TEST_TABLE(TABLE=LAG[4],
           NOM_PARA='LAGS_C',
           FILTRE=_F(NOM_PARA='NOEUD',
                      VALE_K='NS403',),
           VALE=-2.20083E+05,
           CRITERE='RELATIF',
           PRECISION=1.0E-1,
           REFERENCE='AUTRE_ASTER',);
 
TEST_TABLE(TABLE=LAG[4],
           NOM_PARA='LAGS_C',
           FILTRE=_F(NOM_PARA='NOEUD',
                      VALE_K='NS444',),
           VALE=0.0,
           CRITERE='ABSOLU',
           PRECISION=1.0E-12,
           REFERENCE='AUTRE_ASTER',);

FIN();                  
