# TITRE PLAQUE ENTAILLEE EN ELASTOPLASTICITE (ELEMENTS QUAD4 SI)
# ======================================================================
# COPYRIGHT (C) 1991 - 2015  EDF R&D                  WWW.CODE-ASTER.ORG
# THIS PROGRAM IS FREE SOFTWARE; YOU CAN REDISTRIBUTE IT AND/OR MODIFY
# IT UNDER THE TERMS OF THE GNU GENERAL PUBLIC LICENSE AS PUBLISHED BY
# THE FREE SOFTWARE FOUNDATION; EITHER VERSION 2 OF THE LICENSE, OR
# (AT YOUR OPTION) ANY LATER VERSION.
#
# THIS PROGRAM IS DISTRIBUTED IN THE HOPE THAT IT WILL BE USEFUL, BUT
# WITHOUT ANY WARRANTY; WITHOUT EVEN THE IMPLIED WARRANTY OF
# MERCHANTABILITY OR FITNESS FOR A PARTICULAR PURPOSE. SEE THE GNU
# GENERAL PUBLIC LICENSE FOR MORE DETAILS.
#
# YOU SHOULD HAVE RECEIVED A COPY OF THE GNU GENERAL PUBLIC LICENSE
# ALONG WITH THIS PROGRAM; IF NOT, WRITE TO EDF R&D CODE_ASTER,
#    1 AVENUE DU GENERAL DE GAULLE, 92141 CLAMART CEDEX, FRANCE.
# ======================================================================


DEBUT(CODE=_F(NIV_PUB_WEB='INTERNET'), DEBUG=_F(SDVERI='OUI'))

# DEFINITION DU PROBLEME
#=======================

MA=LIRE_MAILLAGE(FORMAT='MED',);

MO=AFFE_MODELE(MAILLAGE=MA,
               AFFE=_F(GROUP_MA='SURF',
                       PHENOMENE='MECANIQUE',
                       MODELISATION='D_PLAN_SI',),);

MATERIAU=DEFI_MATERIAU(ELAS=_F(E=200000.0,
                               NU=0.3,),
                       ECRO_LINE=_F(D_SIGM_EPSI=1000.0,
                                    SY=200.0,),);

CH_MATER=AFFE_MATERIAU(MAILLAGE=MA,
                       AFFE=_F(TOUT='OUI',
                               MATER=MATERIAU,),);

SYMETRIE=AFFE_CHAR_MECA(MODELE=MO,
                        FACE_IMPO=(_F(GROUP_MA=('LCD','LBC',),
                                      DY=0.0,),
                                   _F(GROUP_MA=('LDE','LEF',),
                                      DX=0.0,),),);

TRACTION=AFFE_CHAR_MECA(MODELE=MO,
                        FACE_IMPO=_F(GROUP_MA='LFG',
                                     DY=0.1,),);

INSTANTS=DEFI_LIST_REEL(DEBUT=0.0,
                        INTERVALLE=_F(JUSQU_A=1.0,
                                      NOMBRE=5,),);

RAMPE=DEFI_FONCTION(NOM_PARA='INST',
                    VALE=(0.0, 0.0,
                          1.0, 1.0,),);

DEFLIST =DEFI_LIST_INST(DEFI_LIST=_F(LIST_INST =INSTANTS ),
                        ECHEC=_F(EVENEMENT     = 'ERREUR',
                                 ACTION        = 'DECOUPE',
                                 SUBD_METHODE  = 'MANUEL',
                                 SUBD_PAS      = 4,
                                 SUBD_PAS_MINI = 0.001),)

# CALCUL
#========

RESU=STAT_NON_LINE(MODELE=MO,
                   CHAM_MATER=CH_MATER,
                   EXCIT=(_F(CHARGE=TRACTION,
                             FONC_MULT=RAMPE,),
                          _F(CHARGE=SYMETRIE,),),
                   COMPORTEMENT=_F(RELATION='VMIS_ISOT_LINE',),
                   INCREMENT=_F(LIST_INST=DEFLIST),
                   NEWTON=_F(REAC_ITER=1,),
                   ARCHIVAGE=_F(LIST_INST=INSTANTS,),);

# POST TRAITEMENT
#=================

RESU=CALC_CHAMP(reuse=RESU,RESULTAT=RESU,CONTRAINTE=('SIGM_ELNO'))


RESU=CALC_ERREUR(reuse =RESU,

               RESULTAT=RESU,
               OPTION=('ERME_ELEM',
                       'ERME_ELNO',
                      ),
               );

RESU=CALC_CHAMP(reuse =RESU,
             RESULTAT=RESU,
             CONTRAINTE='SIGM_NOEU',);

S_T=MACR_LIGN_COUPE(RESULTAT=RESU,  NOM_CHAM='SIGM_NOEU', INST=1.0,
                  LIGN_COUPE=(
                     _F(TYPE='SEGMENT', NB_POINTS=11, INTITULE='S_EXT', NOM_CMP='SIYY',
                        COOR_ORIG=(0.0, 1.0,),
                        COOR_EXTR=(5.0, 1.0,),
                 )))

#IMPR_TABLE(TABLE=S_T,);


# TESTS
#=======

# ON TESTE PAR RAPPORT A LA MODELISATION B : ELEMENTS QUASI-INCOMPRESSIBLES

TEST_TABLE(REFERENCE='AUTRE_ASTER',
           PRECISION=4.0E-3,
           VALE_CALC=234.93024142085,
           VALE_REFE=234.17369549492,
           NOM_PARA='SIYY',
           TABLE=S_T,
           FILTRE=_F(NOM_PARA='COOR_X', VALE=0.0,),
           )

TEST_TABLE(REFERENCE='AUTRE_ASTER',
           PRECISION=8.0E-3,
           VALE_CALC=243.692979728,
           VALE_REFE=241.963621081,
           NOM_PARA='SIYY',
           TABLE=S_T,
           FILTRE=_F(NOM_PARA='COOR_X', VALE=1.0,),
           )

TEST_TABLE(REFERENCE='AUTRE_ASTER',
           PRECISION=4.0E-3,
           VALE_CALC=297.721545562,
           VALE_REFE=298.02665342,
           NOM_PARA='SIYY',
           TABLE=S_T,
           FILTRE=_F(NOM_PARA='COOR_X', VALE=3.0,),
           )


#--------------------------------------------------------------------------------
#
#  TEST SUR L'ESTIMATEUR D'ERREUR EN RESIDU

TEST_RESU(RESU=_F(INST=1.0,
                  POINT=1,
                  RESULTAT=RESU,
                  NOM_CHAM='ERME_ELEM',
                  NOM_CMP='NUEST',
                  VALE_CALC=1.7024900211738E-03,
                  CRITERE='RELATIF',
                  MAILLE='M20',
                  ),
          )

TEST_RESU(RESU=_F(INST=1.0,
                  RESULTAT=RESU,
                  NOM_CHAM='ERME_ELNO',
                  NOEUD='N6',
                  NOM_CMP='ERREST',
                  VALE_CALC=4.2158295616228E-04,
                  CRITERE='RELATIF',
                  MAILLE='M20',
                  ),
          )

#--------------------------------------------------------------------------------
#
#  TEST SUR LES CONTRAINTES AU POINT B

TEST_RESU(RESU=_F(INST=1.0,
                  RESULTAT=RESU,
                  NOM_CHAM='SIGM_ELNO',
                  NOEUD='N6',
                  NOM_CMP='SIYY',
                  VALE_CALC=436.83702957629,
                  CRITERE='RELATIF',
                  MAILLE='M20',
                  ),
          )

TEST_RESU(RESU=_F(INST=1.0,
                  RESULTAT=RESU,
                  NOM_CHAM='SIGM_ELNO',
                  NOEUD='N6',
                  NOM_CMP='SIXX',
                  VALE_CALC=7.7519646079226,
                  CRITERE='RELATIF',
                  MAILLE='M20',
                  ),
          )

FIN();
