# MODIF  DATE 13/01/2011   AUTEUR PELLET J.PELLET 
# TITRE CONTACT DE DEUX BLOCS
# ssnp121m.para = tps_job 60 mem_job 64Mo ncpus 1 liste_test R
#            CONFIGURATION MANAGEMENT OF EDF VERSION
# ======================================================================
# COPYRIGHT (C) 1991 - 2011  EDF R&D                  WWW.CODE-ASTER.ORG
# THIS PROGRAM IS FREE SOFTWARE; YOU CAN REDISTRIBUTE IT AND/OR MODIFY
# IT UNDER THE TERMS OF THE GNU GENERAL PUBLIC LICENSE AS PUBLISHED BY
# THE FREE SOFTWARE FOUNDATION; EITHER VERSION 2 OF THE LICENSE, OR
# (AT YOUR OPTION) ANY LATER VERSION.
#
# THIS PROGRAM IS DISTRIBUTED IN THE HOPE THAT IT WILL BE USEFUL, BUT
# WITHOUT ANY WARRANTY; WITHOUT EVEN THE IMPLIED WARRANTY OF
# MERCHANTABILITY OR FITNESS FOR A PARTICULAR PURPOSE. SEE THE GNU
# GENERAL PUBLIC LICENSE FOR MORE DETAILS.
#
# YOU SHOULD HAVE RECEIVED A COPY OF THE GNU GENERAL PUBLIC LICENSE
# ALONG WITH THIS PROGRAM; IF NOT, WRITE TO EDF R&D CODE_ASTER,
#    1 AVENUE DU GENERAL DE GAULLE, 92141 CLAMART CEDEX, FRANCE.
# ======================================================================

# CAS_TEST__:SSNP121M
# ON TESTE LE CONTACT CONTINUE AVEC RACCORD SURFACIQUE P2-P1
# MODELISATION LINEAIRE QUADRATIQUE

DEBUT(CODE=_F(NOM='SSNP121M', NIV_PUB_WEB='INTERNET'), DEBUG=_F(SDVERI='OUI'))
PRE_GIBI();
MA=LIRE_MAILLAGE();
MA=DEFI_GROUP(reuse=MA,MAILLAGE=MA,CREA_GROUP_NO=(
_F(NOM='RACCORD1',
   NOEUD=('N48','N45','N44'),),
_F(NOM='RACCORD2',
   NOEUD=('N12','N9','N8'),),
_F(  GROUP_MA = 'SURESC',),
_F(  GROUP_MA = 'SURMAI',),
_F(  GROUP_MA = 'SURCHA',),
_F(  GROUP_MA = 'ENCAST',),
),
);

#---------------------------------------------------
MO=AFFE_MODELE(MAILLAGE=MA,
               AFFE=(_F(GROUP_MA=('V1','V2'),
                        PHENOMENE='MECANIQUE',
                        MODELISATION='3D',),),);
#--------------------------------------------------
MA=MODI_MAILLAGE(reuse =MA,
                 MAILLAGE=MA,
                 ORIE_PEAU_3D=_F(GROUP_MA='SURESC',),
                 );
MA=MODI_MAILLAGE(reuse =MA,
                 MAILLAGE=MA,
                 ORIE_PEAU_3D=_F(GROUP_MA='SURESC1',),
                 );
MA=MODI_MAILLAGE(reuse =MA,
                 MAILLAGE=MA,
                 ORIE_PEAU_3D=_F(GROUP_MA='SURESC2',),
                 );
MA=MODI_MAILLAGE(reuse =MA,
                 MAILLAGE=MA,
                 ORIE_PEAU_3D=_F(GROUP_MA='SURMAI',),
                 );

MA=MODI_MAILLAGE(reuse =MA,
                 MAILLAGE=MA,
                 ORIE_PEAU_3D=_F(GROUP_MA='SURMAI1',),
                 );

MA=MODI_MAILLAGE(reuse =MA,
                 MAILLAGE=MA,
                 ORIE_PEAU_3D=_F(GROUP_MA='SURMAI2',),
                 );

MA=MODI_MAILLAGE(reuse =MA,
                 MAILLAGE=MA,
                 ORIE_PEAU_3D=_F(GROUP_MA='SURCHA',),
                 );

MA=MODI_MAILLAGE(reuse =MA,
                 MAILLAGE=MA,
                 ORIE_PEAU_3D=_F(GROUP_MA='ENCAST',),
                 );
#--------------------------------------------------

MAT2=DEFI_MATERIAU(ELAS=_F(E = 20.0E+05,NU = 0.,));
#
MAT1=DEFI_MATERIAU(ELAS=_F(E = 20.0E+05,NU = 0.,),);

CHMAT=AFFE_MATERIAU(MAILLAGE=MA,
                        AFFE=(_F(GROUP_MA = ('V1'),
                                    MATER = MAT2,),
                              _F(GROUP_MA = ('V2'),
                                    MATER = MAT1,),),)
#--------------------------------------------------------
CHA1=AFFE_CHAR_MECA(MODELE=MO,
   DDL_IMPO=(_F(GROUP_NO = 'SURCHA',  DX = 0.0, DY = -0.00, DZ = -.10,),
             _F(GROUP_NO = 'ENCAST',  DX = 0.0, DY = -0.00, DZ = 0.0,),),);

RACCOR=AFFE_CHAR_MECA(MODELE=MO,
                  LIAISON_MAIL=(_F(GROUP_MA_MAIT='V11',
                                   GROUP_NO_ESCL='RACCORD1',),
                                _F(GROUP_MA_MAIT='V21',
                                   GROUP_NO_ESCL='RACCORD2',),),
                  INFO=1,);


CHA2 = DEFI_CONTACT(MODELE         = MO,
                    FORMULATION    = 'CONTINUE',
                    ITER_GEOM_MAXI = 4,
                    ITER_CONT_MAXI = 30,
                    ZONE =(
                           _F(
                             GROUP_MA_ESCL = 'SURESC1',
                             GROUP_MA_MAIT = 'SURMAI1',
                             INTEGRATION   = 'NOEUD',
                             ALGO_CONT     = 'STANDARD',
                             COEF_CONT     = 1000.,
                             ),
                           _F(
                             GROUP_MA_ESCL = 'SURESC2',
                             GROUP_MA_MAIT = 'SURMAI2',
                             INTEGRATION   = 'NOEUD',
                             ALGO_CONT     = 'STANDARD',
                             COEF_CONT     = 1000.,
                             RACCORD_LINE_QUAD = 'OUI',
                             NOEUD_RACC = 'N44',
                             ),
                          ),
                   );

#-----------------------------------------------------------
L_INST=DEFI_LIST_REEL(DEBUT=0.0,
                 INTERVALLE=_F(JUSQU_A=1., NOMBRE=1,));

FONC=DEFI_FONCTION(NOM_PARA='INST',
                       VALE=(0., 0.0,1., 1.0,));
#-----------------------------------------------
RESU=STAT_NON_LINE (MODELE     = MO,
                    CHAM_MATER = CHMAT,
                    INCREMENT  =_F(LIST_INST=L_INST,
                               NUME_INST_FIN=1,),
                    EXCIT      =(_F(CHARGE=CHA1,
                                 FONC_MULT=FONC,),
                                 _F(CHARGE=RACCOR,
                                 FONC_MULT=FONC,),),
                    CONTACT    = CHA2,
                    COMP_ELAS  =_F(RELATION='ELAS'),
                    NEWTON=_F(MATRICE='ELASTIQUE',REAC_ITER=1,),
                    CONVERGENCE=_F(ARRET='OUI',
                    ITER_GLOB_MAXI=30,
                    RESI_GLOB_MAXI=1.E-8,),);


RESU=CALC_ELEM( reuse=RESU,
             RESULTAT=RESU,


               OPTION=('SIEF_ELNO','EQUI_ELNO_SIGM'));

RESU=CALC_NO( reuse=RESU,
           RESULTAT=RESU,

             OPTION=('SIEF_NOEU','EQUI_NOEU_SIGM'));

SIELNO=CREA_CHAMP(  OPERATION='EXTR',
                    TYPE_CHAM='ELNO_SIEF_R',
                     NOM_CHAM='SIEF_ELNO',
                     RESULTAT=RESU,
                   NUME_ORDRE=1);

IMPR_RESU(FORMAT='CASTEM',
          RESU=_F(MAILLAGE=MA,
                  RESULTAT=RESU,
                  NOM_CHAM=('DEPL','VALE_CONT',),),);
#
IMPR_RESU(MODELE=MO,FORMAT='RESULTAT',
            RESU=(_F( MAILLAGE=MA,
                      GROUP_NO=('SURESC','SURMAI'),
                      RESULTAT=RESU,
                      NOM_CHAM='DEPL',
                      NOM_CMP=('LAGS_C','DX','DY','DZ'),),),);

TEST_RESU(   RESU=_F(  RESULTAT = RESU,
                     NUME_ORDRE = 1,
                      GROUP_NO = 'A21',
                      NOM_CHAM = 'DEPL',
                      CRITERE = 'RELATIF',
                      REFERENCE = 'ANALYTIQUE',
                      PRECISION = 1.E-3,
                      NOM_CMP = 'LAGS_C',
                      VALE = -1.E+5),
            );

TEST_RESU(   RESU=_F(  RESULTAT = RESU,
                     NUME_ORDRE = 1,
                      GROUP_NO = 'A24',
                      NOM_CHAM = 'DEPL',
                      CRITERE = 'RELATIF',
                      REFERENCE = 'ANALYTIQUE',
                      PRECISION = 1.E-3,
                      NOM_CMP = 'LAGS_C',
                      VALE = -1.E+5),
            );

TEST_RESU(   RESU=_F(  RESULTAT = RESU,
                     NUME_ORDRE = 1,
                      NOEUD = 'N39',
                      NOM_CHAM = 'DEPL',
                      CRITERE = 'RELATIF',
                      REFERENCE = 'ANALYTIQUE',
                      PRECISION = 18.E-2,
                      NOM_CMP = 'LAGS_C',
                      VALE = -1.E+5),
            );

TEST_RESU(   RESU=_F(  RESULTAT = RESU,
                     NUME_ORDRE = 1,
                      NOEUD = 'N41',
                      NOM_CHAM = 'DEPL',
                      CRITERE = 'RELATIF',
                      REFERENCE = 'ANALYTIQUE',
                      PRECISION = 18.E-2,
                      NOM_CMP = 'LAGS_C',
                      VALE = -1.E+5),
            );

TEST_RESU(   RESU=_F(  RESULTAT = RESU,
                     NUME_ORDRE = 1,
                      NOEUD = 'N43',
                      NOM_CHAM = 'DEPL',
                      CRITERE = 'RELATIF',
                      REFERENCE = 'ANALYTIQUE',
                      PRECISION = 18.E-2,
                      NOM_CMP = 'LAGS_C',
                      VALE = -1.E+5),
            );


TEST_RESU(RESU=_F(RESULTAT=RESU,
                  NUME_ORDRE=1,
                  NOM_CHAM='DEPL',
                  NOM_CMP='DZ',
                  GROUP_NO='A21',
                  VALE=-0.05,
                  CRITERE='RELATIF',
                  PRECISION=1.E-3,
                  REFERENCE='ANALYTIQUE',),);

TEST_RESU(RESU=_F(RESULTAT=RESU,
                  NUME_ORDRE=1,
                  NOM_CHAM='DEPL',
                  NOM_CMP='DZ',
                  GROUP_NO='A22',
                  VALE=-0.05,
                  CRITERE='RELATIF',
                  PRECISION=1.E-3,
                  REFERENCE='ANALYTIQUE',),);

TEST_RESU(RESU=_F(RESULTAT=RESU,
                  NUME_ORDRE=1,
                  NOM_CHAM='DEPL',
                  NOM_CMP='DZ',
                  GROUP_NO='A23',
                  VALE=-0.05,
                  CRITERE='RELATIF',
                  PRECISION=1.E-3,
                  REFERENCE='ANALYTIQUE',),);

TEST_RESU(RESU=_F(RESULTAT=RESU,
                  NUME_ORDRE=1,
                  NOM_CHAM='DEPL',
                  NOM_CMP='DZ',
                  GROUP_NO='A24',
                  VALE=-0.05,
                  CRITERE='RELATIF',
                  PRECISION=1.E-3,
                  REFERENCE='ANALYTIQUE',),);

TEST_RESU(RESU=_F(RESULTAT=RESU,
                  NUME_ORDRE=1,
                  NOM_CHAM='DEPL',
                  NOM_CMP='DZ',
                  NOEUD = 'N44',
                  VALE=-0.05,
                  CRITERE='RELATIF',
                  PRECISION=1.E-3,
                  REFERENCE='ANALYTIQUE',),);

#;
FIN( );
