
# MODIF  DATE 03/11/2008   AUTEUR PELLET J.PELLET 
# RESPONSABLE F6BHHBO P.DEBONNIERES
# TITRE ESSAI DE TRACTION-CISAILLEMENT (VISCOELASTICITE CYRANO3)
#            CONFIGURATION MANAGEMENT OF EDF VERSION
# ======================================================================
# COPYRIGHT (C) 1991 - 2001  EDF R&D                  WWW.CODE-ASTER.ORG
# THIS PROGRAM IS FREE SOFTWARE; YOU CAN REDISTRIBUTE IT AND/OR MODIFY
# IT UNDER THE TERMS OF THE GNU GENERAL PUBLIC LICENSE AS PUBLISHED BY
# THE FREE SOFTWARE FOUNDATION; EITHER VERSION 2 OF THE LICENSE, OR
# (AT YOUR OPTION) ANY LATER VERSION.
#
# THIS PROGRAM IS DISTRIBUTED IN THE HOPE THAT IT WILL BE USEFUL, BUT
# WITHOUT ANY WARRANTY; WITHOUT EVEN THE IMPLIED WARRANTY OF
# MERCHANTABILITY OR FITNESS FOR A PARTICULAR PURPOSE. SEE THE GNU
# GENERAL PUBLIC LICENSE FOR MORE DETAILS.
#
# YOU SHOULD HAVE RECEIVED A COPY OF THE GNU GENERAL PUBLIC LICENSE
# ALONG WITH THIS PROGRAM; IF NOT, WRITE TO EDF R&D CODE_ASTER,
#    1 AVENUE DU GENERAL DE GAULLE, 92141 CLAMART CEDEX, FRANCE.
# ======================================================================

DEBUT(CODE=_F(NOM='SSNP101A', NIV_PUB_WEB='INTERNET'), DEBUG=_F(SDVERI='NON'))
#......................................................................
# PLAQUE CARREE EN TRACTION CISAILLEMENT CALCUL 2D DEF. PLANES
# LOI DE LEMAITRE
#......................................................................

# SDVERI='NON' A CAUSE SUR SUR-COUT CPU

M=LIRE_MAILLAGE();

MO=AFFE_MODELE(MAILLAGE=M,
               VERIF='MAILLE',
               AFFE=_F(TOUT='OUI',
                       PHENOMENE='MECANIQUE',
                       MODELISATION='D_PLAN',),);

ACIER=DEFI_MATERIAU(ELAS=_F(E=178600.0,
                            NU=0.3,
                            ALPHA=0.0,),
                    LEMAITRE=_F(N=11.0,
                                UN_SUR_K=0.00032840723,
                                UN_SUR_M=0.178571429,),
                    VENDOCHAB=_F(S=0.0,
                                 ALPHA_D=0.0,
                                 BETA_D=0.0,
                                 N=11.0,
                                 UN_SUR_M=0.178571429,
                                 UN_SUR_K=0.00032840723,
                                 R_D=3.0,
                                 A_D=100000.0,
                                 K_D=3.0,),);

CM=AFFE_MATERIAU(MAILLAGE=M,
                 AFFE=_F(TOUT='OUI',
                         MATER=ACIER,),);
# LES FORCES SONT MULTIPLIEES PAR 2 PAR RAPPORT AU TEST SSNP05A

P30=DEFI_FONCTION(NOM_PARA='INST',
                  VALE=
                  (0.0,0.0,30.0,60.62177826,3630.0,60.62177826,3660.0,121.2435565,7260.0,121.2435565,),
                  PROL_DROITE='LINEAIRE',
                  PROL_GAUCHE='LINEAIRE',);

M30=DEFI_FONCTION(NOM_PARA='INST',
                  VALE=
                  (0.0,0.0,30.0,-60.62177826,3630.0,-60.62177826,3660.0,-121.2435565,7260.0,-121.2435565,),
                  PROL_DROITE='LINEAIRE',
                  PROL_GAUCHE='LINEAIRE',);

M52M30=DEFI_FONCTION(NOM_PARA='INST',
                     VALE=
                     (0.0,0.0,30.0,-165.6217783,3630.0,-165.6217783,3660.0,-121.2435565,7260.0,
                            -121.2435565,),
                     PROL_DROITE='LINEAIRE',
                     PROL_GAUCHE='LINEAIRE',);

M52P30=DEFI_FONCTION(NOM_PARA='INST',
                     VALE=
                     (0.0,0.0,30.0,-44.37822174,3630.0,-44.37822174,3660.0,121.2435565,7260.0,
                            121.2435565,),
                     PROL_DROITE='LINEAIRE',
                     PROL_GAUCHE='LINEAIRE',);

CH1=AFFE_CHAR_MECA(MODELE=MO,
                   DDL_IMPO=(_F(NOEUD='N4',
                                DX=0.0,
                                DY=0.0,),
                             _F(NOEUD='N3',
                                DX=0.0,),),);

CH2=AFFE_CHAR_MECA_F(MODELE=MO,
                     FORCE_NODALE=(_F(NOEUD='N2',
                                      FX=M52P30,
                                      FY=M30,),
                                   _F(NOEUD='N3',
                                      FX=P30,
                                      FY=P30,),
                                   _F(NOEUD='N1',
                                      FX=M52M30,
                                      FY=M30,),
                                   _F(NOEUD='N4',
                                      FX=M30,
                                      FY=P30,),),);

L_INST=DEFI_LIST_REEL(DEBUT=0.0,
                      INTERVALLE=(_F(JUSQU_A=30.0,
                                     NOMBRE=20,),
                                  _F(JUSQU_A=3630.0,
                                     NOMBRE=15,),
                                  _F(JUSQU_A=3660.0,
                                     NOMBRE=3,),
                                  _F(JUSQU_A=3720.0,
                                     NOMBRE=1,),),);

U=STAT_NON_LINE(MODELE=MO,
                CHAM_MATER=CM,
                EXCIT=(_F(CHARGE=CH1,),
                       _F(CHARGE=CH2,),),
                COMP_INCR=_F(RELATION='LEMAITRE',PARM_THETA=0.5,
                             ITER_INTE_MAXI=1000,),
                INCREMENT=_F(LIST_INST=L_INST,),
                NEWTON=_F(MATRICE='TANGENTE',
                          REAC_ITER=1,),
                CONVERGENCE=_F(RESI_GLOB_MAXI=1e-06,
                               ITER_GLOB_MAXI=25,),
                );

U=CALC_ELEM(reuse =U,
            RESULTAT=U,
            OPTION=('SIEF_ELNO_ELGA','VARI_ELNO_ELGA',),);

U=CALC_ELEM(reuse =U,
            RESULTAT=U,
            OPTION='EPSI_ELNO_DEPL',);

U=CALC_ELEM(reuse =U,
            RESULTAT=U,
            OPTION='EPSP_ELNO',);

TEST_RESU(RESU=(_F(RESULTAT=U,
                   NUME_ORDRE=20,
                   NOM_CHAM='EPSP_ELNO',
                   NOM_CMP='EPXX',
                   MAILLE='M1',
                   NOEUD='N2',
                   VALE=0.0001762,
                   REFERENCE='AUTRE_ASTER',PRECISION=0.005,),
                _F(RESULTAT=U,
                   NUME_ORDRE=20,
                   NOM_CHAM='EPSP_ELNO',
                   NOM_CMP='EPXY',
                   MAILLE='M1',
                   NOEUD='N2',
                   VALE=0.0001816,
                   REFERENCE='AUTRE_ASTER',PRECISION=0.005,),
                _F(RESULTAT=U,
                   NUME_ORDRE=35,
                   NOM_CHAM='EPSP_ELNO',
                   NOM_CMP='EPXX',
                   MAILLE='M1',
                   NOEUD='N2',
                   VALE=0.001903,
                   REFERENCE='AUTRE_ASTER',PRECISION=0.005,),
                _F(RESULTAT=U,
                   NUME_ORDRE=35,
                   NOM_CHAM='EPSP_ELNO',
                   NOM_CMP='EPXY',
                   MAILLE='M1',
                   NOEUD='N2',
                   VALE=0.002079,
                   REFERENCE='AUTRE_ASTER',PRECISION=0.005,),
                _F(RESULTAT=U,
                   NUME_ORDRE=38,
                   NOM_CHAM='EPSP_ELNO',
                   NOM_CMP='EPXX',
                   MAILLE='M1',
                   NOEUD='N2',
                   VALE=0.001913,
                   REFERENCE='AUTRE_ASTER',PRECISION=0.005,),
                _F(RESULTAT=U,
                   NUME_ORDRE=38,
                   NOM_CHAM='EPSP_ELNO',
                   NOM_CMP='EPXY',
                   MAILLE='M1',
                   NOEUD='N2',
                   VALE=0.00219,
                   REFERENCE='AUTRE_ASTER',PRECISION=0.005,),
                _F(RESULTAT=U,
                   NUME_ORDRE=39,
                   NOM_CHAM='EPSP_ELNO',
                   NOM_CMP='EPXX',
                   MAILLE='M1',
                   NOEUD='N2',
                   VALE=0.001874,
                   REFERENCE='AUTRE_ASTER',PRECISION=0.005,),
                _F(RESULTAT=U,
                   NUME_ORDRE=39,
                   NOM_CHAM='EPSP_ELNO',
                   NOM_CMP='EPXY',
                   MAILLE='M1',
                   NOEUD='N2',
                   VALE=0.003181,
                   REFERENCE='AUTRE_ASTER',PRECISION=0.005,),),);

L_INST2=DEFI_LIST_REEL(DEBUT=0.0,
                       INTERVALLE=(_F(JUSQU_A=30.0,
                                      NOMBRE=200,),
                                   _F(JUSQU_A=3630.0,
                                      NOMBRE=155,),
                                   _F(JUSQU_A=3660.0,
                                      NOMBRE=130,),
                                   _F(JUSQU_A=3720.0,
                                      NOMBRE=110,),),);

U2=STAT_NON_LINE(MODELE=MO,
                 CHAM_MATER=CM,
                 EXCIT=(_F(CHARGE=CH1,),
                        _F(CHARGE=CH2,),),
                 COMP_INCR=_F(RELATION='VENDOCHAB',
                              ITER_INTE_MAXI=1000,),
                 INCREMENT=_F(LIST_INST=L_INST2,
                              INST_FIN=30.0,
                              SUBD_METHODE='UNIFORME', SUBD_PAS=4,
                              SUBD_PAS_MINI=0.0001,),
                 NEWTON=_F(PREDICTION='EXTRAPOL',
                           MATRICE='TANGENTE',
                           REAC_ITER=1,),
                 CONVERGENCE=_F(RESI_GLOB_RELA=1e-06,
                                ITER_GLOB_MAXI=25,),);

U2=CALC_ELEM(reuse =U2,
             RESULTAT=U2,
             OPTION=('SIEF_ELNO_ELGA','VARI_ELNO_ELGA',),);

U2=CALC_ELEM(reuse =U2,
             RESULTAT=U2,
             OPTION='EPSI_ELNO_DEPL',);

U2=CALC_ELEM(reuse =U2,
             RESULTAT=U2,
             OPTION='EPSP_ELNO',);

TEST_RESU(RESU=(_F(RESULTAT=U2,
                   INST=30.0,
                   NOM_CHAM='EPSP_ELNO',
                   NOM_CMP='EPXX',
                   MAILLE='M1',
                   NOEUD='N2',
                   VALE=0.0001762,
                   REFERENCE='AUTRE_ASTER',PRECISION=(0.007,0.0000001)),
                _F(RESULTAT=U2,
                   INST=30.0,
                   NOM_CHAM='EPSP_ELNO',
                   NOM_CMP='EPXY',
                   MAILLE='M1',
                   NOEUD='N2',
                   VALE=0.0001816,
                   REFERENCE='AUTRE_ASTER',PRECISION=(0.007,0.0000001)),
                   ),
                   );




FIN();
#
