# TITRE TEST DES ELEMENTS A DISCONTINUITE SUR UNE PLAQUE TROUEE
# ======================================================================
# COPYRIGHT (C) 1991 - 2013  EDF R&D                  WWW.CODE-ASTER.ORG
# THIS PROGRAM IS FREE SOFTWARE; YOU CAN REDISTRIBUTE IT AND/OR MODIFY
# IT UNDER THE TERMS OF THE GNU GENERAL PUBLIC LICENSE AS PUBLISHED BY
# THE FREE SOFTWARE FOUNDATION; EITHER VERSION 2 OF THE LICENSE, OR
# (AT YOUR OPTION) ANY LATER VERSION.
#
# THIS PROGRAM IS DISTRIBUTED IN THE HOPE THAT IT WILL BE USEFUL, BUT
# WITHOUT ANY WARRANTY; WITHOUT EVEN THE IMPLIED WARRANTY OF
# MERCHANTABILITY OR FITNESS FOR A PARTICULAR PURPOSE. SEE THE GNU
# GENERAL PUBLIC LICENSE FOR MORE DETAILS.
#
# YOU SHOULD HAVE RECEIVED A COPY OF THE GNU GENERAL PUBLIC LICENSE
# ALONG WITH THIS PROGRAM; IF NOT, WRITE TO EDF R&D CODE_ASTER,
#    1 AVENUE DU GENERAL DE GAULLE, 92141 CLAMART CEDEX, FRANCE.
# ======================================================================

DEBUT(CODE=_F(NOM='SSNP133B',NIV_PUB_WEB='INTERNET',VISU_EFICAS='NON'),PAR_LOT='OUI',DEBUG=_F(SDVERI='OUI'))

# NB DE PAS DE TEMPS DE CALCUL ET NOMBRE DE PAS DE TEMPS ARCHIVE
tfin=159
nbpas=tfin
nbpas_arch = tfin
c_mult_pilo = 10

# DONNEES MATERIAU
young = 30000.E6
poiss = 0.2
Gc = 100.
Sc = 2.E5

#--------------------------------------------------------------
# MAILLAGE ET MODELE
#--------------------------------------------------------------

MA = LIRE_MAILLAGE(FORMAT='MED')

MA = DEFI_GROUP(reuse = MA,
       MAILLAGE = MA,
       CREA_GROUP_MA = (
          _F(NOM = 'FACE_SUP', GROUP_MA = 'G_1D_4'),
          _F(NOM = 'MATIERE' , GROUP_MA = 'G_2D_5'),
          _F(NOM = 'JOINT_G' , GROUP_MA = 'G_2D_55'),
          _F(NOM = 'JOINT_D' , GROUP_MA = 'G_2D_54'),
          _F(NOM = 'JOINT',    UNION = ('JOINT_G', 'JOINT_D')),
       ),
       CREA_GROUP_NO = (
          _F(NOM = 'P_RIG',    GROUP_MA = 'G_0D_1'),
          _F(GROUP_MA = 'FACE_SUP'),
          _F(GROUP_MA = 'JOINT'),
          _F(NOM = 'SYME_BD',GROUP_MA = 'G_1D_56'),
          _F(NOM = 'SYME_BG',GROUP_MA = 'G_1D_57'),
          _F(NOM = 'SYMETRIE',UNION   = ('SYME_BD', 'SYME_BG')),
         )
       )

# RENUMEROTATION LOCALE DES ELEMENTS A DISCONTINUITE

MA=MODI_MAILLAGE(reuse =MA,
                   MAILLAGE=MA,
                   ORIE_FISSURE=_F(GROUP_MA='JOINT'),
                   INFO=1
                   )


MO = AFFE_MODELE(
       MAILLAGE = MA,
       AFFE = (
         _F(
           GROUP_MA     = ('MATIERE','FACE_SUP'),
           PHENOMENE    = 'MECANIQUE',
           MODELISATION = 'D_PLAN' ),
         _F(
           GROUP_MA     = 'JOINT',
           PHENOMENE    = 'MECANIQUE',
           MODELISATION = 'PLAN_ELDI'),
        ))

#--------------------------------------------------------------
# DEFINITION DES PARAMETRES MATERIAUX
#--------------------------------------------------------------

BETON = DEFI_MATERIAU(
                      ELAS      = _F( E              = young,
                                      NU             = poiss,
                                         ),
                     RUPT_FRAG = _F(
                                    GC             = Gc,
                                    SIGM_C         = Sc,
                                         ),
                         )

CHMAT = AFFE_MATERIAU(
          MAILLAGE = MA,
          AFFE = _F(
          GROUP_MA = ('MATIERE','JOINT'),
          MATER    =  BETON
         )
      )

#--------------------------------------------------------------
# DEFINITION DES CHARGEMENTS
#--------------------------------------------------------------

# ON BLOQUE LES MOUVEMENTS DE CORPS RIGIDE DS LA DIRECTION X AU POINT P_RIG
RIGIDE = AFFE_CHAR_MECA(
  MODELE   = MO,
  DDL_IMPO = _F(GROUP_NO='P_RIG', DX = 0)
  )


# ON IMPOSE QUE LE PLAN DE SYMETRIE PASSE PAR LA FACE INFERIEURE DES ELEMENTS DE A DISCONTINUITE
SYMETRIE = AFFE_CHAR_MECA(
  MODELE        = MO,
  DDL_IMPO = (
    _F(
      GROUP_NO = 'SYME_BG',
      DY=0.0,
      ),
    _F(
      GROUP_NO = 'SYME_BD',
      DY=0.0,
      ),
    ))

# EFFORT IMPOSE SUR LA SURFACE SUPERIEURE DE LA PLAQUE
TRACTION = AFFE_CHAR_MECA(
  MODELE = MO,
  FORCE_CONTOUR = _F(GROUP_MA = 'FACE_SUP', FY =  1),
  )


#--------------------------------------------------------------
# REALISATION DU CALCUL
#--------------------------------------------------------------

INSTANTS = DEFI_LIST_REEL(
                          DEBUT = 0.,
                          INTERVALLE = (_F(JUSQU_A =  tfin, NOMBRE = nbpas)),
                          )

INS_ARCH = DEFI_LIST_REEL(
                          DEBUT = 0.,
                          INTERVALLE = (_F(JUSQU_A =  tfin, NOMBRE = nbpas_arch)),
                          )

DEFLIST =DEFI_LIST_INST(DEFI_LIST=_F(LIST_INST =INSTANTS ),
                        ECHEC=_F(ACTION       = 'DECOUPE',
                                 SUBD_METHODE = 'MANUEL',
                  SUBD_PAS  = 10,
                  SUBD_PAS_MINI = 1.E-8,
                  SUBD_NIVEAU=10,
                                 ))

EVOL = STAT_NON_LINE(
  MODELE = MO,
  CHAM_MATER = CHMAT,
  EXCIT = (
    _F(CHARGE = RIGIDE),
    _F(CHARGE = SYMETRIE),
    _F(CHARGE = TRACTION,
       TYPE_CHARGE = 'FIXE_PILO',
      )
       ),
  COMPORTEMENT = (
    _F(RELATION = 'ELAS'      , GROUP_MA = 'MATIERE'),
    _F(RELATION = 'CZM_EXP',    GROUP_MA = 'JOINT'  ),
    ),
  INCREMENT = _F(LIST_INST = DEFLIST),
  PILOTAGE  = _F (
    TYPE           = 'PRED_ELAS',
    GROUP_MA       = 'JOINT',
    COEF_MULT      = c_mult_pilo,
    ETA_PILO_MIN   = 0.01,
    ETA_PILO_R_MIN = 0,
    PROJ_BORNES    = 'OUI'
    ),
  NEWTON  = _F(
    MATRICE   = 'TANGENTE',
    REAC_ITER = 1,
    ),
  CONVERGENCE = _F(
    RESI_GLOB_RELA = 1.E-6,
    ITER_GLOB_MAXI = 12,
    ),
  SOLVEUR    = _F(METHODE = 'MUMPS'),
  ARCHIVAGE = _F(
    LIST_INST      = INS_ARCH
    )
  )

#--------------------------------------------------------------
# POST-TRAITEMENT
#--------------------------------------------------------------

CALC_CHAMP( reuse    = EVOL,
         FORCE='FORC_NODA',
         RESULTAT =  EVOL,
       )

FORCE = POST_RELEVE_T(
                      ACTION = _F(
                                  INTITULE   = 'FORCE',
                                  OPERATION  = 'EXTRACTION',
                                  RESULTANTE = 'DY',
                                  RESULTAT   =  EVOL,
                                  NOM_CHAM   = 'FORC_NODA',
                                  GROUP_NO   = 'FACE_SUP',

                                 ),
                     )

TAB_U = POST_RELEVE_T(
                      ACTION = _F(
                                  INTITULE   = 'DEPL',
                                  RESULTAT   = EVOL,
                                  OPERATION  = 'EXTRACTION',
                                  NOM_CHAM   = 'DEPL',
                                  NOM_CMP    = 'DY',
                                  NOEUD      = 'N2',
                                 ),
                     )

UY = RECU_FONCTION ( TABLE  = TAB_U,
                     PARA_X = 'INST',
                     PARA_Y = 'DY'
                   )

FY = RECU_FONCTION ( TABLE  = FORCE,
                     PARA_X = 'INST',
                     PARA_Y = 'DY'
                   )

#--------------------------------------------------------------
# TESTS SUR LA REPONSE GLOBALE
#--------------------------------------------------------------

TEST_TABLE(
           VALE_CALC=3.6065108582582E-03,
           NOM_PARA='DY',
           TABLE=TAB_U,
           FILTRE=_F(NOM_PARA='INST',
                     VALE=50,),
           )

TEST_TABLE(
           VALE_CALC=5.7883154268121E+07,
           NOM_PARA='DY',
           TABLE=FORCE,
           FILTRE=_F(NOM_PARA='INST',
                     VALE=50,),
           )

TEST_TABLE(
           VALE_CALC=3.546043368665E-03,
           NOM_PARA='DY',
           TABLE=TAB_U,
           FILTRE=_F(NOM_PARA='INST',
                     VALE=75,),
           )

TEST_TABLE(
           VALE_CALC=5.1111749839513E+07,
           NOM_PARA='DY',
           TABLE=FORCE,
           FILTRE=_F(NOM_PARA='INST',
                     VALE=75,),
           )

TEST_TABLE(
           VALE_CALC=3.3943539435536E-03,
           NOM_PARA='DY',
           TABLE=TAB_U,
           FILTRE=_F(NOM_PARA='INST',
                     VALE=100,),
           )

TEST_TABLE(
           VALE_CALC=4.4368354562222E+07,
           NOM_PARA='DY',
           TABLE=FORCE,
           FILTRE=_F(NOM_PARA='INST',
                     VALE=100,),
           )

TEST_TABLE(
           VALE_CALC=4.3297660323307E-03,
           NOM_PARA='DY',
           TABLE=TAB_U,
           FILTRE=_F(NOM_PARA='INST',
                     VALE=159,),
           )

TEST_TABLE(
           VALE_CALC=1.0126508270635E+07,
           NOM_PARA='DY',
           TABLE=FORCE,
           FILTRE=_F(NOM_PARA='INST',
                     VALE=159,),
           )

FIN()
