# MODIF  DATE 03/04/2007   AUTEUR GENIAUT S.GENIAUT 
# TITRE  FISSURE DE BORD EN ELASTOPLASTICITE DANS UNE PLAQUE
#            CONFIGURATION MANAGEMENT OF EDF VERSION
# ======================================================================
# COPYRIGHT (C) 1991 - 2007  EDF R&D                  WWW.CODE-ASTER.ORG
# THIS PROGRAM IS FREE SOFTWARE; YOU CAN REDISTRIBUTE IT AND/OR MODIFY  
# IT UNDER THE TERMS OF THE GNU GENERAL PUBLIC LICENSE AS PUBLISHED BY  
# THE FREE SOFTWARE FOUNDATION; EITHER VERSION 2 OF THE LICENSE, OR     
# (AT YOUR OPTION) ANY LATER VERSION.                                                    
#                                                                       
# THIS PROGRAM IS DISTRIBUTED IN THE HOPE THAT IT WILL BE USEFUL, BUT   
# WITHOUT ANY WARRANTY; WITHOUT EVEN THE IMPLIED WARRANTY OF            
# MERCHANTABILITY OR FITNESS FOR A PARTICULAR PURPOSE. SEE THE GNU      
# GENERAL PUBLIC LICENSE FOR MORE DETAILS.                              
#                                                                       
# YOU SHOULD HAVE RECEIVED A COPY OF THE GNU GENERAL PUBLIC LICENSE     
# ALONG WITH THIS PROGRAM; IF NOT, WRITE TO EDF R&D CODE_ASTER,         
#    1 AVENUE DU GENERAL DE GAULLE, 92141 CLAMART CEDEX, FRANCE.        
# ======================================================================
#            C: MODELISATION 2D X-FEM AVEC ELEMENTS LINEAIRES


#relation = 'ELAS'
relation = 'ELAS_VMIS_LINE',


DEBUT(CODE=_F( NOM = 'SSNP110C',NIV_PUB_WEB='INTERNET'))

PRE_GIBI()

MAILLAG1=LIRE_MAILLAGE()

MAILLAG2=CREA_MAILLAGE(MAILLAGE=MAILLAG1,
                       LINE_QUAD=_F(GROUP_MA=('SURFTOT'),),);


#----------------------------------------
# epaisseur (suivant x)
lx = 16.

# largeur (suivant y)
ly = 50.


# nb element suivant la largeur
nx = 18.

# nb element suivant la hauteur
ny = 31.

# longueur de la fissure
a = 6
#----------------------------------------

# tailles des elements suivant x et y
hy = ly/ny
hx = lx/nx

# creation des noeuds servant a bloquer les modes rigides
MAILLAG2=DEFI_GROUP(reuse =MAILLAG2,
                 MAILLAGE=MAILLAG2,
                 CREA_GROUP_NO=(
                                 _F(NOM='A1',OPTION='ENV_SPHERE',POINT=(lx-a,      -hy/2.),PRECISION=1/(8.*ny),RAYON=1/(8.*ny)),
                                 _F(NOM='A2',OPTION='ENV_SPHERE',POINT=(lx-a,       hy/2.),PRECISION=1/(8.*ny),RAYON=1/(8.*ny)),
                                 _F(NOM='C1',OPTION='ENV_SPHERE',POINT=(lx-a-2*hx, -hy/2.),PRECISION=1/(8.*ny),RAYON=1/(8.*ny)),
                                 _F(NOM='C2',OPTION='ENV_SPHERE',POINT=(lx-a-2*hx,  hy/2.),PRECISION=1/(8.*ny),RAYON=1/(8.*ny)),
                                ),
                 );

MODELEIN=AFFE_MODELE(MAILLAGE=MAILLAG2,
                     AFFE=(_F(GROUP_MA=('SURFTOT',),
                              PHENOMENE='MECANIQUE',
                              MODELISATION='C_PLAN_XFEM',),
                           _F(GROUP_MA=('LIG1','LIG3',),
                              PHENOMENE='MECANIQUE',
                              MODELISATION='C_PLAN',),),);  


LN=FORMULE(NOM_PARA=('X','Y'),VALE='Y');
LT=FORMULE(NOM_PARA=('X','Y'),VALE='X');

FISS=DEFI_FISS_XFEM(MODELE=MODELEIN,  
                    DEFI_FISS=_F(FONC_LT=LT,FONC_LN=LN,),
                    GROUP_MA_ENRI='SURFTOT',
                    );

MODELEK=MODI_MODELE_XFEM(MODELE_IN=MODELEIN,FISSURE=FISS,INFO=1,);

CHXFEM=AFFE_CHAR_MECA(MODELE=MODELEK,LIAISON_XFEM='OUI',INFO=1,);

#----------------------------------------------
#                   MATERIAU
#----------------------------------------------

MAT=DEFI_MATERIAU(ELAS=_F(E = 2.0601E5, NU = 0.3, ALPHA = 0.),
                  ECRO_LINE=_F(  D_SIGM_EPSI = 0., SY = 808.344)
                         )
CHAMPMA1=AFFE_MATERIAU(MAILLAGE=MAILLAG2,
                       MODELE=MODELEK,
                       AFFE=_F(TOUT = 'OUI',
                                MATER=MAT,
                                ),
                             );

#----------------------------------------------------------
#                   CHARGEMENT 
#----------------------------------------------------------

# blocage des modes rigides 
CH=AFFE_CHAR_MECA(MODELE=MODELEK,
                  LIAISON_DDL=(
                               _F(GROUP_NO=('A1','A2',),DDL=('DX','DX',),COEF_MULT=(0.5,0.5),COEF_IMPO=0.,),
                               _F(GROUP_NO=('A1','A2',),DDL=('DY','DY',),COEF_MULT=(0.5,0.5),COEF_IMPO=0.,),
                               _F(GROUP_NO=('C1','C2',),DDL=('DY','DY',),COEF_MULT=(0.5,0.5),COEF_IMPO=0.,),
                              ),
                  );

CHF=AFFE_CHAR_MECA(MODELE=MODELEK,
                   DDL_IMPO=(
                             _F(GROUP_MA='LIG1',DY = -1.,),
                             _F(GROUP_MA='LIG3',DY =  1.,),
                            ),
                   );

RAMPE=DEFI_FONCTION(  NOM_PARA='INST',
                        VALE=(0.,0.,1.,1.,),
                        PROL_DROITE='LINEAIRE'
                      )
#----------------------------------------------
#                   RESOLUTION
#----------------------------------------------
npas = 50
L_INST=DEFI_LIST_REEL(DEBUT=0.,
                      INTERVALLE=_F( JUSQU_A = 0.1,  NOMBRE = npas)
#                      INTERVALLE=_F( JUSQU_A = 0.1,  NOMBRE = 1)
                        )

UTOT1=STAT_NON_LINE(MODELE=MODELEK,
                   CHAM_MATER=CHAMPMA1,
                   EXCIT=(_F(CHARGE=CHXFEM,),
                          _F(CHARGE=CHF,FONC_MULT = RAMPE),
                          _F(CHARGE=CH),),
                       COMP_ELAS=_F(
                                   RELATION = relation,
                                    DEFORMATION = 'PETIT'),
                       INCREMENT=_F(LIST_INST = L_INST,
                                    SUBD_COEF_PAS_1=1.0,
                                    SUBD_METHODE='UNIFORME', SUBD_PAS=2,
                                    SUBD_PAS_MINI=0.00001),
                       CONVERGENCE=_F(RESI_GLOB_RELA = 1.E-5),
                   SOLVEUR=_F(PCENT_PIVOT = 200,METHODE='MUMPS',),
                   NEWTON=_F(REAC_ITER=1,),
                   ARCHIVAGE=_F(LIST_INST=L_INST,CHAM_EXCLU='VARI_ELGA',),
                   INFO=1,);

#------------------------------------------------------------------------
# POST-TRAITEMENT : VISUALISATION DES DEPLACEMENTS
#------------------------------------------------------------------------

MA_XFEM=POST_MAIL_XFEM(MODELE=MODELEK);

RES_XFEM=POST_CHAM_XFEM(MAILLAGE=MA_XFEM,
                        MODELE=MODELEK,
                        NOM_CHAM='DEPL',
                        RESULTAT=UTOT1)

IMPR_RESU(FORMAT='GMSH',UNITE=81,RESU=_F(RESULTAT=RES_XFEM,
                                         NOM_CHAM='DEPL',
                                         NUME_ORDRE=npas,
             ));

DEPLFIN = CREA_CHAMP(TYPE_CHAM='NOEU_DEPL_R',
                    NUME_ORDRE=npas,
                    OPERATION='EXTR',
                    RESULTAT = RES_XFEM,
                    NOM_CHAM='DEPL',
                   );

MA_XFEM=DEFI_GROUP(reuse=MA_XFEM,
                   MAILLAGE=MA_XFEM,
                   CREA_GROUP_NO= _F(NOM = 'NTEST',
                                     OPTION='ENV_SPHERE',
                                     POINT=(-a, 0.),
                                     PRECISION=0.0001,
                                     RAYON=0.0001),);

TABDEP= POST_RELEVE_T ( ACTION =_F(INTITULE  = 'DEPLACEMENT_FISSURE',
                                   GROUP_NO  = 'NTEST',
                                   CHAM_GD   = DEPLFIN,
                                   NOM_CMP   = ( 'DX','DY'),
                                   OPERATION = 'EXTRACTION',),);

IMPR_TABLE(TABLE=TABDEP,);

# CETTE VALEUR A ETE OBTENUE PAR LA MODELISATION A
DEPREF=9.8756898959655e-02;

TEST_TABLE(TABLE=TABDEP,
           NOM_PARA='DY',
           TYPE_TEST='MIN',
           VALE=-DEPREF,
           CRITERE='RELATIF',
           PRECISION=0.04,
           REFERENCE='AUTRE_ASTER',);         

TEST_TABLE(TABLE=TABDEP,
           NOM_PARA='DY',
           TYPE_TEST='MAX',
           VALE=DEPREF,
           CRITERE='RELATIF',
           PRECISION=0.04,
           REFERENCE='AUTRE_ASTER',);         

FIN()
#
