# MODIF  DATE 17/10/2011   AUTEUR DELMAS J.DELMAS 
# TITRE DETECTION DES SINGULARITES DANS UNE PLAQUE FISSUREE (TETRA10)
#            CONFIGURATION MANAGEMENT OF EDF VERSION
# ======================================================================
# COPYRIGHT (C) 1991 - 2011  EDF R&D                  WWW.CODE-ASTER.ORG
# THIS PROGRAM IS FREE SOFTWARE; YOU CAN REDISTRIBUTE IT AND/OR MODIFY
# IT UNDER THE TERMS OF THE GNU GENERAL PUBLIC LICENSE AS PUBLISHED BY
# THE FREE SOFTWARE FOUNDATION; EITHER VERSION 2 OF THE LICENSE, OR
# (AT YOUR OPTION) ANY LATER VERSION.
#
# THIS PROGRAM IS DISTRIBUTED IN THE HOPE THAT IT WILL BE USEFUL, BUT
# WITHOUT ANY WARRANTY; WITHOUT EVEN THE IMPLIED WARRANTY OF
# MERCHANTABILITY OR FITNESS FOR A PARTICULAR PURPOSE. SEE THE GNU
# GENERAL PUBLIC LICENSE FOR MORE DETAILS.
#
# YOU SHOULD HAVE RECEIVED A COPY OF THE GNU GENERAL PUBLIC LICENSE
# ALONG WITH THIS PROGRAM; IF NOT, WRITE TO EDF R&D CODE_ASTER,
#    1 AVENUE DU GENERAL DE GAULLE, 92141 CLAMART CEDEX, FRANCE.
# ======================================================================
# RESPONSABLE DELMAS J.DELMAS
# TEST V6.03.130
# CHARGEMENT EN PRESSION
# MAILLAGE : TETRA10
# COMPORTEMENT ELASTIQUE

DEBUT(CODE=_F(NOM='SSNP130F',
              NIV_PUB_WEB='INTERNET',),);

MA=LIRE_MAILLAGE();

# DEFINITION DU MATERIAU

ACIER=DEFI_MATERIAU(ELAS=_F(E=200000.0,
                            NU=0.3,),);

# DEFINITION DES INSTANTS POUR STAT_NON_LINE

L_INST=DEFI_LIST_REEL(DEBUT=0.0,
                      INTERVALLE=_F(JUSQU_A=1.0,
                                    NOMBRE=1,),);

F_INST=DEFI_FONCTION(NOM_PARA='INST',VALE=(0.0,0.0,
                           1.0,1.0,
                           ),);

MO=AFFE_MODELE(MAILLAGE=MA,
               AFFE=_F(TOUT='OUI',
                       PHENOMENE='MECANIQUE',
                       MODELISATION='3D',),);

MA=MODI_MAILLAGE(reuse =MA,
                 MAILLAGE=MA,
                 ORIE_PEAU_3D=(_F(GROUP_MA='HAUT',),
                               _F(GROUP_MA='ARRIERE',),
                               _F(GROUP_MA='AVANT',),
                               _F(GROUP_MA='GAUCHE',),
                               _F(GROUP_MA='DROITE',),
                               _F(GROUP_MA='S1',),
                               _F(GROUP_MA='S3',),
                               _F(GROUP_MA='S4',),),);

CHMAT=AFFE_MATERIAU(MAILLAGE=MA,
                    AFFE=_F(TOUT='OUI',
                            MATER=ACIER,),);

# REMARQUE : ON IMPOSE EXPLICITEMENT LA PRESSION NULLE SUR LES BORDS LIBRES
#            POUR QUE LE CALCUL DE L'INDICATEUR D'ERREUR SOIT CORRECT
PRES_0 = 0.0;


CHP=AFFE_CHAR_MECA(MODELE=MO,
                   PRES_REP=(_F(GROUP_MA='HAUT',
                                PRES=1.0,),
                             _F(GROUP_MA='ARRIERE',
                                PRES=PRES_0,),
                             _F(GROUP_MA='AVANT',
                                PRES=PRES_0,),
                             _F(GROUP_MA='GAUCHE',
                                PRES=PRES_0,),
                             _F(GROUP_MA='DROITE',
                                PRES=PRES_0,),
                             _F(GROUP_MA='S1',
                                PRES=PRES_0,),
                             _F(GROUP_MA='S3',
                                PRES=PRES_0,),
                             _F(GROUP_MA='S4',
                                PRES=PRES_0,),),);

CHCL=AFFE_CHAR_MECA(MODELE=MO,
                    DDL_IMPO=(_F(GROUP_NO='PT2',
                                 DX=0.0,),
                              _F(GROUP_NO='PT3',
                                 DX=0.0,),
                              _F(GROUP_MA='L1210',
                                 DY=0.0,),
                              _F(GROUP_MA='S2',
                                 DZ=0.0,),),);

DEPLA=STAT_NON_LINE(MODELE=MO,
                    CHAM_MATER=CHMAT,
                    EXCIT=(_F(CHARGE=CHP,
                              FONC_MULT=F_INST,),
                           _F(CHARGE=CHCL,),),
                    COMP_INCR=_F(RELATION='ELAS',
                                 TOUT='OUI',),
                    INCREMENT=_F(LIST_INST=L_INST,),);

DEPLA=CALC_ELEM(reuse =DEPLA,
                RESULTAT=DEPLA,
                INST=1.,
                OPTION=('SIGM_ELNO','ETOT_ELEM',),);

DEPLA=CALC_ERREUR(reuse =DEPLA,
                  RESULTAT=DEPLA,
                  INST=1.,
                  OPTION=('ERME_ELEM','ERME_ELNO','SING_ELEM','SING_ELNO',),
                  PREC_ERR=0.8,);

# TEST DE SING_ELEM VALEUR MAX ET MIN DES 2 COMPOSANTES

TEST_RESU(RESU=(_F(RESULTAT=DEPLA,
                   INST=1.0,
                   NOM_CHAM='SING_ELEM',
                   NOM_CMP='DEGRE',
                   TYPE_TEST='MAX',
                   VALE=2.0,
                   CRITERE='RELATIF',
                   PRECISION=1.E-6,
                   REFERENCE='NON_REGRESSION',),
                _F(RESULTAT=DEPLA,
                   INST=1.0,
                   NOM_CHAM='SING_ELEM',
                   NOM_CMP='DEGRE',
                   TYPE_TEST='MIN',
                   VALE=0.560481596385,
                   CRITERE='RELATIF',
                   PRECISION=1.E-6,
                   REFERENCE='NON_REGRESSION',),
                _F(RESULTAT=DEPLA,
                   INST=1.0,
                   NOM_CHAM='SING_ELEM',
                   NOM_CMP='RAPPORT',
                   TYPE_TEST='MAX',
                   VALE=2.65261339596,
                   CRITERE='RELATIF',
                   PRECISION=1.E-6,
                   REFERENCE='NON_REGRESSION',
                   VERSION='9.05.04',),
                _F(RESULTAT=DEPLA,
                   INST=1.0,
                   NOM_CHAM='SING_ELEM',
                   NOM_CMP='RAPPORT',
                   TYPE_TEST='MIN',
                   VALE=2.169807276e-1,
                   CRITERE='RELATIF',
                   PRECISION=1.E-6,
                   REFERENCE='NON_REGRESSION',
                   VERSION='9.05.04',),
                _F(RESULTAT=DEPLA,
                   INST=1.0,
                   NOM_CHAM='SING_ELEM',
                   NOM_CMP='TAILLE',
                   TYPE_TEST='MAX',
                   VALE=6.51769190036,
                   CRITERE='RELATIF',
                   PRECISION=1.E-6,
                   REFERENCE='NON_REGRESSION',
                   VERSION='9.05.04',),
                _F(RESULTAT=DEPLA,
                   INST=1.0,
                   NOM_CHAM='SING_ELEM',
                   NOM_CMP='TAILLE',
                   TYPE_TEST='MIN',
                   VALE=.49402342590,
                   CRITERE='RELATIF',
                   PRECISION=1.E-6,
                   REFERENCE='NON_REGRESSION',
                   VERSION='9.05.04',),),);

# TEST DE SING_ELNO

TEST_RESU(RESU=(_F(RESULTAT=DEPLA,
                   INST=1.0,
                   NOM_CHAM='SING_ELNO',
                   NOM_CMP='DEGRE',
                   TYPE_TEST='MAX',
                   VALE=2.0,
                   CRITERE='RELATIF',
                   PRECISION=1.E-6,
                   REFERENCE='NON_REGRESSION',),
                _F(RESULTAT=DEPLA,
                   INST=1.0,
                   NOM_CHAM='SING_ELNO',
                   NOM_CMP='DEGRE',
                   TYPE_TEST='MIN',
                   VALE=0.560481596385,
                   CRITERE='RELATIF',
                   PRECISION=1.E-6,
                   REFERENCE='NON_REGRESSION',),
                _F(RESULTAT=DEPLA,
                   INST=1.0,
                   NOM_CHAM='SING_ELNO',
                   NOM_CMP='RAPPORT',
                   TYPE_TEST='MAX',
                   VALE=2.65261339596,
                   CRITERE='RELATIF',
                   PRECISION=1.E-6,
                   REFERENCE='NON_REGRESSION',
                   VERSION='9.05.04',),
                _F(RESULTAT=DEPLA,
                   INST=1.0,
                   NOM_CHAM='SING_ELNO',
                   NOM_CMP='RAPPORT',
                   TYPE_TEST='MIN',
                   VALE=2.169807276e-1,
                   CRITERE='RELATIF',
                   PRECISION=1.E-6,
                   REFERENCE='NON_REGRESSION',
                   VERSION='9.05.04',),
                _F(RESULTAT=DEPLA,
                   INST=1.0,
                   NOM_CHAM='SING_ELNO',
                   NOM_CMP='TAILLE',
                   TYPE_TEST='MAX',
                   VALE=6.51769190036,
                   CRITERE='RELATIF',
                   PRECISION=1.E-6,
                   REFERENCE='NON_REGRESSION',
                   VERSION='9.05.04',),
                _F(RESULTAT=DEPLA,
                   INST=1.0,
                   NOM_CHAM='SING_ELNO',
                   NOM_CMP='TAILLE',
                   TYPE_TEST='MIN',
                   VALE=.49402342590,
                   CRITERE='RELATIF',
                   PRECISION=1.E-6,
                   REFERENCE='NON_REGRESSION',
                   VERSION='9.05.04',),),);

FIN();
