# TITRE ESSAI DE TRACTION-CISAILLEMENT (MISES ECR. ISOT. C_PLAN)
# ======================================================================
# COPYRIGHT (C) 1991 - 2013  EDF R&D                  WWW.CODE-ASTER.ORG
# THIS PROGRAM IS FREE SOFTWARE; YOU CAN REDISTRIBUTE IT AND/OR MODIFY
# IT UNDER THE TERMS OF THE GNU GENERAL PUBLIC LICENSE AS PUBLISHED BY
# THE FREE SOFTWARE FOUNDATION; EITHER VERSION 2 OF THE LICENSE, OR
# (AT YOUR OPTION) ANY LATER VERSION.
#
# THIS PROGRAM IS DISTRIBUTED IN THE HOPE THAT IT WILL BE USEFUL, BUT
# WITHOUT ANY WARRANTY; WITHOUT EVEN THE IMPLIED WARRANTY OF
# MERCHANTABILITY OR FITNESS FOR A PARTICULAR PURPOSE. SEE THE GNU
# GENERAL PUBLIC LICENSE FOR MORE DETAILS.
#
# YOU SHOULD HAVE RECEIVED A COPY OF THE GNU GENERAL PUBLIC LICENSE
# ALONG WITH THIS PROGRAM; IF NOT, WRITE TO EDF R&D CODE_ASTER,
#    1 AVENUE DU GENERAL DE GAULLE, 92141 CLAMART CEDEX, FRANCE.
# ======================================================================
# ======================================================================

DEBUT(CODE=_F(NIV_PUB_WEB='INTERNET',),
      DEBUG=_F(SDVERI='NON',),
      IGNORE_ALARM=('ELEMENTS3_11','ELEMENTS3_77',),);

# SDVERI='NON' car la verification est trop couteuse en CPU
# IGNORE_ALARM=('ELEMENTS3_11','ELEMENTS3_77',) : utilisation d'une loi de comportement
# non-lineaire en contraintes planes
#......................................................................
# PLAQUE CARREE EN TRACTION CISAILLEMENT CALCUL 2D CONTRAINTES PLANES
# ELASTOPLASTICITE ISOTROPE VON MISES   (1 QUAD8)
#......................................................................

MA0=LIRE_MAILLAGE();

MA=CREA_MAILLAGE(MAILLAGE=MA0,
                 LINE_QUAD=_F(TOUT='OUI',),);

MO=AFFE_MODELE(MAILLAGE=MA,
               
               AFFE=_F(TOUT='OUI',
                       PHENOMENE='MECANIQUE',
                       MODELISATION='C_PLAN_SI',),);

ACIER=DEFI_MATERIAU(ELAS=_F(E=195000.,
                            NU=0.3,),
                    ECRO_LINE=_F(D_SIGM_EPSI=1930.,
                                 SY=181.,),
                    PRAGER=_F(C=0.,),);

CM=AFFE_MATERIAU(MAILLAGE=MA,
                 AFFE=_F(TOUT='OUI',
                         MATER=ACIER,),);

SIGMA_F=DEFI_FONCTION(NOM_PARA='INST',VALE=(0.0,0.0,
                            1.0,151.2,
                            2.0,257.2,
                            3.0,0.0,
                            ),PROL_DROITE='EXCLU',PROL_GAUCHE='EXCLU',);

TAU_F=DEFI_FONCTION(NOM_PARA='INST',VALE=(0.0,0.0,
                          1.0,93.1,
                          2.0,33.1,
                          3.0,0.0,
                          ),PROL_DROITE='EXCLU',PROL_GAUCHE='EXCLU',);

TRACTION=AFFE_CHAR_MECA(MODELE=MO,
                        FORCE_CONTOUR=_F(MAILLE='GAUCHE',
                                         FX=-1.,),);

CISAIL=AFFE_CHAR_MECA(MODELE=MO,
                      FORCE_CONTOUR=(_F(MAILLE='GAUCHE',
                                        FY=-1.,),
                                     _F(MAILLE='DROITE',
                                        FY=1.,),
                                     _F(MAILLE='HAUT',
                                        FX=1.,),
                                     _F(MAILLE='BAS',
                                        FX=-1.,),),);

LIAISON=AFFE_CHAR_MECA(MODELE=MO,
                       DDL_IMPO=(_F(NOEUD='NO4',
                                    DX=0.,
                                    DY=0.,),
                                 _F(NOEUD=('NO2','NS2',),
                                    DX=0.,),),);

L_INST=DEFI_LIST_REEL(DEBUT=0.0,
                      INTERVALLE=(_F(JUSQU_A=0.1,
                                     NOMBRE=1,),
                                  _F(JUSQU_A=0.9,
                                     NOMBRE=10,),
                                  _F(JUSQU_A=1.0,
                                     NOMBRE=1,),
                                  _F(JUSQU_A=2.0,
                                     NOMBRE=40,),
                                  _F(JUSQU_A=3.0,
                                     NOMBRE=1,),),);

U=STAT_NON_LINE(MODELE=MO,
                CHAM_MATER=CM,
                EXCIT=(_F(CHARGE=LIAISON,),
                       _F(CHARGE=TRACTION,
                          FONC_MULT=SIGMA_F,),
                       _F(CHARGE=CISAIL,
                          FONC_MULT=TAU_F,),),
                COMPORTEMENT=_F(RELATION='VMIS_ISOT_LINE',),
                INCREMENT=_F(LIST_INST=L_INST,),
                NEWTON=_F(MATRICE='TANGENTE',
                          REAC_ITER=3,),
                RECH_LINEAIRE=_F(RHO_MAX=150,),
                CONVERGENCE=_F(ITER_GLOB_MAXI=50,),);

U=CALC_CHAMP(reuse =U,
             RESULTAT=U,
             CONTRAINTE='SIGM_ELNO',
             DEFORMATION='EPSI_ELGA',
             CRITERES='SIEQ_ELGA',
             VARI_INTERNE='VARI_ELNO',);

U=CALC_CHAMP(reuse =U,
             RESULTAT=U,
             DEFORMATION=('EPSP_ELGA','EPSI_ELNO',),);

U2=STAT_NON_LINE(MODELE=MO,
                 CHAM_MATER=CM,
                 EXCIT=(_F(CHARGE=LIAISON,),
                        _F(CHARGE=TRACTION,
                           FONC_MULT=SIGMA_F,),
                        _F(CHARGE=CISAIL,
                           FONC_MULT=TAU_F,),),
                 COMPORTEMENT=_F(RELATION='VMIS_ECMI_LINE',),
                 INCREMENT=_F(LIST_INST=L_INST,),
                 NEWTON=_F(MATRICE='TANGENTE',
                           REAC_ITER=3,),
                 RECH_LINEAIRE=_F(RHO_MAX=150,),
                 CONVERGENCE=_F(ITER_GLOB_MAXI=50,),);

U2=CALC_CHAMP(reuse =U2,
              RESULTAT=U2,
              CONTRAINTE='SIGM_ELNO',
              DEFORMATION='EPSI_ELGA',
              VARI_INTERNE='VARI_ELNO',);

U2=CALC_CHAMP(reuse =U2,
              RESULTAT=U2,
              DEFORMATION=('EPSP_ELGA','EPSI_ELNO',),);

U2=CALC_CHAMP(reuse =U2,
              RESULTAT=U2,
              ENERGIE='ETOT_ELGA',);

U2=CALC_CHAMP(reuse =U2,
              RESULTAT=U2,
              ENERGIE='ETOT_ELNO',);

U2=CALC_CHAMP(reuse =U2,
              RESULTAT=U2,
              ENERGIE='ETOT_ELEM',);

VARI=CREA_CHAMP(TYPE_CHAM='ELNO_VARI_R',
                OPERATION='EXTR',
                RESULTAT=U,
                NOM_CHAM='VARI_ELNO',
                INST=1.,);

TEST_RESU(CHAM_ELEM=_F(CHAM_GD=VARI,
                       MAILLE='CUBE',
                       NOEUD='NO2',
                       NOM_CMP='V1',
                       VALE_CALC=0.020547265463459,
                      ),)

TEST_RESU(RESU=(_F(RESULTAT=U,
                   INST=1.0,
                   NOM_CHAM='SIGM_ELNO',
                   NOM_CMP='SIXX',
                   MAILLE='CUBE',
                   NOEUD='NO2',
                   VALE_CALC=151.19999999657,),
                _F(RESULTAT=U,
                   INST=1.0,
                   NOM_CHAM='SIGM_ELNO',
                   NOM_CMP='SIXY',
                   MAILLE='CUBE',
                   NOEUD='NO2',
                   VALE_CALC=93.1,),
                _F(RESULTAT=U,
                   INST=1.0,
                   NOM_CHAM='EPSI_ELNO',
                   NOM_CMP='EPXX',
                   MAILLE='CUBE',
                   NOEUD='NO2',
                   VALE_CALC=0.014829713606921,),
                _F(RESULTAT=U,
                   INST=1.0,
                   NOM_CHAM='EPSI_ELNO',
                   NOM_CMP='EPXY',
                   MAILLE='CUBE',
                   NOEUD='NO2',
                   VALE_CALC=0.013601401082680,),
                _F(RESULTAT=U,
                   INST=1.0,
                   NOM_CHAM='VARI_ELNO',
                   NOM_CMP='V1',
                   MAILLE='CUBE',
                   NOEUD='NO2',
                   VALE_CALC=0.020547265463459,),
                _F(RESULTAT=U,
                   INST=1.0,
                   NOM_CHAM='VARI_ELNO',
                   NOM_CMP='V2',
                   MAILLE='CUBE',
                   NOEUD='NO2',
                   VALE_CALC=1.0,),
                _F(RESULTAT=U,
                   INST=2.0,
                   NOM_CHAM='EPSI_ELNO',
                   NOM_CMP='EPXX',
                   MAILLE='CUBE',
                   NOEUD='NO2',
                   VALE_REFE=0.035265,
                   PRECISION=0.01,
                   REFERENCE='ANALYTIQUE',
                   VALE_CALC=0.035324715,),
                _F(RESULTAT=U,
                   INST=2.0,
                   NOM_CHAM='EPSI_ELNO',
                   NOM_CMP='EPXY',
                   MAILLE='CUBE',
                   NOEUD='NO2',
                   VALE_REFE=0.020471,
                   PRECISION=0.01,
                   REFERENCE='ANALYTIQUE',
                   VALE_CALC=0.020351413,),
                _F(RESULTAT=U,
                   INST=2.0,
                   NOM_CHAM='EPSP_ELGA',
                   NOM_CMP='EPXX',
                   MAILLE='CUBE',
                   POINT=1,
                   VALE_REFE=0.033946,
                   PRECISION=0.01,
                   REFERENCE='ANALYTIQUE',
                   VALE_CALC=0.03400574,),
                _F(RESULTAT=U,
                   INST=2.0,
                   NOM_CHAM='EPSP_ELGA',
                   NOM_CMP='EPXY',
                   MAILLE='CUBE',
                   POINT=1,
                   VALE_REFE=0.02025,
                   PRECISION=0.01,
                   REFERENCE='ANALYTIQUE',
                   VALE_CALC=0.020130747,),
                _F(RESULTAT=U,
                   INST=2.0,
                   NOM_CHAM='VARI_ELNO',
                   NOM_CMP='V1',
                   MAILLE='CUBE',
                   NOEUD='NO2',
                   VALE_REFE=0.042329,
                   PRECISION=0.01,
                   REFERENCE='ANALYTIQUE',
                   VALE_CALC=0.042329286,),
                _F(RESULTAT=U,
                   INST=1.0,
                   NOM_CHAM='SIEQ_ELGA',
                   NOM_CMP='TRIAX',
                   MAILLE='CUBE',
                   POINT=1,
                   VALE_REFE=0.228,
                   REFERENCE='ANALYTIQUE',
                   VALE_CALC=0.22799999,),
                _F(RESULTAT=U,
                   INST=2.0,
                   NOM_CHAM='SIEQ_ELGA',
                   NOM_CMP='TRIAX',
                   MAILLE='CUBE',
                   POINT=4,
                   VALE_REFE=0.325349,
                   REFERENCE='ANALYTIQUE',
                   VALE_CALC=0.325348653,),),);

ENER_TOT=POST_ELEM(ENER_TOTALE=_F(MAILLE='CUBE',),
                   RESULTAT=U,);

ENER_TO2=POST_ELEM(ENER_TOTALE=_F(MAILLE='CUBE',),
                   RESULTAT=U2,);

ENER_TO3=POST_ELEM(ENER_TOTALE=_F(GROUP_MA='GXXXXXX_CUBE_G',),
                   RESULTAT=U2,);

ENER_TO4=POST_ELEM(ENER_TOTALE=_F(TOUT='OUI',),
                   RESULTAT=U2,);

TEST_RESU(RESU=(_F(RESULTAT=U2,
                   INST=0.1,
                   NOM_CHAM='ETOT_ELGA',
                   NOM_CMP='TOTALE',
                   MAILLE='CUBE',
                   POINT=1,
                   CRITERE='RELATIF',
                   VALE_REFE=0.00116403,
                   REFERENCE='AUTRE_ASTER',
                   VALE_CALC=0.00116403144,),
                _F(RESULTAT=U2,
                   INST=0.9,
                   NOM_CHAM='ETOT_ELGA',
                   NOM_CMP='TOTALE',
                   MAILLE='CUBE',
                   POINT=1,
                   CRITERE='RELATIF',
                   VALE_REFE=1.8434,
                   REFERENCE='AUTRE_ASTER',
                   VALE_CALC=1.84222238,),
                _F(RESULTAT=U2,
                   INST=2.0,
                   NOM_CHAM='ETOT_ELGA',
                   NOM_CMP='TOTALE',
                   MAILLE='CUBE',
                   POINT=1,
                   CRITERE='RELATIF',
                   VALE_REFE=9.58487,
                   REFERENCE='AUTRE_ASTER',
                   VALE_CALC=9.583429296,),
                _F(RESULTAT=U2,
                   INST=3.0,
                   NOM_CHAM='ETOT_ELGA',
                   NOM_CMP='TOTALE',
                   MAILLE='CUBE',
                   POINT=1,
                   CRITERE='RELATIF',
                   VALE_REFE=9.40794,
                   REFERENCE='AUTRE_ASTER',
                   VALE_CALC=9.406505127,),
                _F(RESULTAT=U2,
                   INST=0.1,
                   NOM_CHAM='ETOT_ELNO',
                   NOM_CMP='TOTALE',
                   MAILLE='CUBE',
                   NOEUD='NO2',
                   CRITERE='RELATIF',
                   VALE_REFE=0.00116403,
                   REFERENCE='AUTRE_ASTER',
                   VALE_CALC=0.00116403144,),
                _F(RESULTAT=U2,
                   INST=0.9,
                   NOM_CHAM='ETOT_ELNO',
                   NOM_CMP='TOTALE',
                   MAILLE='CUBE',
                   NOEUD='NO2',
                   CRITERE='RELATIF',
                   VALE_REFE=1.8434,
                   REFERENCE='AUTRE_ASTER',
                   VALE_CALC=1.84222238,),
                _F(RESULTAT=U2,
                   INST=2.0,
                   NOM_CHAM='ETOT_ELNO',
                   NOM_CMP='TOTALE',
                   MAILLE='CUBE',
                   NOEUD='NO2',
                   CRITERE='RELATIF',
                   VALE_REFE=9.58487,
                   REFERENCE='AUTRE_ASTER',
                   VALE_CALC=9.583429296,),
                _F(RESULTAT=U2,
                   INST=3.0,
                   NOM_CHAM='ETOT_ELNO',
                   NOM_CMP='TOTALE',
                   MAILLE='CUBE',
                   NOEUD='NO2',
                   CRITERE='RELATIF',
                   VALE_REFE=9.40794,
                   REFERENCE='AUTRE_ASTER',
                   VALE_CALC=9.406505127,),
                _F(RESULTAT=U2,
                   INST=0.1,
                   NOM_CHAM='ETOT_ELEM',
                   NOM_CMP='TOTALE',
                   MAILLE='CUBE',
                   POINT=1,
                   CRITERE='RELATIF',
                   VALE_REFE=0.00116403,
                   REFERENCE='AUTRE_ASTER',
                   VALE_CALC=0.00116403144,),
                _F(RESULTAT=U2,
                   INST=0.9,
                   NOM_CHAM='ETOT_ELEM',
                   NOM_CMP='TOTALE',
                   MAILLE='CUBE',
                   POINT=1,
                   CRITERE='RELATIF',
                   VALE_REFE=1.8434,
                   REFERENCE='AUTRE_ASTER',
                   VALE_CALC=1.84222238,),
                _F(RESULTAT=U2,
                   INST=2.0,
                   NOM_CHAM='ETOT_ELEM',
                   NOM_CMP='TOTALE',
                   MAILLE='CUBE',
                   POINT=1,
                   CRITERE='RELATIF',
                   VALE_REFE=9.58487,
                   REFERENCE='AUTRE_ASTER',
                   VALE_CALC=9.583429296,),
                _F(RESULTAT=U2,
                   INST=3.0,
                   NOM_CHAM='ETOT_ELEM',
                   NOM_CMP='TOTALE',
                   MAILLE='CUBE',
                   POINT=1,
                   CRITERE='RELATIF',
                   VALE_REFE=9.40794,
                   REFERENCE='AUTRE_ASTER',
                   VALE_CALC=9.406505127,),),);

#
# SI ENERGIE CALCULEE SUR UNE MAILLE

TEST_TABLE(TABLE=ENER_TO2,
           FILTRE=_F(NOM_PARA='INST',
                     VALE=0.1,),
           NOM_PARA='TOTALE',
           CRITERE='RELATIF',
           VALE_REFE=0.00116403,
           REFERENCE='AUTRE_ASTER',
           VALE_CALC=0.00116403144,);

TEST_TABLE(TABLE=ENER_TO2,
           FILTRE=_F(NOM_PARA='INST',
                     VALE=0.9,),
           NOM_PARA='TOTALE',
           CRITERE='RELATIF',
           VALE_REFE=1.8434,
           REFERENCE='AUTRE_ASTER',
           VALE_CALC=1.84222238,);

TEST_TABLE(TABLE=ENER_TO2,
           FILTRE=_F(NOM_PARA='INST',
                     VALE=2.0,),
           NOM_PARA='TOTALE',
           CRITERE='RELATIF',
           VALE_REFE=9.58487,
           REFERENCE='AUTRE_ASTER',
           VALE_CALC=9.583429296,);

TEST_TABLE(TABLE=ENER_TO2,
           FILTRE=_F(NOM_PARA='INST',
                     VALE=3.0,),
           NOM_PARA='TOTALE',
           CRITERE='RELATIF',
           VALE_REFE=9.40794,
           REFERENCE='AUTRE_ASTER',
           VALE_CALC=9.406505127,);

#
# SI ENERGIE CALCULEE SUR UN GROUPE DE MAILLE

TEST_TABLE(TABLE=ENER_TO3,
           FILTRE=_F(NOM_PARA='INST',
                     VALE=0.1,),
           NOM_PARA='TOTALE',
           CRITERE='RELATIF',
           VALE_REFE=0.00116403,
           REFERENCE='AUTRE_ASTER',
           VALE_CALC=0.00116403144,);

TEST_TABLE(TABLE=ENER_TO3,
           FILTRE=_F(NOM_PARA='INST',
                     VALE=0.9,),
           NOM_PARA='TOTALE',
           CRITERE='RELATIF',
           VALE_REFE=1.8434,
           REFERENCE='AUTRE_ASTER',
           VALE_CALC=1.84222238,);

TEST_TABLE(TABLE=ENER_TO3,
           FILTRE=_F(NOM_PARA='INST',
                     VALE=2.0,),
           NOM_PARA='TOTALE',
           CRITERE='RELATIF',
           VALE_REFE=9.58487,
           REFERENCE='AUTRE_ASTER',
           VALE_CALC=9.583429296,);

TEST_TABLE(TABLE=ENER_TO3,
           FILTRE=_F(NOM_PARA='INST',
                     VALE=3.0,),
           NOM_PARA='TOTALE',
           CRITERE='RELATIF',
           VALE_REFE=9.40794,
           REFERENCE='AUTRE_ASTER',
           VALE_CALC=9.406505127,);

#
# SI ENERGIE CALCULEE SUR TOUT LE MAILLAGE

TEST_TABLE(TABLE=ENER_TO4,
           FILTRE=_F(NOM_PARA='INST',
                     VALE=0.1,),
           NOM_PARA='TOTALE',
           CRITERE='RELATIF',
           VALE_REFE=0.00116403,
           REFERENCE='AUTRE_ASTER',
           VALE_CALC=0.00116403144,);

TEST_TABLE(TABLE=ENER_TO4,
           FILTRE=_F(NOM_PARA='INST',
                     VALE=0.9,),
           NOM_PARA='TOTALE',
           CRITERE='RELATIF',
           VALE_REFE=1.8434,
           REFERENCE='AUTRE_ASTER',
           VALE_CALC=1.84222238,);

TEST_TABLE(TABLE=ENER_TO4,
           FILTRE=_F(NOM_PARA='INST',
                     VALE=2.0,),
           NOM_PARA='TOTALE',
           CRITERE='RELATIF',
           VALE_REFE=9.58487,
           REFERENCE='AUTRE_ASTER',
           VALE_CALC=9.583429296,);

TEST_TABLE(TABLE=ENER_TO4,
           FILTRE=_F(NOM_PARA='INST',
                     VALE=3.0,),
           NOM_PARA='TOTALE',
           CRITERE='RELATIF',
           VALE_REFE=9.40794,
           REFERENCE='AUTRE_ASTER',
           VALE_CALC=9.406505127,);

#
# INDICATEURS DE CHARGE - DECHARGE

IND_ENER=POST_ELEM(INDIC_ENER=_F(TOUT='OUI',),
                   RESULTAT=U,
                   INST=(1.,2.,3.,),);

IND_SEUI=POST_ELEM(INDIC_SEUIL=_F(TOUT='OUI',),
                   RESULTAT=U,
                   NUME_ORDRE=(12,52,53,),);

TEST_TABLE(TABLE=IND_ENER,
           FILTRE=(_F(NOM_PARA='NUME_ORDRE',
                      VALE_I=12,),
                   _F(NOM_PARA='LIEU',
                      VALE_K='MA',),),
           NOM_PARA='INDIC_ENER',
           CRITERE='ABSOLU',
           VALE_REFE=0.0,
           REFERENCE='ANALYTIQUE',
           VALE_CALC=0.0,);

TEST_TABLE(TABLE=IND_ENER,
           FILTRE=(_F(NOM_PARA='NUME_ORDRE',
                      VALE_I=52,),
                   _F(NOM_PARA='LIEU',
                      VALE_K='MA',),),
           NOM_PARA='INDIC_ENER',
           VALE_REFE=0.0326,
           PRECISION=0.03,
           REFERENCE='ANALYTIQUE',
           VALE_CALC=0.033376265,);

TEST_TABLE(TABLE=IND_ENER,
           FILTRE=(_F(NOM_PARA='NUME_ORDRE',
                      VALE_I=53,),
                   _F(NOM_PARA='LIEU',
                      VALE_K='MA',),),
           NOM_PARA='INDIC_ENER',
           VALE_REFE=0.0469,
           PRECISION=0.03,
           REFERENCE='ANALYTIQUE',
           VALE_CALC=0.047729905,);

TEST_TABLE(TABLE=IND_SEUI,
           FILTRE=(_F(NOM_PARA='NUME_ORDRE',
                      VALE_I=12,),
                   _F(NOM_PARA='LIEU',
                      VALE_K='MA',),),
           NOM_PARA='INDIC_SEUIL',
           CRITERE='ABSOLU',
           VALE_REFE=0.0,
           REFERENCE='ANALYTIQUE',
           VALE_CALC=0.0,);

TEST_TABLE(TABLE=IND_SEUI,
           FILTRE=(_F(NOM_PARA='NUME_ORDRE',
                      VALE_I=52,),
                   _F(NOM_PARA='LIEU',
                      VALE_K='MA',),),
           NOM_PARA='INDIC_SEUIL',
           VALE_REFE=0.0971,
           PRECISION=0.01,
           REFERENCE='ANALYTIQUE',
           VALE_CALC=0.096406983,);

TEST_TABLE(TABLE=IND_SEUI,
           FILTRE=(_F(NOM_PARA='NUME_ORDRE',
                      VALE_I=53,),
                   _F(NOM_PARA='LIEU',
                      VALE_K='MA',),),
           NOM_PARA='INDIC_SEUIL',
           VALE_REFE=1.0,
           PRECISION=0.01,
           REFERENCE='ANALYTIQUE',
           VALE_CALC=1.0,);

FIN();
#CHECKSUM:c1380931a1099c6bd704ac0b6610f8a6  -:FIN CHECKSUM
