# MODIF  DATE 30/07/2012   AUTEUR LEFEBVRE J-P.LEFEBVRE 
# TITRE ELEMENT DE BETON PRECONTRAINT EN COMPRESSION
# ssnp108a.para = tps_job 60 mem_job 512Mo ncpus 1 liste_test S
#            CONFIGURATION MANAGEMENT OF EDF VERSION
# ======================================================================
# COPYRIGHT (C) 1991 - 2012  EDF R&D                  WWW.CODE-ASTER.ORG
# THIS PROGRAM IS FREE SOFTWARE; YOU CAN REDISTRIBUTE IT AND/OR MODIFY
# IT UNDER THE TERMS OF THE GNU GENERAL PUBLIC LICENSE AS PUBLISHED BY
# THE FREE SOFTWARE FOUNDATION; EITHER VERSION 2 OF THE LICENSE, OR
# (AT YOUR OPTION) ANY LATER VERSION.
#
# THIS PROGRAM IS DISTRIBUTED IN THE HOPE THAT IT WILL BE USEFUL, BUT
# WITHOUT ANY WARRANTY; WITHOUT EVEN THE IMPLIED WARRANTY OF
# MERCHANTABILITY OR FITNESS FOR A PARTICULAR PURPOSE. SEE THE GNU
# GENERAL PUBLIC LICENSE FOR MORE DETAILS.
#
# YOU SHOULD HAVE RECEIVED A COPY OF THE GNU GENERAL PUBLIC LICENSE
# ALONG WITH THIS PROGRAM; IF NOT, WRITE TO EDF R&D CODE_ASTER,
#    1 AVENUE DU GENERAL DE GAULLE, 92141 CLAMART CEDEX, FRANCE.
# ======================================================================
#-----------------------------------------------------------------------
#

DEBUT(   CODE=_F(  NOM = 'SSNP108A',NIV_PUB_WEB='INTERNET'),DEBUG=_F(SDVERI='OUI'))

#

MAILLAGE=LIRE_MAILLAGE(    UNITE=20 )

#

MODELE=AFFE_MODELE(
                 MAILLAGE=MAILLAGE,AFFE=(
                     _F(  GROUP_MA = 'VOILE',
                            PHENOMENE = 'MECANIQUE',
                            MODELISATION = 'DKT'),
                     _F(  GROUP_MA = 'CABLE001',
                            PHENOMENE = 'MECANIQUE',
                            MODELISATION = 'BARRE')) )

#

CARAELEM=AFFE_CARA_ELEM(
                      MODELE=MODELE,
                       COQUE=_F(  GROUP_MA = 'VOILE', COQUE_NCOU=5,
                               EPAIS = 6.0E-1),
                       BARRE=_F(  GROUP_MA = 'CABLE001',
                               SECTION = 'GENERALE',
                               CARA = ( 'A', ),
                               VALE = ( 1.5E-4, )) )

#

BETON=DEFI_MATERIAU(
                       ELAS=_F(  E = 3.0E+10,
                              NU = 0.),
                 BPEL_BETON=_F() )

#

ACIER=DEFI_MATERIAU(
                       ELAS=_F(  E = 2.1E+11,
                              NU = 0.),
                 BPEL_ACIER=_F(  F_PRG = 1.77E+9,
                              FROT_COURB = 0.,
                              FROT_LINE = 0.) )

#

CHMATER=AFFE_MATERIAU(
                   MAILLAGE=MAILLAGE,AFFE=(
                       _F(  GROUP_MA = 'VOILE',
                              MATER = BETON),
                       _F(  GROUP_MA = 'CABLE001',
                              MATER = ACIER)) )

#

CABLEPR=DEFI_CABLE_BP(            MODELE=MODELE,
                                  CHAM_MATER=CHMATER,
                                   CARA_ELEM=CARAELEM,
                              GROUP_MA_BETON='VOILE',
                                  DEFI_CABLE=_F(
                               GROUP_MA = 'CABLE001',
                               NOEUD_ANCRAGE = ( 'NC001001',  'NC001005', ),),
                               TYPE_ANCRAGE = ( 'ACTIF',   'ACTIF',  ),
                                TENSION_INIT=2.0E+5,
                               RECUL_ANCRAGE=0. )

#

CHARMECA=AFFE_CHAR_MECA(
                      MODELE=MODELE,DDL_IMPO=(
                    _F(  NOEUD = 'NB001001',
                               DX = 0.,
                               DY = 0.,
                               DZ = 0.,
                               DRX = 0.,
                               DRY = 0.,
                               DRZ = 0.),
                    _F(  NOEUD = 'NB002001',
                               DX = 0.,
                               DZ = 0.)),
                RELA_CINE_BP=_F(  CABLE_BP = CABLEPR,
                               SIGM_BPEL = 'OUI',
                               RELA_CINE = 'OUI'),
                        INFO=2 )

#

LINST=DEFI_LIST_REEL(    VALE=( 0.0,  1.0, ) )

#

EVOLNOLI=STAT_NON_LINE(
                MODELE=MODELE,
                CHAM_MATER=CHMATER,
                CARA_ELEM=CARAELEM,
                EXCIT=      _F( CHARGE = CHARMECA),
                COMP_INCR=  _F( RELATION = 'ELAS',
                                DEFORMATION = 'PETIT',
                                TOUT = 'OUI'),
                INCREMENT=  _F( LIST_INST = LINST),
                SOLVEUR=    _F( METHODE = 'MULT_FRONT',),
                CONVERGENCE=_F( ITER_GLOB_MAXI = 10,
                                RESI_GLOB_MAXI = 1.E-5),
                INFO=2
              )

EVOLNOLI=CALC_CHAMP( reuse=EVOLNOLI,  RESULTAT=EVOLNOLI, CONTRAINTE=('EFGE_ELNO'))
EVOLNOLI=CALC_CHAMP( reuse=EVOLNOLI,  RESULTAT=EVOLNOLI, CONTRAINTE=('SIEF_ELNO'))



#
########################################################################
# TESTS POUR LES NOEUDS DE L'ELEMENT DE BETON
########################################################################
#
# EFFORT NORMAL AUX NOEUDS DE L'ELEMENT DE BETON
# ----------------------------------------------
#

TEST_RESU(   RESU=_F(  RESULTAT = EVOLNOLI,
                      NUME_ORDRE = 1,
                      NOEUD = 'NB001001',
                      MAILLE = 'QD001001',
                      NOM_CHAM = 'EFGE_ELNO',
                      NOM_CMP = 'NXX',
                      CRITERE = 'RELATIF',
                      PRECISION = 1.0E-6,
                      REFERENCE = 'ANALYTIQUE',
                      VALE = -9.99125765E+4) )

#

TEST_RESU(   RESU=_F(  RESULTAT = EVOLNOLI,
                      NUME_ORDRE = 1,
                      NOEUD = 'NB001002',
                      MAILLE = 'QD001001',
                      NOM_CHAM = 'EFGE_ELNO',
                      NOM_CMP = 'NXX',
                      CRITERE = 'RELATIF',
                      PRECISION = 1.0E-6,
                      REFERENCE = 'ANALYTIQUE',
                      VALE = -9.99125765E+4) )

#

TEST_RESU(   RESU=_F(  RESULTAT = EVOLNOLI,
                      NUME_ORDRE = 1,
                      NOEUD = 'NB002001',
                      MAILLE = 'QD001001',
                      NOM_CHAM = 'EFGE_ELNO',
                      NOM_CMP = 'NXX',
                      CRITERE = 'RELATIF',
                      PRECISION = 1.0E-6,
                      REFERENCE = 'ANALYTIQUE',
                      VALE = -9.99125765E+4) )

#

TEST_RESU(   RESU=_F(  RESULTAT = EVOLNOLI,
                      NUME_ORDRE = 1,
                      NOEUD = 'NB002002',
                      MAILLE = 'QD001001',
                      NOM_CHAM = 'EFGE_ELNO',
                      NOM_CMP = 'NXX',
                      CRITERE = 'RELATIF',
                      PRECISION = 1.0E-6,
                      REFERENCE = 'ANALYTIQUE',
                      VALE = -9.99125765E+4) )

#
# DEPLACEMENT DES NOEUDS DE L'ELEMENT DE BETON
# --------------------------------------------
#

TEST_RESU(   RESU=_F(  RESULTAT = EVOLNOLI,
                      NUME_ORDRE = 1,
                      NOEUD = 'NB001002',
                      NOM_CHAM = 'DEPL',
                      NOM_CMP = 'DX',
                      CRITERE = 'RELATIF',
                      PRECISION = 1.0E-6,
                      REFERENCE = 'ANALYTIQUE',
                      VALE = -1.11013974E-5) )

#

TEST_RESU(   RESU=_F(  RESULTAT = EVOLNOLI,
                      NUME_ORDRE = 1,
                      NOEUD = 'NB002002',
                      NOM_CHAM = 'DEPL',
                      NOM_CMP = 'DX',
                      CRITERE = 'RELATIF',
                      PRECISION = 1.0E-6,
                      REFERENCE = 'ANALYTIQUE',
                      VALE = -1.11013974E-5) )

#
########################################################################
# TESTS POUR LES NOEUDS DU CABLE
########################################################################
#
# EFFORT NORMAL AUX NOEUDS DU CABLE
# ---------------------------------
#

TEST_RESU(   RESU=_F(  RESULTAT = EVOLNOLI,
                      NUME_ORDRE = 1,
                      NOEUD = 'NC001001',
                      MAILLE = 'SG001001',
                      NOM_CHAM = 'SIEF_ELNO',
                      NOM_CMP = 'N',
                      CRITERE = 'RELATIF',
                      PRECISION = 1.0E-6,
                      REFERENCE = 'ANALYTIQUE',
                      VALE = 1.99825153E+5) )

#

TEST_RESU(   RESU=_F(  RESULTAT = EVOLNOLI,
                      NUME_ORDRE = 1,
                      NOEUD = 'NC001002',
                      MAILLE = 'SG001002',
                      NOM_CHAM = 'SIEF_ELNO',
                      NOM_CMP = 'N',
                      CRITERE = 'RELATIF',
                      PRECISION = 1.0E-6,
                      REFERENCE = 'ANALYTIQUE',
                      VALE = 1.99825153E+5) )

#

TEST_RESU(   RESU=_F(  RESULTAT = EVOLNOLI,
                      NUME_ORDRE = 1,
                      NOEUD = 'NC001003',
                      MAILLE = 'SG001003',
                      NOM_CHAM = 'SIEF_ELNO',
                      NOM_CMP = 'N',
                      CRITERE = 'RELATIF',
                      PRECISION = 1.0E-6,
                      REFERENCE = 'ANALYTIQUE',
                      VALE = 1.99825153E+5) )

#

TEST_RESU(   RESU=_F(  RESULTAT = EVOLNOLI,
                      NUME_ORDRE = 1,
                      NOEUD = 'NC001004',
                      MAILLE = 'SG001004',
                      NOM_CHAM = 'SIEF_ELNO',
                      NOM_CMP = 'N',
                      CRITERE = 'RELATIF',
                      PRECISION = 1.0E-6,
                      REFERENCE = 'ANALYTIQUE',
                      VALE = 1.99825153E+5) )

#

TEST_RESU(   RESU=_F(  RESULTAT = EVOLNOLI,
                      NUME_ORDRE = 1,
                      NOEUD = 'NC001005',
                      MAILLE = 'SG001004',
                      NOM_CHAM = 'SIEF_ELNO',
                      NOM_CMP = 'N',
                      CRITERE = 'RELATIF',
                      PRECISION = 1.0E-6,
                      REFERENCE = 'ANALYTIQUE',
                      VALE = 1.99825153E+5) )

#
# DEPLACEMENT DES NOEUDS DU CABLE
# -------------------------------
#

TEST_RESU(   RESU=_F(  RESULTAT = EVOLNOLI,
                      NUME_ORDRE = 1,
                      NOEUD = 'NC001002',
                      NOM_CHAM = 'DEPL',
                      NOM_CMP = 'DX',
                      CRITERE = 'RELATIF',
                      PRECISION = 1.0E-6,
                      REFERENCE = 'ANALYTIQUE',
                      VALE = -2.77534935E-6) )

#

TEST_RESU(   RESU=_F(  RESULTAT = EVOLNOLI,
                      NUME_ORDRE = 1,
                      NOEUD = 'NC001003',
                      NOM_CHAM = 'DEPL',
                      NOM_CMP = 'DX',
                      CRITERE = 'RELATIF',
                      PRECISION = 1.0E-6,
                      REFERENCE = 'ANALYTIQUE',
                      VALE = -5.55069869E-6) )

#

TEST_RESU(   RESU=_F(  RESULTAT = EVOLNOLI,
                      NUME_ORDRE = 1,
                      NOEUD = 'NC001004',
                      NOM_CHAM = 'DEPL',
                      NOM_CMP = 'DX',
                      CRITERE = 'RELATIF',
                      PRECISION = 1.0E-6,
                      REFERENCE = 'ANALYTIQUE',
                      VALE = -8.32604804E-6) )

#

TEST_RESU(   RESU=_F(  RESULTAT = EVOLNOLI,
                      NUME_ORDRE = 1,
                      NOEUD = 'NC001005',
                      NOM_CHAM = 'DEPL',
                      NOM_CMP = 'DX',
                      CRITERE = 'RELATIF',
                      PRECISION = 1.0E-6,
                      REFERENCE = 'ANALYTIQUE',
                      VALE = -1.11013974E-5) )

#

FIN( )
#
