# MODIF  DATE 07/02/2012   AUTEUR PELLET J.PELLET 
# TITRE TEST DE LA LOI JOINT_MECA_RUPT SUR LES ELEMENTS DE JOINT HYME QUAD8
# ssnp118s.para = tps_job 60 mem_job 64Mo ncpus 1 liste_test S
#            CONFIGURATION MANAGEMENT OF EDF VERSION
# ======================================================================
# COPYRIGHT (C) 1991 - 2012  EDF R&D                  WWW.CODE-ASTER.ORG
# THIS PROGRAM IS FREE SOFTWARE; YOU CAN REDISTRIBUTE IT AND/OR MODIFY
# IT UNDER THE TERMS OF THE GNU GENERAL PUBLIC LICENSE AS PUBLISHED BY
# THE FREE SOFTWARE FOUNDATION; EITHER VERSION 2 OF THE LICENSE, OR
# (AT YOUR OPTION) ANY LATER VERSION.
#
# THIS PROGRAM IS DISTRIBUTED IN THE HOPE THAT IT WILL BE USEFUL, BUT
# WITHOUT ANY WARRANTY; WITHOUT EVEN THE IMPLIED WARRANTY OF
# MERCHANTABILITY OR FITNESS FOR A PARTICULAR PURPOSE. SEE THE GNU
# GENERAL PUBLIC LICENSE FOR MORE DETAILS.
#
# YOU SHOULD HAVE RECEIVED A COPY OF THE GNU GENERAL PUBLIC LICENSE
# ALONG WITH THIS PROGRAM; IF NOT, WRITE TO EDF R&D CODE_ASTER,
#    1 AVENUE DU GENERAL DE GAULLE, 92141 CLAMART CEDEX, FRANCE.
# ======================================================================

DEBUT(CODE=_F(NOM='SSNP118S',NIV_PUB_WEB='INTERNET',VISU_EFICAS='OUI'),PAR_LOT='OUI',IGNORE_ALARM=('MODELISA4_9'),DEBUG=_F(SDVERI='OUI'))
# ON IGNORE LES ALARMES SUR LA MAILLE DE JOINT DEGENERE (AVEC DES NOEUDS CONFONDUS)

# INSTANT FINAL (IL FAUT AVOIR UN MULTIPLE DE 4)
insfin=4*15

# HAUTEUR ET SECTION DU CARRE
L_carre=1.
A_carre=1.

# REGULARISATION NORMALE DE LA COURBE FORCE-DEPLACEMENT
k_n=1.E12
# REGULARISATION TANGENTIELLE DE LA COURBE FORCE-DEPLACEMENT
k_t=2*k_n

# CONTRAINTE MAXIMALE
sigma_max = 1.E5

# PRESSION DE FLUIDE EN ENTREE
press = 5.E2

# FORCE DE CHARGEMENT MAXIMALE (RESISTANCE A LA TRACTION)
forc_max = (sigma_max - press)*A_carre

# REGULARISATION D'ENDOMMAGEMENT TANGENTIELE
# 0 => RUPTURE TANGENTIEL IMEDIATEMENT APRES L'OUVERTURE
# 1 => RUPTURES TANGENTIEL ET NORMALE SIMULTANEES
# 2 => PAS D'ENDOMMAGEMENT TANGENTIEL
alpha = 1.5

# PARAMETRE DE LISSAGE DE RUPTURE FRAGILE
# 0 - PENTE INFINIE (RUPTURE ABRUPTE)
# 1 - PENTE DE CHARGEMENT
# \INFINITY - PENTE ZERO (RUPTURE A L'INFINI)
pena_rupture = 0.5

# PENALISATION EN COMPRESSION(>0)
# 0 - PENTE NUL (INTERPENETRATION SANS RESISTANCE, NON PHYSIQUE)
# 1 - PENTE DE CHARGEMENT
# \INFINITY - PENTE INFINI (PAS D'INTERPENETRATION)
pena_contact=3.

# PARAMETRES PHYSIQUES
young=3.E12
poiss=0.0

# PARAMETRES D'AUTOMATISATION
# PARAMETRE DE L'INCLINAISON DE JOINT (NE PAS MODIFIER, LIE AU MAILLAGE)
angle=30./180*pi

# L'OUVERTURE ELASTIQUE DU JOINT + CUBE
U_elas = (forc_max/A_carre + press)/k_n + (forc_max/A_carre)*L_carre/young

# L'OUVERTURE MAXIMALE DU JOINT A LA RUPTURE
U_max=(1.+pena_rupture)*(forc_max/A_carre + press)/k_n

# L'OUVERTURE CORRESPONDANTE A L'ENDOMMAGEMENT PARTIEL
beta=0.2
U_endo=beta*U_elas+(1-beta)*U_max

# VERIFICATION D'ABSENCE DE SNAP-BACK GLOBAL
assert(young > L_carre*k_n/pena_rupture)

MA0=LIRE_MAILLAGE()


MA=CREA_MAILLAGE(MAILLAGE  = MA0, LINE_QUAD = _F(TOUT='OUI'))


MA=DEFI_GROUP(reuse =MA,
              MAILLAGE=MA,

              CREA_GROUP_NO=(_F(NOEUD=('NO4','NO2','NS2'),
                                NOM='DROITE',),
                              _F(NOEUD=('NO1','NO3','NS4'),
                                NOM='GAUCHE',),
                               ),);

MA=MODI_MAILLAGE(reuse =MA,
                   MAILLAGE=MA,
                   ORIE_FISSURE=_F(GROUP_MA='G_CUBE_D'),
                   INFO=2)

MO=AFFE_MODELE(

                MAILLAGE=MA,
                VERIF='MAILLE',

                AFFE= (
                _F(
                   MAILLE = 'CUBE',
                   PHENOMENE = 'MECANIQUE',
                   MODELISATION = 'D_PLAN'
                     ),
                 _F(
                   MAILLE = 'CUBEDEG',
                   PHENOMENE = 'MECANIQUE',
                   MODELISATION = 'PLAN_JOINT_HYME'
                   )
                 )
              )


# MATERIAU ELASTIQUE
MAT_CUB=DEFI_MATERIAU(ELAS=_F(
                              E   = young,
                              NU  = poiss),)

# MATERIAU JOINT
MAT_JOI=DEFI_MATERIAU(
                  JOINT_MECA_RUPT=_F(K_N=k_n,
                                   K_T=k_t,
                                   SIGM_MAX=sigma_max,
                                   PENA_RUPTURE=pena_rupture,
                                   ALPHA=alpha,
                                   PENA_CONTACT=pena_contact ,
                                   RHO_FLUIDE=1000., #kg/m^3
                                   VISC_FLUIDE=1.E-3, #Pa.s
                                   OUV_MIN=1.E-10 #m
                          ),)


CM=AFFE_MATERIAU(MAILLAGE=MA,
                 AFFE=(
                      _F(MAILLE='CUBE',MATER = MAT_CUB),
                      _F(MAILLE='CUBEDEG',  MATER = MAT_JOI))
                 );

# ENCASTREMENT D'UNE DES LEVRES DU JOINT
LIAISON=AFFE_CHAR_MECA(
  MODELE=MO,
  FACE_IMPO= (
    _F(MAILLE='GAUCHE2', DX=0, DY=0),
    )
  )

###################################################################################
#----------------------------------------------------------------------------------
# CALCUL AVEC CHARGEMENT EN MODE I PURE
#----------------------------------------------------------------------------------
###################################################################################


# CHARGEMENT MODE I PUR
TRAC_1=AFFE_CHAR_MECA(
  MODELE=MO,
  FACE_IMPO= (
    _F(MAILLE='DROITE', DX=cos(angle), DY= sin(angle)),
    )
  )

# LE MAILLAGE COMPORTE DEUX NOEUD DE PRESSION : NS5 ET NS7
# ON IMPOSE UNE PRESSION SUR LE NS5 ET ON TESTE LA VALEUR DE LA PRESSION SUR NS7

PAM_J = AFFE_CHAR_MECA(
  MODELE = MO,
  DDL_IMPO = (_F(NOEUD='NS5', PRE1=press ))
  );

# CREATION DE LISTE D'INSTANT
L_INST=DEFI_LIST_REEL(VALE=range(insfin+1))

# LISTE D'INSTANTS POUR LES TESTS DE RESULTATS
linst=[0,insfin/4,insfin/2,3*insfin/4,insfin]
FCT=DEFI_FONCTION(NOM_PARA='INST',VALE=(linst[0], 0.,
                                        linst[1], U_elas,              # TRACTION ELASTIQUE
                                        linst[2], U_endo,              # TRACTION JUSQU'A ENDOMMAGEMENT PARTIEL
                                        linst[3],-U_elas,              # DECHARGEMENT COMPRESSION
                                        linst[4], U_max*0.99999999),   # TRACTION JUSQU'A LA RUPTURE QUASI-COMPLETE
                  PROL_DROITE='LINEAIRE',);


U_HM=STAT_NON_LINE(
  SOLVEUR=_F(METHODE='MUMPS',),
  MODELE     = MO,
  CHAM_MATER = CM,
  EXCIT      = (
    _F(CHARGE = LIAISON , ),
    _F(CHARGE = PAM_J , ),
    _F(CHARGE = TRAC_1, FONC_MULT = FCT),
  ),
  COMP_INCR  = (
          _F(RELATION = 'JOINT_MECA_RUPT',
             MAILLE = 'CUBEDEG', ),
          _F(RELATION = 'ELAS',
             MAILLE = 'CUBE',),
          ),
  INCREMENT  = _F(LIST_INST = L_INST, INST_INIT=0,INST_FIN = insfin),
  CONVERGENCE= _F(ITER_GLOB_MAXI = 20),
  NEWTON     = _F(MATRICE = 'TANGENTE', REAC_ITER=1),
  )


#----------------------------------------------------------------------------------
# POST TRAITEMENT MODE I PURE
#-----------------------------------------------------------------------------------

# CALCUL DE LA FORCE NODALE
U_HM=CALC_NO(reuse =U_HM,
            RESULTAT=U_HM,
            OPTION='FORC_NODA',
            MAILLE='CUBE',
            );
# VECTEUR-FORCE NODALE RESULTANTE : (F_X,F_Y)
TFORCE=POST_RELEVE_T(ACTION=_F(OPERATION='EXTRACTION',
                               INTITULE='F_PILOTE',
                               RESULTAT=U_HM,
                               NOM_CHAM='FORC_NODA',
                               TOUT_ORDRE='OUI',
                               GROUP_NO='DROITE',
                               RESULTANTE=('DX','DY'),),);


# PROJECTEUR SUR LA NORMALE
PNOR = FORMULE(VALE='DX*cos(angle)+DY*sin(angle)',
              NOM_PARA=('DX','DY',),);

# INSERTION D'UNE COLONNE AVEC LA PROJECTION NORMALE DE LA FORCE NODALE
TFORCE=CALC_TABLE(reuse =TFORCE,
                  TABLE=TFORCE,
                  ACTION=_F(OPERATION='OPER',
                            FORMULE=PNOR,
                            NOM_PARA='F_N',),);

# DEPLACEMENT DU NOEUD EN_HAUT
TDELTA_N=POST_RELEVE_T(ACTION=_F(OPERATION='EXTRACTION',
                              INTITULE='DEPL',
                              RESULTAT=U_HM,
                              NOM_CHAM='DEPL',
                              TOUT_ORDRE='OUI',
                              NOEUD='NO2',
                              NOM_CMP=('DX','DY',),),);

# INSERTION D'UNE COLONNE AVEC LA PROJECTION NORMALE DE DEPLACEMENT
TDELTA_N=CALC_TABLE(reuse =TDELTA_N,
                    TABLE=TDELTA_N,
                    ACTION=_F(OPERATION='OPER',
                            FORMULE=PNOR,
                            NOM_PARA='U_N',),);

#----------------------------------------------------------------------------------
# IMPRESSION DE RESULTAT CALCUL MODE I PURE
#-----------------------------------------------------------------------------------



# LA MANIPULATION POUR IMPRIMER LA COURBE FORCE-DEPLACEMENT AU FORMAT XMGRACE
FN=RECU_FONCTION(TABLE=TFORCE,
                  PARA_X='INST',
                  PARA_Y='F_N',);

DN=RECU_FONCTION(TABLE=TDELTA_N,
                  PARA_X='INST',
                  PARA_Y='U_N',);


#----------------------------------------------------------------------------------
# TESTS CALCUL MODE I PURE
#-----------------------------------------------------------------------------------

# COURBE FORCE-DEPLACEMENT JOINT+CUBE EST TESTEE :
# VALEUR DE CHARGEMENT MAXIMALE  (FORC_MAX)
# VALEUR A ENDOMMAGEMENT PARTIEL (FORC_ENDO)
# VALEUR EN PENETRATION          (FORC_PENA)
forc_endo =  A_carre*(U_endo - U_max + press*pena_rupture/k_n)/(L_carre/young-pena_rupture/k_n)
forc_pena = -A_carre*(U_elas + press/(k_n*pena_contact))/(L_carre/young +1./(k_n*pena_contact))

TEST_FONCTION(VALEUR=(_F(FONCTION=FN,
                        NOM_PARA='INST',
                        VALE_PARA=linst[1],
                        VALE_REFE=forc_max,
                        REFERENCE='ANALYTIQUE',),
                     _F(FONCTION=FN,
                        NOM_PARA='INST',
                        VALE_PARA=linst[2],
                        VALE_REFE=forc_endo,
                        REFERENCE='ANALYTIQUE',),
                     _F(FONCTION=FN,
                        NOM_PARA='INST',
                        VALE_PARA=linst[3],
                        VALE_REFE=forc_pena,
                        REFERENCE='ANALYTIQUE',),
                        ),);


# TEST DE LA PRESSION SUR DEUXIEME NOEUD DE PRESSION (NS7)
TEST_RESU (
  RESU = (
    _F(
      REFERENCE = 'ANALYTIQUE',
      RESULTAT  = U_HM,
      NOM_CHAM  = 'DEPL',
      NOM_CMP   = 'PRE1',
      VALE      = press,
      NOEUD     = 'NS7',
      INST      = insfin,
      ),
    )
  )

# IMPRESSION LA FORCE NODALE NORMALE
IMPR_TABLE(TABLE=TFORCE);
# IMPRESSION DE L'OUVERTURE NORMALE
IMPR_TABLE(TABLE=TDELTA_N);

IMPR_FONCTION(FORMAT='TABLEAU',
              COURBE=_F(FONC_X=DN,
                        FONC_Y=FN,
                        LEGENDE='Force Deplacement',),
             );

# EN MODE INTERACTIF SEULEMENT
#IMPR_FONCTION(FORMAT='XMGRACE',
#              PILOTE='INTERACTIF',
#              COURBE=_F(FONC_X=DN,
#                        FONC_Y=FN,
#                        LEGENDE='F(U)',),
#              LEGENDE_X='\\xd\\s\\0n',
#              LEGENDE_Y='F\\sn',
#              TITRE='mode I avec charge-decharge',
#              );

#IMPR_RESU(FORMAT='GMSH',RESU=(_F(RESULTAT=U_HM,NOM_CHAM='DEPL',TYPE_CHAM='VECT_2D',NOM_CMP=('DX','DY'),MAILLE = ('CUBEDEG','CUBE'))))
#IMPR_RESU(RESU=(_F(RESULTAT=U_HM,NOM_CHAM='DEPL',NOM_CMP=('PRE1','DX','DY'),MAILLE = ('CUBEDEG'))))
#IMPR_RESU(RESU=(_F(RESULTAT=U_HM,NOM_CHAM='SIEF_ELGA',NOM_CMP=('SIGN','SITX','FH11X'),MAILLE = ('CUBEDEG'))))
#IMPR_RESU(RESU=(_F(RESULTAT=U_HM,NOM_CHAM='VARI_ELGA',NOM_CMP=('V7','V8','V12'),MAILLE = ('CUBEDEG'))))


FIN()

