# MODIF  DATE 11/06/2012   AUTEUR PELLET J.PELLET 
# RESPONSABLE FERNANDES R.FERNANDES
# ======================================================================
# TITRE ETUDE : ESSAI BIAXIAL DRAINE (MODELISATION D_PLAN)
#            CONFIGURATION MANAGEMENT OF EDF VERSION
# ======================================================================
# COPYRIGHT (C) 1991 - 2012  EDF R&D                  WWW.CODE-ASTER.ORG
# THIS PROGRAM IS FREE SOFTWARE; YOU CAN REDISTRIBUTE IT AND/OR MODIFY
# IT UNDER THE TERMS OF THE GNU GENERAL PUBLIC LICENSE AS PUBLISHED BY
# THE FREE SOFTWARE FOUNDATION; EITHER VERSION 2 OF THE LICENSE, OR
# (AT YOUR OPTION) ANY LATER VERSION.
#
# THIS PROGRAM IS DISTRIBUTED IN THE HOPE THAT IT WILL BE USEFUL, BUT
# WITHOUT ANY WARRANTY; WITHOUT EVEN THE IMPLIED WARRANTY OF
# MERCHANTABILITY OR FITNESS FOR A PARTICULAR PURPOSE. SEE THE GNU
# GENERAL PUBLIC LICENSE FOR MORE DETAILS.
#
# YOU SHOULD HAVE RECEIVED A COPY OF THE GNU GENERAL PUBLIC LICENSE
# ALONG WITH THIS PROGRAM; IF NOT, WRITE TO EDF R&D CODE_ASTER,
#    1 AVENUE DU GENERAL DE GAULLE, 92141 CLAMART CEDEX, FRANCE.
# ======================================================================
#               AVEC LE MODELE DE TYPE DRUCKER-PRAGER A ECROUISSAGE
#               NEGATIF LINEAIRE POUR UN CONFINEMENT DE 2 MPA
# ======================================================================
DEBUT(CODE=_F(NOM='SSNP124A',NIV_PUB_WEB='INTERNET'),DEBUG=_F(SDVERI='OUI'))

MAILLAGE = LIRE_MAILLAGE( );

MATER    = DEFI_MATERIAU(  ELAS    = _F(  E  = 5800.0E6,
                                          NU = 0.3  ,),
                           DRUCK_PRAGER = _F(  ECROUISSAGE = 'LINEAIRE',
                                          ALPHA       =    0.33   ,
                                          P_ULTM      =    0.01   ,
                                          SY          =    2.57E6 ,
                                          H           =  - 2.00E8 ,),
                        );

CHMAT    = AFFE_MATERIAU(  MAILLAGE = MAILLAGE,
                           AFFE     = _F(  TOUT  = 'OUI',
                                           MATER = MATER )
                        );

MODELE   = AFFE_MODELE(    MAILLAGE = MAILLAGE,
                           AFFE     = _F(  TOUT         = 'OUI',
                                           PHENOMENE    = 'MECANIQUE',
                                           MODELISATION = 'D_PLAN'),
                      );

#***********************************************************************
# *** CHARGEMENT MECANIQUE : FORCE DE COMPRESSION + DDL IMPOSES ********
#***********************************************************************
SIGINIT=CREA_CHAMP(TYPE_CHAM='CART_SIEF_R',
                  OPERATION='AFFE',
                  MODELE=MODELE,
                  AFFE=_F(TOUT='OUI',
                          NOM_CMP=('SIXX','SIYY','SIZZ','SIXY','SIXZ','SIYZ','SIP','M11','FH11X','FH11Y',),
                          VALE=(-2.E6,-2.E6,-2.E6,0.0,0.0,0.0,0,0.0,0.0,0.0,),),);

CHAR_UM3 = AFFE_CHAR_MECA( MODELE   = MODELE,
                           PRES_REP = _F(  MAILLE = 'M3',
                                           PRES   = 2.0E6)
                        )

CHAR_UM4 = AFFE_CHAR_MECA( MODELE   = MODELE,
                           PRES_REP = _F(  MAILLE = 'M4',
                                           PRES = 2.0E6)
                        )

CHAR_UM5 = AFFE_CHAR_MECA( MODELE   = MODELE,
                           PRES_REP = _F(  MAILLE = 'M5',
                                           PRES = 2.0E6)
                        )

DEPL_M2  = AFFE_CHAR_MECA( MODELE   = MODELE,
                           DDL_IMPO = _F(  MAILLE = 'M2',
                                           DY     = 0.)
                        )

DEPL_M5  = AFFE_CHAR_MECA( MODELE   = MODELE,
                           DDL_IMPO = _F(  MAILLE = 'M5',
                                           DX     = 0.)
                         )

DEPL_M4  = AFFE_CHAR_MECA( MODELE   = MODELE,
                           FACE_IMPO= _F(  MAILLE = 'M4',
                                           DY = 1.)
                         )

COEF2    = DEFI_FONCTION(  NOM_PARA    = 'INST',
                           PROL_DROITE = 'CONSTANT',
                           PROL_GAUCHE = 'CONSTANT',
                           VALE=( 1.0,  -0.000,
                                  2.0,  -0.015,    )
                        )

TEMPS    = DEFI_LIST_REEL( DEBUT       = 1.,
                           INTERVALLE  = (
                                           _F(  JUSQU_A = 2.000, NOMBRE = 100, ),),
                          )

U2       = STAT_NON_LINE(
                          MODELE     = MODELE,
                          CHAM_MATER = CHMAT,
                          EXCIT      = (
                                        _F( CHARGE        = CHAR_UM3,),
                                        _F( CHARGE        = DEPL_M5, ),
                                        _F( CHARGE        = DEPL_M2, ),
                                        _F( CHARGE        = DEPL_M4,
                                            FONC_MULT     = COEF2,),),
                         COMP_INCR   = _F( RELATION       = 'DRUCK_PRAGER'),
                         NEWTON      = _F( MATRICE        = 'TANGENTE',
                                           REAC_ITER      = 1,),
                         ETAT_INIT   = _F( SIGM           = SIGINIT,),
                         CONVERGENCE = _F( RESI_GLOB_RELA = 1.E-6,
                                           ITER_GLOB_MAXI = 50),
                         INCREMENT   = _F( LIST_INST      = TEMPS,)
                        )

U2=CALC_CHAMP(reuse=U2,CONTRAINTE=('SIGM_ELNO'),VARI_INTERNE=('VARI_ELNO'),RESULTAT=U2)


U2       = CALC_CHAMP( reuse    = U2,
                    RESULTAT = U2,
                    CONTRAINTE='SIGM_NOEU',VARI_INTERNE='VARI_NOEU'
                  )

TEST_RESU( RESU = (
###########################
# --- CONTRAINTE SIXX --- #
###########################
                _F(   RESULTAT   = U2,
                      REFERENCE  = 'NON_REGRESSION',
                      VERSION    = '7.2.6',
                      NOEUD      = 'N4',
                      NOM_CHAM   = 'SIGM_NOEU',
                      NOM_CMP    = 'SIXX',
                      INST       = 2.0,
                      PRECISION  = 1.E-3,
                      VALE       = -2.0E+6),
###########################
# --- CONTRAINTE SIYY --- #
###########################
                 _F(  RESULTAT   = U2,
                      REFERENCE  = 'NON_REGRESSION',
                      VERSION    = '7.2.6',
                      NOEUD      = 'N4',
                      NOM_CHAM   = 'SIGM_NOEU',
                      NOM_CMP    = 'SIYY',
                      INST       = 1.07000,
                      PRECISION  = 1.E-3,
                      VALE       = -8.6923076923077E+06),
                 _F(  RESULTAT   = U2,
                      REFERENCE  = 'NON_REGRESSION',
                      VERSION    = '7.2.6',
                      NOEUD      = 'N4',
                      NOM_CHAM   = 'SIGM_NOEU',
                      NOM_CMP    = 'SIYY',
                      INST       = 1.1600,
                      PRECISION  = 1.E-3,
                      VALE       = -1.3889615354815E+07),
                 _F(  RESULTAT   = U2,
                      REFERENCE  = 'NON_REGRESSION',
                      VERSION    = '7.2.6',
                      NOEUD      = 'N4',
                      NOM_CHAM   = 'SIGM_NOEU',
                      NOM_CMP    = 'SIYY',
                      INST       = 1.3400,
                      PRECISION  = 1.E-3,
                      VALE       = -9.8991400791519E+06),
                 _F(  RESULTAT   = U2,
                      REFERENCE  = 'NON_REGRESSION',
                      VERSION    = '7.2.6',
                      NOEUD      = 'N4',
                      NOM_CHAM   = 'SIGM_NOEU',
                      NOM_CMP    = 'SIYY',
                      INST       = 1.5300,
                      PRECISION  = 1.E-3,
                      VALE       = -9.9066954589775E+06),
###############################
# --- VARIABLE INTERNE V1 --- #
###############################
                 _F(  RESULTAT   = U2,
                      REFERENCE  = 'NON_REGRESSION',
                      VERSION    = '7.2.6',
                      NOEUD      = 'N4',
                      NOM_CHAM   = 'VARI_NOEU',
                      NOM_CMP    = 'V1',
                      INST       = 1.07000,
                      PRECISION  = 1.E-3,
                      CRITERE    = 'ABSOLU',
                      VALE       = 0.0000000000000E+00),
                 _F(  RESULTAT   = U2,
                      REFERENCE  = 'NON_REGRESSION',
                      VERSION    = '7.2.6',
                      NOEUD      = 'N4',
                      NOM_CHAM   = 'VARI_NOEU',
                      NOM_CMP    = 'V1',
                      INST       = 1.1600,
                      PRECISION  = 1.E-3,
                      VALE       = 1.2016013810739E-03),
                 _F(  RESULTAT   = U2,
                      REFERENCE  = 'NON_REGRESSION',
                      VERSION    = '7.2.6',
                      NOEUD      = 'N4',
                      NOM_CHAM   = 'VARI_NOEU',
                      NOM_CMP    = 'V1',
                      INST       = 1.3400,
                      PRECISION  = 1.E-3,
                      VALE       = 1.1238671080908E-02),
                 _F(  RESULTAT   = U2,
                      REFERENCE  = 'NON_REGRESSION',
                      VERSION    = '7.2.6',
                      NOEUD      = 'N4',
                      NOM_CHAM   = 'VARI_NOEU',
                      NOM_CMP    = 'V1',
                      INST       = 1.5300,
                      PRECISION  = 1.E-3,
                      VALE       = 2.0124989937598E-02),

##########################
# --- DEPLACEMENT DY --- #
##########################
                 _F(  RESULTAT   = U2,
                      REFERENCE  = 'ANALYTIQUE',
                      NOEUD      = 'N4',
                      NOM_CHAM   = 'DEPL',
                      NOM_CMP    = 'DY',
                      INST       = 1.07000,
                      PRECISION  = 1.E-3,
                      VALE       = -1.050E-03),
                 _F(  RESULTAT   = U2,
                      REFERENCE  = 'ANALYTIQUE',
                      NOEUD      = 'N4',
                      NOM_CHAM   = 'DEPL',
                      NOM_CMP    = 'DY',
                      INST       = 1.1600,
                      PRECISION  = 1.E-3,
                      VALE       = -2.400E-03),
                 _F(  RESULTAT   = U2,
                      REFERENCE  = 'ANALYTIQUE',
                      NOEUD      = 'N4',
                      NOM_CHAM   = 'DEPL',
                      NOM_CMP    = 'DY',
                      INST       = 1.3400,
                      PRECISION  = 1.E-3,
                      VALE       = -5.1000E-03),
                 _F(  RESULTAT   = U2,
                      REFERENCE  = 'ANALYTIQUE',
                      NOEUD      = 'N4',
                      NOM_CHAM   = 'DEPL',
                      NOM_CMP    = 'DY',
                      INST       = 1.5300,
                      PRECISION  = 1.E-3,
                      VALE       = -7.950000E-03),
)
)
########################################################################
# --- DONNEES UTILES POUR IMPRESSION ----------------------------------#
########################################################################
#SIGMA  = POST_RELEVE_T( ACTION = _F( INTITULE  = 'SIGMA',
#           RESULTAT  =  U2,
#           NOEUD  = 'N4',
#           NOM_CHAM  = 'SIGM_ELNO',
#           TOUT_CMP  = 'OUI',
#           OPERATION = 'EXTRACTION',),);
#
#DEFORMAT = POST_RELEVE_T( ACTION = _F( INTITULE  = 'DEFORMATION',
#           RESULTAT  =  U2,
#           NOEUD  = 'N4',
#           NOM_CHAM  = 'VARI_ELNO',
#           TOUT_CMP  = 'OUI',
#           OPERATION = 'EXTRACTION',),);
#
#DEPLACEM = POST_RELEVE_T( ACTION = _F( INTITULE  = 'DEPLACEMENT',
#           RESULTAT  =  U2,
#           NOEUD  = 'N4',
#           NOM_CHAM  = 'DEPL',
#           TOUT_CMP  = 'OUI',
#           OPERATION = 'EXTRACTION',),);
#
#IMPR_TABLE(TABLE=SIGMA,   );
#IMPR_TABLE(TABLE=DEFORMAT,);
#IMPR_TABLE(TABLE=DEPLACEM,);
#######################################################################

FIN();
