# TITRE TEST DES ELEMENTS A DISCONTINUITE SUR UNE FISSURE AVEC SAUT NON CONSTANT
# ======================================================================
# COPYRIGHT (C) 1991 - 2015  EDF R&D                  WWW.CODE-ASTER.ORG
# THIS PROGRAM IS FREE SOFTWARE; YOU CAN REDISTRIBUTE IT AND/OR MODIFY
# IT UNDER THE TERMS OF THE GNU GENERAL PUBLIC LICENSE AS PUBLISHED BY
# THE FREE SOFTWARE FOUNDATION; EITHER VERSION 2 OF THE LICENSE, OR
# (AT YOUR OPTION) ANY LATER VERSION.
#
# THIS PROGRAM IS DISTRIBUTED IN THE HOPE THAT IT WILL BE USEFUL, BUT
# WITHOUT ANY WARRANTY; WITHOUT EVEN THE IMPLIED WARRANTY OF
# MERCHANTABILITY OR FITNESS FOR A PARTICULAR PURPOSE. SEE THE GNU
# GENERAL PUBLIC LICENSE FOR MORE DETAILS.
#
# YOU SHOULD HAVE RECEIVED A COPY OF THE GNU GENERAL PUBLIC LICENSE
# ALONG WITH THIS PROGRAM; IF NOT, WRITE TO EDF R&D CODE_ASTER,
#    1 AVENUE DU GENERAL DE GAULLE, 92141 CLAMART CEDEX, FRANCE.
# ======================================================================

DEBUT(CODE=_F(NIV_PUB_WEB='INTERNET', VISU_EFICAS='OUI'), DEBUG=_F(SDVERI='OUI'))

tfin = 1.
nbinst=10
nbarch=10

PRE_GMSH()

MA_0 = LIRE_MAILLAGE()

MA_0 = DEFI_GROUP(reuse = MA_0,
       MAILLAGE = MA_0,
       CREA_GROUP_MA = (
                        _F(NOM = 'HAUT'   , GROUP_MA = 'GM1'),
                        _F(NOM = 'BAS'    , GROUP_MA = 'GM2'),
                        _F(NOM = 'GAUCHE' , GROUP_MA = 'GM4'),
                        _F(NOM = 'DROITE' , GROUP_MA = 'GM3'),
                        _F(NOM = 'MATRICE', GROUP_MA = 'GM8'),
                       ),
       CREA_GROUP_NO = (
                        _F(NOM = 'MATRICE',GROUP_MA = 'GM8'),
                        _F(NOM = 'NO_JBG', GROUP_MA = 'GM11'),
                        _F(NOM = 'NO_BD' , GROUP_MA = 'GM12'),
                        _F(NOM = 'NO_HD' , GROUP_MA = 'GM13'),
                        _F(NOM = 'NO_JHG', GROUP_MA = 'GM14'),
                        _F(NOM = 'NO_JBD', GROUP_MA = 'GM15'),
                        _F(NOM = 'NO_JHD', GROUP_MA = 'GM16'),
                        _F(
                           NOM = 'HAUT_ALL' ,
                           GROUP_MA = 'GM1',
                           OPTION = 'NOEUD_ORDO',
                           GROUP_NO_ORIG = 'NO_JHG',
                           GROUP_NO_EXTR = 'NO_HD',),
                        _F(
                           NOM = 'BAS_ALL'  ,
                           GROUP_MA = 'GM2',
                           OPTION = 'NOEUD_ORDO',
                           GROUP_NO_ORIG = 'NO_JBG',
                           GROUP_NO_EXTR = 'NO_BD',),
                        _F(
                           NOM = 'DROITE'   ,
                           GROUP_MA = 'GM3',
                           OPTION = 'NOEUD_ORDO',
                           GROUP_NO_ORIG = 'NO_HD',
                           GROUP_NO_EXTR = 'NO_BD',),
                       _F(
                           NOM = 'GN_J_D',
                           GROUP_MA = 'GM5',
                           OPTION = 'NOEUD_ORDO',
                           GROUP_NO_ORIG = 'NO_JHD',
                           GROUP_NO_EXTR = 'NO_JBD',),
                        _F(
                           NOM = 'GAUCHE',
                           GROUP_MA = 'GM4',
                           OPTION = 'NOEUD_ORDO',
                           GROUP_NO_ORIG = 'NO_JHG',
                           GROUP_NO_EXTR = 'NO_JBG',),
                        _F(
                           NOM = 'HAUT'   ,
                           DIFFE = ('HAUT_ALL','GAUCHE'),),
                        _F(
                           NOM      = 'BAS' ,
                           DIFFE    = ('BAS_ALL','GAUCHE'),),

                       )

                     )


MA = CREA_MAILLAGE(
  MAILLAGE = MA_0,
  CREA_FISS = _F(
    NOM = 'FISS',
    GROUP_NO_2 = 'GN_J_D',
    GROUP_NO_1 = 'GAUCHE',
    PREF_MAILLE = 'MJ',
    )
  )


BETON = DEFI_MATERIAU(
  ELAS      = _F (
                  E  = 10.,
                  NU = 0.
                  ),
  RUPT_FRAG = _F(
                 SIGM_C = 1.1,
                 GC     = 0.9,
                 ),
               )

CHMAT = AFFE_MATERIAU(
          MAILLAGE = MA,
          AFFE = _F(
          GROUP_MA = ('MATRICE','FISS'),
          MATER    =  BETON,
       )
     )

MO = AFFE_MODELE(
       MAILLAGE = MA,
       AFFE = (
         _F(
           GROUP_MA     = 'MATRICE',
           PHENOMENE    = 'MECANIQUE',
           MODELISATION = 'D_PLAN'
           ),
         _F(
           GROUP_MA     = 'FISS',
           PHENOMENE    = 'MECANIQUE',
           MODELISATION = 'PLAN_ELDI'
           ),
        )
       )



UG=DEFI_FONCTION(  NOM_PARA='Y',
                    VALE=(


  -3.14159265358979, -1.21222189711981,
  -3.07876080051800, -1.19601974751385,
  -3.01592894744620, -1.18013222272167,
  -2.95309709437441, -1.16454733592747,
  -2.89026524130261, -1.14925377255389,
  -2.82743338823081, -1.13424084091627,
  -2.76460153515902, -1.11949842732317,
  -2.70176968208722, -1.10501695515094,
  -2.63893782901543, -1.09078734747759,
  -2.57610597594363, -1.07680099291089,
  -2.51327412287183, -1.06304971428840,
  -2.45044226980004, -1.04952573996468,
  -2.38761041672824, -1.03622167743322,
  -2.32477856365645, -1.02313048905886,
  -2.26194671058465, -1.01024546972129,
  -2.19911485751286, -0.99756022619187,
  -2.13628300444106, -0.98506865808486,
  -2.07345115136926, -0.97276494024114,
  -2.01061929829747, -0.96064350641694,
  -1.94778744522567, -0.94869903416327,
# ... 81 like lines cut

                           ),
                        )



VG=DEFI_FONCTION(   NOM_PARA='Y',
                    VALE=(

  -3.14159265358979,   0  ,
  -3.07876080051800,   0  ,
  -3.01592894744620,   0  ,
  -2.95309709437441,   0  ,
  -2.89026524130261,   0  ,
  -2.82743338823081,   0  ,
  -2.76460153515902,   0  ,
  -2.70176968208722,   0  ,
  -2.63893782901543,   0  ,
  -2.57610597594363,   0  ,
  -2.51327412287183,   0  ,
  -2.45044226980004,   0  ,
  -2.38761041672824,   0  ,
  -2.32477856365645,   0  ,
  -2.26194671058465,   0  ,
  -2.19911485751286,   0  ,
  -2.13628300444106,   0  ,
  -2.07345115136926,   0  ,
  -2.01061929829747,   0  ,
  -1.94778744522567,   0  ,
# ... 81 like lines cut

                           ),
                        )



UD=DEFI_FONCTION(   NOM_PARA='Y',
                    VALE=(


  -3.14159265358979, 0.02500000000000  ,
  -3.07876080051800, 0.02550000000000  ,
  -3.01592894744620, 0.02600000000000  ,
  -2.95309709437441, 0.02650000000000  ,
  -2.89026524130261, 0.02700000000000  ,
  -2.82743338823081, 0.02750000000000  ,
  -2.76460153515902, 0.02800000000000  ,
  -2.70176968208722, 0.02850000000000  ,
  -2.63893782901543, 0.02900000000000  ,
  -2.57610597594363, 0.02950000000000  ,
  -2.51327412287183, 0.03000000000000  ,
  -2.45044226980004, 0.03050000000000  ,
  -2.38761041672824, 0.03100000000000  ,
  -2.32477856365645, 0.03150000000000  ,
  -2.26194671058465, 0.03200000000000  ,
  -2.19911485751286, 0.03250000000000  ,
  -2.13628300444106, 0.03300000000000  ,
  -2.07345115136926, 0.03350000000000  ,
  -2.01061929829747, 0.03400000000000  ,
  -1.94778744522567, 0.03450000000000  ,
# ... 81 like lines cut



                           ),
                        )

VD=DEFI_FONCTION(   NOM_PARA='Y',
                    VALE=(

  -3.14159265358979, -0.00397887357730   ,
  -3.07876080051800, -0.00397887357730   ,
  -3.01592894744620, -0.00397887357730   ,
  -2.95309709437441, -0.00397887357730   ,
  -2.89026524130261, -0.00397887357730   ,
  -2.82743338823081, -0.00397887357730   ,
  -2.76460153515902, -0.00397887357730   ,
  -2.70176968208722, -0.00397887357730   ,
  -2.63893782901543, -0.00397887357730   ,
  -2.57610597594363, -0.00397887357730   ,
  -2.51327412287183, -0.00397887357730   ,
  -2.45044226980004, -0.00397887357730   ,
  -2.38761041672824, -0.00397887357730   ,
  -2.32477856365645, -0.00397887357730   ,
  -2.26194671058465, -0.00397887357730   ,
  -2.19911485751286, -0.00397887357730   ,
  -2.13628300444106, -0.00397887357730   ,
  -2.07345115136926, -0.00397887357730   ,
  -2.01061929829747, -0.00397887357730   ,
  -1.94778744522567, -0.00397887357730   ,
# ... 81 like lines cut


                           ),
                        )


UH=DEFI_FONCTION(   NOM_PARA='X',
                    VALE=(


                  0,                0,
   0.02500000000000, 0.00187500000000,
   0.05000000000000, 0.00375000000000,
   0.07500000000000, 0.00562500000000,
   0.10000000000000, 0.00750000000000,
   0.12500000000000, 0.00937500000000,
   0.15000000000000, 0.01125000000000,
   0.17500000000000, 0.01312500000000,
   0.20000000000000, 0.01500000000000,
   0.22500000000000, 0.01687500000000,
   0.25000000000000, 0.01875000000000,
   0.27500000000000, 0.02062500000000,
   0.30000000000000, 0.02250000000000,
   0.32500000000000, 0.02437500000000,
   0.35000000000000, 0.02625000000000,
   0.37500000000000, 0.02812500000000,
   0.40000000000000, 0.03000000000000,
   0.42500000000000, 0.03187500000000,
   0.45000000000000, 0.03375000000000,
   0.47500000000000, 0.03562500000000,
# ... 21 like lines cut




                           ),
                        )




VH=DEFI_FONCTION(   NOM_PARA='X',
                    VALE=(

                  0 ,                 0,
   0.02500000000000 , -0.00000248679599,
   0.05000000000000 , -0.00000994718394,
   0.07500000000000 , -0.00002238116387,
   0.10000000000000 , -0.00003978873577,
   0.12500000000000 , -0.00006216989965,
   0.15000000000000 , -0.00008952465549,
   0.17500000000000 , -0.00012185300330,
   0.20000000000000 , -0.00015915494309,
   0.22500000000000 , -0.00020143047485,
   0.25000000000000 , -0.00024867959858,
   0.27500000000000 , -0.00030090231428,
   0.30000000000000 , -0.00035809862196,
   0.32500000000000 , -0.00042026852160,
   0.35000000000000 , -0.00048741201322,
   0.37500000000000 , -0.00055952909681,
   0.40000000000000 , -0.00063661977237,
   0.42500000000000 , -0.00071868403990,
   0.45000000000000 , -0.00080572189940,
   0.47500000000000 , -0.00089773335088,
# ... 21 like lines cut



                           ),
                        )


UB=DEFI_FONCTION(   NOM_PARA='X',
                    VALE=(

                  0,                 0,
   0.02500000000000,  0.00062500000000,
   0.05000000000000,  0.00125000000000,
   0.07500000000000,  0.00187500000000,
   0.10000000000000,  0.00250000000000,
   0.12500000000000,  0.00312500000000,
   0.15000000000000,  0.00375000000000,
   0.17500000000000,  0.00437500000000,
   0.20000000000000,  0.00500000000000,
   0.22500000000000,  0.00562500000000,
   0.25000000000000,  0.00625000000000,
   0.27500000000000,  0.00687500000000,
   0.30000000000000,  0.00750000000000,
   0.32500000000000,  0.00812500000000,
   0.35000000000000,  0.00875000000000,
   0.37500000000000,  0.00937500000000,
   0.40000000000000,  0.01000000000000,
   0.42500000000000,  0.01062500000000,
   0.45000000000000,  0.01125000000000,
   0.47500000000000,  0.01187500000000,
# ... 21 like lines cut


                           ),
                        )


VB=DEFI_FONCTION(   NOM_PARA='X',
                    VALE=(

                  0,                 0,
   0.02500000000000, -0.00000248679599,
   0.05000000000000, -0.00000994718394,
   0.07500000000000, -0.00002238116387,
   0.10000000000000, -0.00003978873577,
   0.12500000000000, -0.00006216989965,
   0.15000000000000, -0.00008952465549,
   0.17500000000000, -0.00012185300330,
   0.20000000000000, -0.00015915494309,
   0.22500000000000, -0.00020143047485,
   0.25000000000000, -0.00024867959858,
   0.27500000000000, -0.00030090231428,
   0.30000000000000, -0.00035809862196,
   0.32500000000000, -0.00042026852160,
   0.35000000000000, -0.00048741201322,
   0.37500000000000, -0.00055952909681,
   0.40000000000000, -0.00063661977237,
   0.42500000000000, -0.00071868403990,
   0.45000000000000, -0.00080572189940,
   0.47500000000000, -0.00089773335088,
# ... 21 like lines cut


                           ),
                        )


FIXE=AFFE_CHAR_MECA(
  MODELE=MO,
  FACE_IMPO= (
    _F(GROUP_MA='GAUCHE', DX=0.,DY=0. ),
    )
  )


DEPL_I=AFFE_CHAR_MECA_F(MODELE=MO,

         DDL_IMPO=(
                  _F(GROUP_NO='HAUT'   ,DX = UH    ,DY = VH   ),
                  _F(GROUP_NO='BAS'    ,DX = UB    ,DY = VB   ),
                  _F(GROUP_NO='GAUCHE' ,DX = UG    ,DY = VG   ),
                  _F(GROUP_NO='DROITE' ,DX = UD    ,DY = VD   ),

                 )
                     )

INSTANTS = DEFI_LIST_REEL(
  DEBUT = -1.,
  INTERVALLE = (
    _F(JUSQU_A =  0,     NOMBRE =  1),
    _F(JUSQU_A =  tfin, NOMBRE = nbinst),
    )
  )

FCT = DEFI_FONCTION(
  NOM_PARA = 'INST',
  VALE     = (-1,0,   0,0.0001,   1,1)
  )

INS_ARCH = DEFI_LIST_REEL(
  DEBUT = -1.,
  INTERVALLE = (
    _F(JUSQU_A =  0,     NOMBRE =  1),
    _F(JUSQU_A =  tfin, NOMBRE = nbarch),
    )
  )


EVOL = STAT_NON_LINE(
  MODELE = MO,
  CHAM_MATER = CHMAT,
  EXCIT = (
    _F(CHARGE = DEPL_I,FONC_MULT=FCT),
    ),
  COMPORTEMENT = (
    _F(RELATION = 'ELAS'    , GROUP_MA = 'MATRICE'),
    _F(RELATION = 'CZM_EXP' , GROUP_MA = 'FISS'   ),
    ),
  INCREMENT = _F(
    LIST_INST = INSTANTS,
    INST_FIN  = tfin,
    ),
  NEWTON  = _F(
    MATRICE   = 'TANGENTE',
    REAC_ITER = 1,
    ),
  CONVERGENCE = _F(
    RESI_GLOB_MAXI = 1.E-12,
    ITER_GLOB_MAXI = 50,
    ),
  ARCHIVAGE = _F(
   LIST_INST = INS_ARCH
    )
  )


TEST_RESU(RESU=(_F(INST=1.0,
                   REFERENCE='ANALYTIQUE',
                   POINT=1,
                   RESULTAT=EVOL,
                   NOM_CHAM='VARI_ELGA',
                   NOM_CMP='V1',
                   VALE_CALC=0.493631943,
                   VALE_REFE=0.49314999999999998,
                   MAILLE='MJ15',),
                _F(INST=1.0,
                   REFERENCE='ANALYTIQUE',
                   POINT=3,
                   RESULTAT=EVOL,
                   NOM_CHAM='VARI_ELGA',
                   NOM_CMP='V1',
                   VALE_CALC=1.075740571,
                   VALE_REFE=1.075,
                   MAILLE='MJ45',),
                _F(INST=1.0,
                   REFERENCE='ANALYTIQUE',
                   POINT=2,
                   RESULTAT=EVOL,
                   NOM_CHAM='VARI_ELGA',
                   NOM_CMP='V6',
                   VALE_CALC=0.448500819,
                   VALE_REFE=0.44890000000000002,
                   MAILLE='MJ30',),
                ),
          )

IMPR_RESU(
  FORMAT  = 'RESULTAT',
  RESU=_F(MAILLAGE=MA)
         )


FIN()
