# TITRE DETECTION DES SINGULARITES DANS UNE PLAQUE FISSUREE (QUAD8)
# ======================================================================
# COPYRIGHT (C) 1991 - 2012  EDF R&D                  WWW.CODE-ASTER.ORG
# THIS PROGRAM IS FREE SOFTWARE; YOU CAN REDISTRIBUTE IT AND/OR MODIFY
# IT UNDER THE TERMS OF THE GNU GENERAL PUBLIC LICENSE AS PUBLISHED BY
# THE FREE SOFTWARE FOUNDATION; EITHER VERSION 2 OF THE LICENSE, OR
# (AT YOUR OPTION) ANY LATER VERSION.
#
# THIS PROGRAM IS DISTRIBUTED IN THE HOPE THAT IT WILL BE USEFUL, BUT
# WITHOUT ANY WARRANTY; WITHOUT EVEN THE IMPLIED WARRANTY OF
# MERCHANTABILITY OR FITNESS FOR A PARTICULAR PURPOSE. SEE THE GNU
# GENERAL PUBLIC LICENSE FOR MORE DETAILS.
#
# YOU SHOULD HAVE RECEIVED A COPY OF THE GNU GENERAL PUBLIC LICENSE
# ALONG WITH THIS PROGRAM; IF NOT, WRITE TO EDF R&D CODE_ASTER,
#    1 AVENUE DU GENERAL DE GAULLE, 92141 CLAMART CEDEX, FRANCE.
# ======================================================================
# person_in_charge: josselin.delmas at edf.fr
# TEST V6.03.130
# CHARGEMENT EN PRESSION
# MAILLAGE : QUAD8
# COMPORTEMENT ELASTIQUE

DEBUT(CODE=_F(NOM='SSNP130D',
              NIV_PUB_WEB='INTERNET',),
      DEBUG=_F(SDVERI='OUI',),);

MA=LIRE_MAILLAGE(FORMAT='MED',);

# DEFINITION DU MATERIAU

ACIER=DEFI_MATERIAU(ELAS=_F(E=200000.0,
                            NU=0.3,),);

# DEFINITION DES INSTANTS POUR STAT_NON_LINE

L_INST=DEFI_LIST_REEL(DEBUT=0.0,
                      INTERVALLE=_F(JUSQU_A=1.0,
                                    NOMBRE=1,),);

F_INST=DEFI_FONCTION(NOM_PARA='INST',VALE=(0.0,0.0,
                           1.0,1.0,
                           ),);

MO=AFFE_MODELE(MAILLAGE=MA,
               AFFE=_F(GROUP_MA=('SURF1','SURF2','GMP34',),
                       PHENOMENE='MECANIQUE',
                       MODELISATION='C_PLAN',),);

MA=MODI_MAILLAGE(reuse =MA,
                 MAILLAGE=MA,
                 ORIE_PEAU_2D=_F(GROUP_MA='GMP34',),);

CHMAT=AFFE_MATERIAU(MAILLAGE=MA,
                    AFFE=_F(TOUT='OUI',
                            MATER=ACIER,),);

CHP=AFFE_CHAR_MECA(MODELE=MO,
                   PRES_REP=_F(GROUP_MA='GMP34',
                               PRES=1.0,),);

CHCL=AFFE_CHAR_MECA(MODELE=MO,
                    DDL_IMPO=(_F(GROUP_MA='LIGA',
                                 DY=0.0,),
                              _F(GROUP_NO='GNP2',
                                 DX=0.0,),),);

DEPLA=STAT_NON_LINE(MODELE=MO,
                    CHAM_MATER=CHMAT,
                    EXCIT=(_F(CHARGE=CHP,
                              FONC_MULT=F_INST,),
                           _F(CHARGE=CHCL,),),
                    COMPORTEMENT=_F(RELATION='ELAS',
                                 TOUT='OUI',),
                    INCREMENT=_F(LIST_INST=L_INST,),);

DEPLA=CALC_CHAMP(reuse=DEPLA,RESULTAT=DEPLA,INST=1.,ENERGIE=('ETOT_ELEM'))


DEPLA=CALC_ERREUR(reuse =DEPLA,
                  RESULTAT=DEPLA,
                  INST=1.,
                  OPTION=('ERME_ELEM','ERME_ELNO','SING_ELEM','SING_ELNO',),
                  PREC_ERR=1.2,);

# TEST DE SING_ELEM VALEUR MAX ET MIN DES 2 COMPOSANTES

TEST_RESU(RESU=(_F(INST=1.0,
                   TYPE_TEST='MAX',
                   RESULTAT=DEPLA,
                   NOM_CHAM='SING_ELEM',
                   NOM_CMP='DEGRE',
                   VALE_CALC=2.0,
                   VALE_REFE=2.0,
                   REFERENCE='ANALYTIQUE',
                   CRITERE='RELATIF',
                   ),
                _F(INST=1.0,
                   TYPE_TEST='MIN',
                   RESULTAT=DEPLA,
                   NOM_CHAM='SING_ELEM',
                   NOM_CMP='DEGRE',
                   VALE_CALC=0.51030010861354,
                   VALE_REFE=0.5,
                   REFERENCE='ANALYTIQUE',
                   CRITERE='RELATIF',
                   PRECISION=0.025,
                   ),
                _F(INST=1.0,
                   TYPE_TEST='MAX',
                   RESULTAT=DEPLA,
                   NOM_CHAM='SING_ELEM',
                   NOM_CMP='RAPPORT',
                   VALE_CALC=1.155007608,
                   CRITERE='RELATIF',
                   ),
                _F(INST=1.0,
                   TYPE_TEST='MIN',
                   RESULTAT=DEPLA,
                   NOM_CHAM='SING_ELEM',
                   NOM_CMP='RAPPORT',
                   VALE_CALC=0.161663899,
                   CRITERE='RELATIF',
                   ),
                _F(INST=1.0,
                   TYPE_TEST='MAX',
                   RESULTAT=DEPLA,
                   NOM_CHAM='SING_ELEM',
                   NOM_CMP='TAILLE',
                   VALE_CALC=4.552608745,
                   CRITERE='RELATIF',
                   ),
                _F(INST=1.0,
                   TYPE_TEST='MIN',
                   RESULTAT=DEPLA,
                   NOM_CHAM='SING_ELEM',
                   NOM_CMP='TAILLE',
                   VALE_CALC=0.259936920,
                   CRITERE='RELATIF',
                   ),
                ),
          )

# TEST DE SING_ELEM VALEUR PARTICULIERE EN POINTE DE FISSURE
# LES MAILLES CHOISIES SONT AU VOISINAGE DE LA FISSURE

TEST_RESU(RESU=(_F(INST=1.0,
                   POINT=1,
                   RESULTAT=DEPLA,
                   NOM_CHAM='SING_ELEM',
                   NOM_CMP='DEGRE',
                   VALE_CALC=0.809217704,
                   CRITERE='RELATIF',
                   MAILLE='M30',),
                _F(INST=1.0,
                   POINT=1,
                   RESULTAT=DEPLA,
                   NOM_CHAM='SING_ELEM',
                   NOM_CMP='DEGRE',
                   VALE_CALC=0.510300109,
                   CRITERE='RELATIF',
                   MAILLE='M31',),
                _F(INST=1.0,
                   POINT=1,
                   RESULTAT=DEPLA,
                   NOM_CHAM='SING_ELEM',
                   NOM_CMP='DEGRE',
                   VALE_CALC=0.510300109,
                   CRITERE='RELATIF',
                   MAILLE='M32',),
                _F(INST=1.0,
                   POINT=1,
                   RESULTAT=DEPLA,
                   NOM_CHAM='SING_ELEM',
                   NOM_CMP='DEGRE',
                   VALE_CALC=0.646631171,
                   CRITERE='RELATIF',
                   MAILLE='M33',),
                _F(INST=1.0,
                   POINT=1,
                   RESULTAT=DEPLA,
                   NOM_CHAM='SING_ELEM',
                   NOM_CMP='DEGRE',
                   VALE_CALC=0.842080927,
                   CRITERE='RELATIF',
                   MAILLE='M55',),
                _F(INST=1.0,
                   POINT=1,
                   RESULTAT=DEPLA,
                   NOM_CHAM='SING_ELEM',
                   NOM_CMP='DEGRE',
                   VALE_CALC=0.595888945,
                   CRITERE='RELATIF',
                   MAILLE='M56',),
                _F(INST=1.0,
                   POINT=1,
                   RESULTAT=DEPLA,
                   NOM_CHAM='SING_ELEM',
                   NOM_CMP='DEGRE',
                   VALE_CALC=0.595888945,
                   CRITERE='RELATIF',
                   MAILLE='M57',),
                _F(INST=1.0,
                   POINT=1,
                   RESULTAT=DEPLA,
                   NOM_CHAM='SING_ELEM',
                   NOM_CMP='DEGRE',
                   VALE_CALC=0.690660861,
                   CRITERE='RELATIF',
                   MAILLE='M58',),
                ),
          )

# TEST DE SING_ELNO

TEST_RESU(RESU=(_F(INST=1.0,
                   TYPE_TEST='MAX',
                   RESULTAT=DEPLA,
                   NOM_CHAM='SING_ELNO',
                   NOM_CMP='DEGRE',
                   VALE_CALC=2.0,
                   VALE_REFE=2.0,
                   REFERENCE='ANALYTIQUE',
                   CRITERE='RELATIF',
                   ),
                _F(INST=1.0,
                   TYPE_TEST='MIN',
                   RESULTAT=DEPLA,
                   NOM_CHAM='SING_ELNO',
                   NOM_CMP='DEGRE',
                   VALE_CALC=0.51030010861354,
                   VALE_REFE=0.5,
                   REFERENCE='ANALYTIQUE',
                   CRITERE='RELATIF',
                   PRECISION=0.025,
                   ),
                _F(INST=1.0,
                   TYPE_TEST='MAX',
                   RESULTAT=DEPLA,
                   NOM_CHAM='SING_ELNO',
                   NOM_CMP='RAPPORT',
                   VALE_CALC=1.155007608,
                   CRITERE='RELATIF',
                   ),
                _F(INST=1.0,
                   TYPE_TEST='MIN',
                   RESULTAT=DEPLA,
                   NOM_CHAM='SING_ELNO',
                   NOM_CMP='RAPPORT',
                   VALE_CALC=0.161663899,
                   CRITERE='RELATIF',
                   ),
                _F(INST=1.0,
                   TYPE_TEST='MAX',
                   RESULTAT=DEPLA,
                   NOM_CHAM='SING_ELNO',
                   NOM_CMP='TAILLE',
                   VALE_CALC=4.552608745,
                   CRITERE='RELATIF',
                   ),
                _F(INST=1.0,
                   TYPE_TEST='MIN',
                   RESULTAT=DEPLA,
                   NOM_CHAM='SING_ELNO',
                   NOM_CMP='TAILLE',
                   VALE_CALC=0.259936920,
                   CRITERE='RELATIF',
                   ),
                ),
          )

FIN();
