# ======================================================================
# COPYRIGHT (C) 1991 - 2016  EDF R&D                  WWW.CODE-ASTER.ORG
# THIS PROGRAM IS FREE SOFTWARE; YOU CAN REDISTRIBUTE IT AND/OR MODIFY
# IT UNDER THE TERMS OF THE GNU GENERAL PUBLIC LICENSE AS PUBLISHED BY
# THE FREE SOFTWARE FOUNDATION; EITHER VERSION 2 OF THE LICENSE, OR
# (AT YOUR OPTION) ANY LATER VERSION.
#
# THIS PROGRAM IS DISTRIBUTED IN THE HOPE THAT IT WILL BE USEFUL, BUT
# WITHOUT ANY WARRANTY; WITHOUT EVEN THE IMPLIED WARRANTY OF
# MERCHANTABILITY OR FITNESS FOR A PARTICULAR PURPOSE. SEE THE GNU
# GENERAL PUBLIC LICENSE FOR MORE DETAILS.
#
# YOU SHOULD HAVE RECEIVED A COPY OF THE GNU GENERAL PUBLIC LICENSE
# ALONG WITH THIS PROGRAM; IF NOT, WRITE TO EDF R&D CODE_ASTER,
#    1 AVENUE DU GENERAL DE GAULLE, 92141 CLAMART CEDEX, FRANCE.
# ======================================================================
# ======================================================================
#

DEBUT(CODE=_F(NIV_PUB_WEB='INTERNET',),
      DEBUG=_F(SDVERI='OUI',),
      INFO=1,);

lisi=DEFI_LIST_REEL(DEBUT=0,
                    INTERVALLE=_F(JUSQU_A=1,
                                  PAS=1,),);
LINST=DEFI_LIST_INST(DEFI_LIST=_F(LIST_INST=lisi,),
                 ECHEC=_F(EVENEMENT='ERREUR',
                      ACTION='DECOUPE',),);                  
RAMPE=DEFI_FONCTION(NOM_PARA='INST',VALE=(0,0,1,1),);

mat1=DEFI_MATERIAU(ELAS=_F(E=2000,
                           NU=0.3,),);

Mail = LIRE_MAILLAGE(UNITE=20,
                     FORMAT='MED',)
Mail=MODI_MAILLAGE(reuse =Mail,
                   MAILLAGE=Mail,
                   ORIE_PEAU_2D=_F(GROUP_MA=('Group_3','Group_4','Group_2','Group_1')),);

Mail2=CREA_MAILLAGE(MAILLAGE=Mail,
                    DECOUPE_LAC=_F(GROUP_MA_ESCL='Group_2',
                                 ), );

MODI=AFFE_MODELE(MAILLAGE=Mail2,
                 AFFE=_F(TOUT='OUI',
                         PHENOMENE='MECANIQUE',
                         MODELISATION='AXIS',),);

AFFE=AFFE_MATERIAU(MAILLAGE=Mail2,
                   MODELE=MODI,
                   AFFE=_F(TOUT='OUI',
                           MATER=mat1,),);

DEFICO=DEFI_CONTACT(MODELE=MODI, 
                    INFO=1,
                    FORMULATION='CONTINUE',
                    LISSAGE='OUI',
                    ALGO_RESO_GEOM='NEWTON',
                    ALGO_RESO_CONT='NEWTON',
                    ZONE=_F(APPARIEMENT='MORTAR',
                            GROUP_MA_MAIT='Group_1',
                            GROUP_MA_ESCL='Group_2',
                            ALGO_CONT='LAC',
                            CONTACT_INIT='OUI',),);

CHAR1=AFFE_CHAR_MECA(MODELE=MODI,
                     DDL_IMPO=(_F(GROUP_MA='Symx',
                                 DX=0,
                                 ),
                                _F(GROUP_MA='Symy',
                                 DY=0,
                                 ), ),);
CHAR2=AFFE_CHAR_MECA(MODELE=MODI,
                     PRES_REP=_F(GROUP_MA='Group_3',
                                 PRES=25,),
                       );                   

RES=STAT_NON_LINE(INFO=1,
                  AFFICHAGE=_F(INFO_RESIDU='OUI',),
                  MODELE=MODI,
                  CHAM_MATER=AFFE,
                  EXCIT=(_F(CHARGE=CHAR1,
                              FONC_MULT=RAMPE),
                         _F(CHARGE=CHAR2,
                            FONC_MULT=RAMPE,
                            #TYPE_CHARGE='SUIV',
                            ),),       
                  CONTACT=DEFICO,
                  NEWTON=_F(REAC_ITER=1,),    
                  COMPORTEMENT=_F(RELATION='ELAS',
                                  DEFORMATION='PETIT', 
                                  TOUT='OUI',),
                  INCREMENT=_F(LIST_INST=LINST,),
                  SOLVEUR=_F(ELIM_LAGR='NON',
                             METHODE='MUMPS',
                             PCENT_PIVOT= 30,),
                  CONVERGENCE=_F(RESI_GLOB_MAXI=1.E-6,
                                 ITER_GLOB_MAXI=50,));

CALC_CHAMP(reuse=RES,
           RESULTAT=RES,
           CONTRAINTE=('SIEF_NOEU',),
           CRITERES=('SIEQ_NOEU',),);

pr_esc=CALC_PRESSION(MAILLAGE=Mail2,
                RESULTAT=RES,
                GROUP_MA=('Group_2',),
                INST=1.0,
                );

pr_mat=CALC_PRESSION(MAILLAGE=Mail2,
                RESULTAT=RES,
                GROUP_MA=('Group_1',),
                INST=1.0,
                );

TEST_RESU(CHAM_NO=(_F(TYPE_TEST='MIN',
                      CHAM_GD=pr_esc,
                      LEGENDE='CALC_PRESSION esclave',
                      NOM_CMP='LAGS_C',
                      VALE_CALC=-4.88385531749,
                      VALE_REFE=-4.894178,
                      PRECISION=0.01,
                      REFERENCE='ANALYTIQUE',
                      ),
                    _F(TYPE_TEST='MAX',
                       CHAM_GD=pr_esc,
                       LEGENDE='CALC_PRESSION esclave',
                       NOM_CMP='LAGS_C',
                       VALE_CALC=-4.81995369256,
                       VALE_REFE=-4.894178,
                       PRECISION=0.02,
                       REFERENCE='ANALYTIQUE',
                       ),
                    _F(TYPE_TEST='MIN',
                       CHAM_GD=pr_mat,
                       LEGENDE='CALC_PRESSION maitre',
                       NOM_CMP='LAGS_C',
                       VALE_CALC=-4.89041921139,
                       VALE_REFE=-4.894178,
                       PRECISION=0.01,
                       REFERENCE='ANALYTIQUE',
                       ),
                    _F(TYPE_TEST='MAX',
                       CHAM_GD=pr_mat,
                       LEGENDE='CALC_PRESSION maitre',
                       NOM_CMP='LAGS_C',
                       VALE_CALC=-4.87324396193,
                       VALE_REFE=-4.894178,
                       PRECISION=0.01,
                       REFERENCE='ANALYTIQUE',
                       ),),);

TEST_RESU(RESU=(_F(INST=1.0,
                   TYPE_TEST='MIN',
                   RESULTAT=RES,
                   NOM_CHAM='DEPL',
                   LEGENDE='LAGS_C',
                   NOM_CMP='LAGS_C',
                   VALE_CALC=-4.89487252903,
                   VALE_REFE=-4.894178,
                   PRECISION=0.01,
                   REFERENCE='ANALYTIQUE',
                   ),
                _F(INST=1.0,
                   TYPE_TEST='MAX',
                   RESULTAT=RES,
                   NOM_CHAM='DEPL',
                   LEGENDE='LAGS_C',
                   NOM_CMP='LAGS_C',
                   VALE_CALC=-4.89334316287,
                   VALE_REFE=-4.894178,
                   PRECISION=0.01,
                   REFERENCE='ANALYTIQUE',
                   ),
                ),
      );

FIN();
