# ======================================================================
# COPYRIGHT (C) 1991 - 2016  EDF R&D                  WWW.CODE-ASTER.ORG
# THIS PROGRAM IS FREE SOFTWARE; YOU CAN REDISTRIBUTE IT AND/OR MODIFY
# IT UNDER THE TERMS OF THE GNU GENERAL PUBLIC LICENSE AS PUBLISHED BY
# THE FREE SOFTWARE FOUNDATION; EITHER VERSION 2 OF THE LICENSE, OR
# (AT YOUR OPTION) ANY LATER VERSION.
#
# THIS PROGRAM IS DISTRIBUTED IN THE HOPE THAT IT WILL BE USEFUL, BUT
# WITHOUT ANY WARRANTY; WITHOUT EVEN THE IMPLIED WARRANTY OF
# MERCHANTABILITY OR FITNESS FOR A PARTICULAR PURPOSE. SEE THE GNU
# GENERAL PUBLIC LICENSE FOR MORE DETAILS.
#
# YOU SHOULD HAVE RECEIVED A COPY OF THE GNU GENERAL PUBLIC LICENSE
# ALONG WITH THIS PROGRAM; IF NOT, WRITE TO EDF R&D CODE_ASTER,
#    1 AVENUE DU GENERAL DE GAULLE, 92141 CLAMART CEDEX, FRANCE.
# ======================================================================

DEBUT(CODE=_F(NIV_PUB_WEB='INTERNET'),DEBUG=_F(SDVERI='OUI'),);

# DEFINITION DU PROBLEME
#=======================

MA1=LIRE_MAILLAGE(FORMAT='MED',);

MA=CREA_MAILLAGE(MAILLAGE=MA1,
                 LINE_QUAD=_F(TOUT='OUI',),);

MO=AFFE_MODELE(MAILLAGE=MA,
               AFFE=_F(TOUT='OUI',
                       PHENOMENE='MECANIQUE',
                       MODELISATION='3D_INCO_UPG',),);

MATERIAU=DEFI_MATERIAU(ELAS=_F(E=200000.0,
                               NU=0.3,),
                       ECRO_LINE=_F(D_SIGM_EPSI=1000.0,
                                    SY=200.0,),);

CH_MATER=AFFE_MATERIAU(MAILLAGE=MA,
                       AFFE=_F(TOUT='OUI',
                               MATER=MATERIAU,),);

SYMETRIE=AFFE_CHAR_MECA(MODELE=MO,
                        FACE_IMPO=(_F(GROUP_MA=('LCD_FACE','LBC_FACE',),
                                      DY=0.0,),
                                   _F(GROUP_MA=('LDE_FACE','LEF_FACE',),
                                      DX=0.0,),),);

APPUI=AFFE_CHAR_MECA(MODELE=MO,
                     DDL_IMPO=_F(TOUT='OUI',
                                   DZ=0.0,),);

TRACTION=AFFE_CHAR_MECA(MODELE=MO,
                        FACE_IMPO=_F(GROUP_MA='LFG_FACE',
                                     DY=0.1,),);

INSTANTS=DEFI_LIST_REEL(DEBUT=0.0,
                        INTERVALLE=_F(JUSQU_A=1.0,
                                      NOMBRE=5,),);

RAMPE=DEFI_FONCTION(NOM_PARA='INST',
                    VALE=(0.0, 0.0,
                          1.0, 1.0,),);

DEFLIST =DEFI_LIST_INST(DEFI_LIST=_F(LIST_INST =INSTANTS ),
                        ECHEC=_F(EVENEMENT     = 'ERREUR',
                                 ACTION        = 'DECOUPE',
                                 SUBD_METHODE  = 'MANUEL',
                                 SUBD_PAS      = 4,
                                 SUBD_PAS_MINI = 0.001),)

# CALCUL
#========

RESU=STAT_NON_LINE(MODELE=MO,
                   CHAM_MATER=CH_MATER,
                   EXCIT=(_F(CHARGE=TRACTION,
                             FONC_MULT=RAMPE,),
                          _F(CHARGE=SYMETRIE,),
                          _F(CHARGE=APPUI,),
                         ),
                   COMPORTEMENT=_F(RELATION='VMIS_ISOT_LINE',),
                   INCREMENT=_F(LIST_INST=DEFLIST),
                   NEWTON=_F(REAC_ITER=1,),
                   ARCHIVAGE=_F(LIST_INST=INSTANTS,),);

# POST TRAITEMENT
#=================

RESU=CALC_CHAMP(reuse=RESU,RESULTAT=RESU,CONTRAINTE=('SIGM_ELNO'))


RESU=CALC_ERREUR(reuse =RESU,

               RESULTAT=RESU,
               OPTION=('ERME_ELEM',
                       'ERME_ELNO',
                      ),
               );

RESU=CALC_CHAMP(reuse =RESU,
             RESULTAT=RESU,
             CONTRAINTE='SIGM_NOEU',);

# Abscisse des points d'interet :
coor1=[0.0, 1.53224, 3.2689, 3.80797,  4.40378, 5.0]

S_T=MACR_LIGN_COUPE(RESULTAT=RESU, INST=1.0, NOM_CHAM='SIGM_NOEU',
                     LIGN_COUPE=(
                       _F(TYPE='SEGMENT', NB_POINTS=2, COOR_ORIG=(coor1[0],1.0,0.0,), COOR_EXTR=(coor1[1],1.0,0.0,),),
                       _F(TYPE='SEGMENT', NB_POINTS=2, COOR_ORIG=(coor1[1],1.0,0.0,), COOR_EXTR=(coor1[2],1.0,0.0,),),
                       _F(TYPE='SEGMENT', NB_POINTS=2, COOR_ORIG=(coor1[2],1.0,0.0,), COOR_EXTR=(coor1[3],1.0,0.0,),),
                       _F(TYPE='SEGMENT', NB_POINTS=2, COOR_ORIG=(coor1[3],1.0,0.0,), COOR_EXTR=(coor1[4],1.0,0.0,),),
                       _F(TYPE='SEGMENT', NB_POINTS=2, COOR_ORIG=(coor1[4],1.0,0.0,), COOR_EXTR=(coor1[5],1.0,0.0,),),
                    ))



# TESTS
#=======
# NOn REGRESSION

TEST_TABLE(
           VALE_CALC=234.069610102,
           NOM_PARA='SIYY',
           TABLE=S_T,
           FILTRE=(
             _F(NOM_PARA='COOR_X',    VALE=coor1[0],),
             _F(NOM_PARA='ABSC_CURV', VALE=0.0,)),
           )

TEST_TABLE(
           VALE_CALC=256.857509992,
           NOM_PARA='SIYY',
           TABLE=S_T,
           FILTRE=(
             _F(NOM_PARA='COOR_X',    VALE=coor1[1],),
             _F(NOM_PARA='ABSC_CURV', VALE=0.0,)),
           )

TEST_TABLE(
           VALE_CALC=300.286660446,
           NOM_PARA='SIYY',
           TABLE=S_T,
           FILTRE=(
             _F(NOM_PARA='COOR_X',    VALE=coor1[2],),
             _F(NOM_PARA='ABSC_CURV', VALE=0.0,)),
           )

TEST_TABLE(
           VALE_CALC=267.546474979,
           NOM_PARA='SIYY',
           TABLE=S_T,
           FILTRE=(
             _F(NOM_PARA='COOR_X',    VALE=coor1[3],),
             _F(NOM_PARA='ABSC_CURV', VALE=0.0,)),
           )

TEST_TABLE(
           VALE_CALC=182.573092891,
           NOM_PARA='SIYY',
           TABLE=S_T,
           FILTRE=(
             _F(NOM_PARA='COOR_X',    VALE=coor1[4],),
             _F(NOM_PARA='ABSC_CURV', VALE=0.0,)),
           )

#--------------------------------------------------------------------------------
#
#  TEST SUR L'ESTIMATEUR D'ERREUR EN RESIDU

TEST_RESU(RESU=_F(INST=1.0,
                  POINT=1,
                  RESULTAT=RESU,
                  NOM_CHAM='ERME_ELEM',
                  NOM_CMP='NUEST',
                  VALE_CALC=0.149802122154,
                  CRITERE='RELATIF',
                  MAILLE='M1294',
                  ),
          )

TEST_RESU(RESU=_F(INST=1.0,
                  RESULTAT=RESU,
                  NOM_CHAM='ERME_ELNO',
                  NOEUD='N5',
                  NOM_CMP='ERREST',
                  VALE_CALC=0.0106039819546,
                  CRITERE='RELATIF',
                  MAILLE='M1294',
                  ),
          )

#--------------------------------------------------------------------------------
#
#  TEST SUR LES CONTRAINTES AU POINT B

TEST_RESU(RESU=_F(INST=1.0,
                  RESULTAT=RESU,
                  NOM_CHAM='SIGM_ELNO',
                  NOEUD='N5',
                  NOM_CMP='SIYY',
                  VALE_CALC=440.201870874,
                  CRITERE='RELATIF',
                  MAILLE='M1294',
                  ),
          )

TEST_RESU(RESU=_F(INST=1.0,
                  RESULTAT=RESU,
                  NOM_CHAM='SIGM_ELNO',
                  NOEUD='N5',
                  NOM_CMP='SIXX',
                  VALE_CALC=-0.24192753668,
                  CRITERE='RELATIF',
                  MAILLE='M1294',
                  ),
          )

FIN();
