# MODIF  DATE 13/09/2011   AUTEUR LEBOUVIER F.LEBOUVIER 
# TITRE ESSAI DE TRACTION-CISAILLEMENT (MISES ECR. ISOT. C_PLAN)
# ssnp15b.para = tps_job 60 mem_job 32Mo ncpus 1 liste_test R
#            CONFIGURATION MANAGEMENT OF EDF VERSION
# ======================================================================
# COPYRIGHT (C) 1991 - 2011  EDF R&D                  WWW.CODE-ASTER.ORG
# THIS PROGRAM IS FREE SOFTWARE; YOU CAN REDISTRIBUTE IT AND/OR MODIFY
# IT UNDER THE TERMS OF THE GNU GENERAL PUBLIC LICENSE AS PUBLISHED BY
# THE FREE SOFTWARE FOUNDATION; EITHER VERSION 2 OF THE LICENSE, OR   
# (AT YOUR OPTION) ANY LATER VERSION.                                 
#
# THIS PROGRAM IS DISTRIBUTED IN THE HOPE THAT IT WILL BE USEFUL, BUT 
# WITHOUT ANY WARRANTY; WITHOUT EVEN THE IMPLIED WARRANTY OF          
# MERCHANTABILITY OR FITNESS FOR A PARTICULAR PURPOSE. SEE THE GNU    
# GENERAL PUBLIC LICENSE FOR MORE DETAILS.                            
#
# YOU SHOULD HAVE RECEIVED A COPY OF THE GNU GENERAL PUBLIC LICENSE   
# ALONG WITH THIS PROGRAM; IF NOT, WRITE TO EDF R&D CODE_ASTER,       
#    1 AVENUE DU GENERAL DE GAULLE, 92141 CLAMART CEDEX, FRANCE.      
# ======================================================================

DEBUT(CODE=_F(NOM='SSNP15B',
              NIV_PUB_WEB='INTERNET',),);

#......................................................................
# PLAQUE CARREE EN TRACTION CISAILLEMENT CALCUL 2D CONTRAINTES PLANES
# ELASTOPLASTICITE ISOTROPE VON MISES   (1 QUAD4)
#......................................................................

MA=LIRE_MAILLAGE();

MO=AFFE_MODELE(MAILLAGE=MA,
               VERIF='MAILLE',
               AFFE=_F(TOUT='OUI',
                       PHENOMENE='MECANIQUE',
                       MODELISATION='C_PLAN',),);

ACIER=DEFI_MATERIAU(ELAS=_F(E=195000.,
                            NU=0.3,),
                    ECRO_LINE=_F(D_SIGM_EPSI=1930.,
                                 SY=181.,),
                    PRAGER=_F(C=0.,),);

CM=AFFE_MATERIAU(MAILLAGE=MA,
                 AFFE=_F(TOUT='OUI',
                         MATER=ACIER,),);

SIGMA_F=DEFI_FONCTION(NOM_PARA='INST',VALE=(0.0,0.0,
                            1.0,151.2,
                            2.0,257.2,
                            3.0,0.0,
                            ),PROL_DROITE='EXCLU',PROL_GAUCHE='EXCLU',);

TAU_F=DEFI_FONCTION(NOM_PARA='INST',VALE=(0.0,0.0,
                          1.0,93.1,
                          2.0,33.1,
                          3.0,0.0,
                          ),PROL_DROITE='EXCLU',PROL_GAUCHE='EXCLU',);

TRACTION=AFFE_CHAR_MECA(MODELE=MO,
                        FORCE_CONTOUR=_F(MAILLE='GAUCHE',
                                         FX=-1.,),);

CISAIL=AFFE_CHAR_MECA(MODELE=MO,
                      FORCE_CONTOUR=(_F(MAILLE='GAUCHE',
                                        FY=-1.,),
                                     _F(MAILLE='DROITE',
                                        FY=1.,),
                                     _F(MAILLE='HAUT',
                                        FX=1.,),
                                     _F(MAILLE='BAS',
                                        FX=-1.,),),);

LIAISON=AFFE_CHAR_MECA(MODELE=MO,
                       DDL_IMPO=(_F(NOEUD='NO4',
                                    DX=0.,
                                    DY=0.,),
                                 _F(NOEUD='NO2',
                                    DX=0.,),),);

L_INST=DEFI_LIST_REEL(DEBUT=0.0,
                      INTERVALLE=(_F(JUSQU_A=0.1,
                                     NOMBRE=1,),
                                  _F(JUSQU_A=0.9,
                                     NOMBRE=10,),
                                  _F(JUSQU_A=1.0,
                                     NOMBRE=1,),
                                  _F(JUSQU_A=2.0,
                                     NOMBRE=40,),
                                  _F(JUSQU_A=3.0,
                                     NOMBRE=1,),),);

U=STAT_NON_LINE(MODELE=MO,
                CHAM_MATER=CM,
                EXCIT=(_F(CHARGE=LIAISON,),
                       _F(CHARGE=TRACTION,
                          FONC_MULT=SIGMA_F,),
                       _F(CHARGE=CISAIL,
                          FONC_MULT=TAU_F,),),
                COMP_INCR=_F(RELATION='VMIS_ISOT_LINE',),
                INCREMENT=_F(LIST_INST=L_INST,),
                NEWTON=_F(MATRICE='TANGENTE',
                          REAC_ITER=3,),
                RECH_LINEAIRE=_F(RHO_MAX=150),
                )

U=CALC_ELEM(reuse =U,
            RESULTAT=U,
            OPTION=('EPSI_ELGA','SIEF_ELNO','VARI_ELNO','SIEQ_ELGA'),);


U=CALC_ELEM(reuse =U,
            RESULTAT=U,
            OPTION=('EPSP_ELGA','EPSI_ELNO',),);

U2=STAT_NON_LINE(MODELE=MO,
                 CHAM_MATER=CM,
                 EXCIT=(_F(CHARGE=LIAISON,),
                        _F(CHARGE=TRACTION,
                           FONC_MULT=SIGMA_F,),
                        _F(CHARGE=CISAIL,
                           FONC_MULT=TAU_F,),),
                 COMP_INCR=_F(RELATION='VMIS_ECMI_LINE',),
                 INCREMENT=_F(LIST_INST=L_INST,),
                 NEWTON=_F(MATRICE='TANGENTE',
                           REAC_ITER=3,),
                 RECH_LINEAIRE=_F(RHO_MAX=150),
                 )

U2=CALC_ELEM(reuse =U2,
             RESULTAT=U2,
             OPTION=('EPSI_ELGA','SIEF_ELNO','VARI_ELNO',),);

U2=CALC_ELEM(reuse =U2,
             RESULTAT=U2,
             OPTION=('EPSP_ELGA','EPSI_ELNO',),);

U2=CALC_ELEM(reuse =U2,
             RESULTAT=U2,
             OPTION='ETOT_ELGA',);

U2=CALC_ELEM(reuse =U2,
             RESULTAT=U2,
             OPTION='ETOT_ELNO',);

U2=CALC_ELEM(reuse =U2,
             RESULTAT=U2,
             OPTION='ETOT_ELEM',);

VARI=CREA_CHAMP(TYPE_CHAM='ELNO_VARI_R',
                OPERATION='EXTR',
                RESULTAT=U,
                NOM_CHAM='VARI_ELNO',
                INST=1.,);

TEST_RESU(CHAM_ELEM=_F(CHAM_GD=VARI,
                       MAILLE='CUBE',
                       NOEUD='NO2',
                       NOM_CMP='V1',
                       VALE=0.0205473,),
          RESU=(_F(RESULTAT=U,
                   INST=1.0,
                   NOM_CHAM='SIEF_ELNO',
                   NOM_CMP='SIXX',
                   MAILLE='CUBE',
                   NOEUD='NO2',
                   VALE=151.2,),
                _F(RESULTAT=U,
                   INST=1.0,
                   NOM_CHAM='SIEF_ELNO',
                   NOM_CMP='SIXY',
                   MAILLE='CUBE',
                   NOEUD='NO2',
                   VALE=93.1,),
                _F(RESULTAT=U,
                   INST=1.0,
                   NOM_CHAM='EPSI_ELNO',
                   NOM_CMP='EPXX',
                   MAILLE='CUBE',
                   NOEUD='NO2',
                   VALE=0.0148297,),
                _F(RESULTAT=U,
                   INST=1.0,
                   NOM_CHAM='EPSI_ELNO',
                   NOM_CMP='EPXY',
                   MAILLE='CUBE',
                   NOEUD='NO2',
                   VALE=0.0136014,),
                _F(RESULTAT=U,
                   INST=1.0,
                   NOM_CHAM='VARI_ELNO',
                   NOM_CMP='V1',
                   MAILLE='CUBE',
                   NOEUD='NO2',
                   VALE=0.0205473,),
                _F(RESULTAT=U,
                   INST=1.0,
                   NOM_CHAM='VARI_ELNO',
                   NOM_CMP='V2',
                   MAILLE='CUBE',
                   NOEUD='NO2',
                   VALE=1.0,),
                _F(RESULTAT=U,
                   INST=2.0,
                   NOM_CHAM='EPSI_ELNO',
                   NOM_CMP='EPXX',
                   MAILLE='CUBE',
                   NOEUD='NO2',
                   VALE=0.035265,
                   PRECISION=0.01,),
                _F(RESULTAT=U,
                   INST=2.0,
                   NOM_CHAM='EPSI_ELNO',
                   NOM_CMP='EPXY',
                   MAILLE='CUBE',
                   NOEUD='NO2',
                   VALE=0.020471,
                   PRECISION=0.01,),
                _F(RESULTAT=U,
                   INST=2.0,
                   NOM_CHAM='EPSP_ELGA',
                   NOM_CMP='EPXX',
                   MAILLE='CUBE',
                   POINT=1,
                   VALE=0.033946,
                   PRECISION=0.01,),
                _F(RESULTAT=U,
                   INST=2.0,
                   NOM_CHAM='EPSP_ELGA',
                   NOM_CMP='EPXY',
                   MAILLE='CUBE',
                   POINT=1,
                   VALE=0.02025,
                   PRECISION=0.01,),
                _F(RESULTAT=U,
                   INST=2.0,
                   NOM_CHAM='VARI_ELNO',
                   NOM_CMP='V1',
                   MAILLE='CUBE',
                   NOEUD='NO2',
                   VALE=0.042329,
                   PRECISION=0.01,),
                _F(RESULTAT=U,
                   INST=1.0,
                   NOM_CHAM='SIEQ_ELGA',
                   NOM_CMP='TRIAX',
                   MAILLE='CUBE',
                   POINT=1,
                   VALE=2.28000E-01,
                   REFERENCE='ANALYTIQUE'),
                _F(RESULTAT=U,
                   INST=2.0,
                   NOM_CHAM='SIEQ_ELGA',
                   NOM_CMP='TRIAX',
                   MAILLE='CUBE',
                   POINT=4,
                   VALE=3.25349E-01,
                   REFERENCE='ANALYTIQUE'),),);

ENER_TOT=POST_ELEM(ENER_TOTALE=_F(MAILLE='CUBE',),
                   RESULTAT=U,
                   TOUT_ORDRE='OUI',);

ENER_TO2=POST_ELEM(ENER_TOTALE=_F(MAILLE='CUBE',),
                   RESULTAT=U2,
                   TOUT_ORDRE='OUI',);

ENER_TO3=POST_ELEM(ENER_TOTALE=_F(GROUP_MA='CUBE_G',),
                   RESULTAT=U2,
                   TOUT_ORDRE='OUI',);

ENER_TO4=POST_ELEM(ENER_TOTALE=_F(TOUT='OUI',),
                   RESULTAT=U2,
                   TOUT_ORDRE='OUI',);

TEST_RESU(RESU=(_F(RESULTAT=U2,
                   INST=0.1,
                   NOM_CHAM='ETOT_ELGA',
                   NOM_CMP='TOTALE',
                   MAILLE='CUBE',
                   POINT=1,
                   VALE=0.00116403,
                   CRITERE='RELATIF',
                   REFERENCE='AUTRE_ASTER',),
                _F(RESULTAT=U2,
                   INST=0.9,
                   NOM_CHAM='ETOT_ELGA',
                   NOM_CMP='TOTALE',
                   MAILLE='CUBE',
                   POINT=1,
                   VALE=1.8434,
                   CRITERE='RELATIF',
                   REFERENCE='AUTRE_ASTER',),
                _F(RESULTAT=U2,
                   INST=2.0,
                   NOM_CHAM='ETOT_ELGA',
                   NOM_CMP='TOTALE',
                   MAILLE='CUBE',
                   POINT=1,
                   VALE=9.58487,
                   CRITERE='RELATIF',
                   REFERENCE='AUTRE_ASTER',),
                _F(RESULTAT=U2,
                   INST=3.0,
                   NOM_CHAM='ETOT_ELGA',
                   NOM_CMP='TOTALE',
                   MAILLE='CUBE',
                   POINT=1,
                   VALE=9.40794,
                   CRITERE='RELATIF',
                   REFERENCE='AUTRE_ASTER',),
                _F(RESULTAT=U2,
                   INST=0.1,
                   NOM_CHAM='ETOT_ELNO',
                   NOM_CMP='TOTALE',
                   MAILLE='CUBE',
                   NOEUD='NO2',
                   VALE=0.00116403,
                   CRITERE='RELATIF',
                   REFERENCE='AUTRE_ASTER',),
                _F(RESULTAT=U2,
                   INST=0.9,
                   NOM_CHAM='ETOT_ELNO',
                   NOM_CMP='TOTALE',
                   MAILLE='CUBE',
                   NOEUD='NO2',
                   VALE=1.8434,
                   CRITERE='RELATIF',
                   REFERENCE='AUTRE_ASTER',),
                _F(RESULTAT=U2,
                   INST=2.0,
                   NOM_CHAM='ETOT_ELNO',
                   NOM_CMP='TOTALE',
                   MAILLE='CUBE',
                   NOEUD='NO2',
                   VALE=9.58487,
                   CRITERE='RELATIF',
                   REFERENCE='AUTRE_ASTER',),
                _F(RESULTAT=U2,
                   INST=3.0,
                   NOM_CHAM='ETOT_ELNO',
                   NOM_CMP='TOTALE',
                   MAILLE='CUBE',
                   NOEUD='NO2',
                   VALE=9.40794,
                   CRITERE='RELATIF',
                   REFERENCE='AUTRE_ASTER',),
                _F(RESULTAT=U2,
                   INST=0.1,
                   NOM_CHAM='ETOT_ELEM',
                   NOM_CMP='TOTALE',
                   MAILLE='CUBE',
                   VALE=0.00116403,
                   CRITERE='RELATIF',
                   REFERENCE='AUTRE_ASTER',),
                _F(RESULTAT=U2,
                   INST=0.9,
                   NOM_CHAM='ETOT_ELEM',
                   NOM_CMP='TOTALE',
                   MAILLE='CUBE',
                   VALE=1.8434,
                   CRITERE='RELATIF',
                   REFERENCE='AUTRE_ASTER',),
                _F(RESULTAT=U2,
                   INST=2.0,
                   NOM_CHAM='ETOT_ELEM',
                   NOM_CMP='TOTALE',
                   MAILLE='CUBE',
                   VALE=9.58487,
                   CRITERE='RELATIF',
                   REFERENCE='AUTRE_ASTER',),
                _F(RESULTAT=U2,
                   INST=3.0,
                   NOM_CHAM='ETOT_ELEM',
                   NOM_CMP='TOTALE',
                   MAILLE='CUBE',
                   VALE=9.40794,
                   CRITERE='RELATIF',
                   REFERENCE='AUTRE_ASTER',),),);

#
# SI ENERGIE CALCULEE SUR UNE MAILLE

TEST_TABLE(TABLE=ENER_TO2,
           FILTRE=_F(NOM_PARA='INST',
                     VALE=0.1,),
           NOM_PARA='TOTALE',
           VALE=0.00116403,
           CRITERE='RELATIF',
           REFERENCE='AUTRE_ASTER',);

TEST_TABLE(TABLE=ENER_TO2,
           FILTRE=_F(NOM_PARA='INST',
                     VALE=0.9,),
           NOM_PARA='TOTALE',
           VALE=1.8434,
           CRITERE='RELATIF',
           REFERENCE='AUTRE_ASTER',);

TEST_TABLE(TABLE=ENER_TO2,
           FILTRE=_F(NOM_PARA='INST',
                     VALE=2.0,),
           NOM_PARA='TOTALE',
           VALE=9.58487,
           CRITERE='RELATIF',
           REFERENCE='AUTRE_ASTER',);

TEST_TABLE(TABLE=ENER_TO2,
           FILTRE=_F(NOM_PARA='INST',
                     VALE=3.0,),
           NOM_PARA='TOTALE',
           VALE=9.40794,
           CRITERE='RELATIF',
           REFERENCE='AUTRE_ASTER',);

#
# SI ENERGIE CALCULEE SUR UN GROUPE DE MAILLE

TEST_TABLE(TABLE=ENER_TO3,
           FILTRE=_F(NOM_PARA='INST',
                     VALE=0.1,),
           NOM_PARA='TOTALE',
           VALE=0.00116403,
           CRITERE='RELATIF',
           REFERENCE='AUTRE_ASTER',);

TEST_TABLE(TABLE=ENER_TO3,
           FILTRE=_F(NOM_PARA='INST',
                     VALE=0.9,),
           NOM_PARA='TOTALE',
           VALE=1.8434,
           CRITERE='RELATIF',
           REFERENCE='AUTRE_ASTER',);

TEST_TABLE(TABLE=ENER_TO3,
           FILTRE=_F(NOM_PARA='INST',
                     VALE=2.0,),
           NOM_PARA='TOTALE',
           VALE=9.58487,
           CRITERE='RELATIF',
           REFERENCE='AUTRE_ASTER',);

TEST_TABLE(TABLE=ENER_TO3,
           FILTRE=_F(NOM_PARA='INST',
                     VALE=3.0,),
           NOM_PARA='TOTALE',
           VALE=9.40794,
           CRITERE='RELATIF',
           REFERENCE='AUTRE_ASTER',);

#
# SI ENERGIE CALCULEE SUR TOUT LE MAILLAGE

TEST_TABLE(TABLE=ENER_TO4,
           FILTRE=_F(NOM_PARA='INST',
                     VALE=0.1,),
           NOM_PARA='TOTALE',
           VALE=0.00116403,
           CRITERE='RELATIF',
           REFERENCE='AUTRE_ASTER',);

TEST_TABLE(TABLE=ENER_TO4,
           FILTRE=_F(NOM_PARA='INST',
                     VALE=0.9,),
           NOM_PARA='TOTALE',
           VALE=1.8434,
           CRITERE='RELATIF',
           REFERENCE='AUTRE_ASTER',);

TEST_TABLE(TABLE=ENER_TO4,
           FILTRE=_F(NOM_PARA='INST',
                     VALE=2.0,),
           NOM_PARA='TOTALE',
           VALE=9.58487,
           CRITERE='RELATIF',
           REFERENCE='AUTRE_ASTER',);

TEST_TABLE(TABLE=ENER_TO4,
           FILTRE=_F(NOM_PARA='INST',
                     VALE=3.0,),
           NOM_PARA='TOTALE',
           VALE=9.40794,
           CRITERE='RELATIF',
           REFERENCE='AUTRE_ASTER',);

#
# INDICATEURS DE CHARGE - DECHARGE

IND_ENER=POST_ELEM(INDIC_ENER=_F(TOUT='OUI',),
                   RESULTAT=U,
                   INST=(1.,2.,3.,),);

IND_SEUI=POST_ELEM(INDIC_SEUIL=_F(TOUT='OUI',),
                   RESULTAT=U,
                   NUME_ORDRE=(12,52,53,),);

TEST_TABLE(TABLE=IND_ENER,
           FILTRE=(_F(NOM_PARA='NUME_ORDRE',
                      VALE_I=12,),
                   _F(NOM_PARA='LIEU',
                      VALE_K='MA',),),
           NOM_PARA='INDIC_ENER',
           VALE=0.0,
           CRITERE='ABSOLU',
           REFERENCE='ANALYTIQUE',);

TEST_TABLE(TABLE=IND_ENER,
           FILTRE=(_F(NOM_PARA='NUME_ORDRE',
                      VALE_I=52,),
                   _F(NOM_PARA='LIEU',
                      VALE_K='MA',),),
           NOM_PARA='INDIC_ENER',
           VALE=0.0326,
           PRECISION=0.03,
           REFERENCE='ANALYTIQUE',);

TEST_TABLE(TABLE=IND_ENER,
           FILTRE=(_F(NOM_PARA='NUME_ORDRE',
                      VALE_I=53,),
                   _F(NOM_PARA='LIEU',
                      VALE_K='MA',),),
           NOM_PARA='INDIC_ENER',
           VALE=0.0469,
           PRECISION=0.03,
           REFERENCE='ANALYTIQUE',);

TEST_TABLE(TABLE=IND_SEUI,
           FILTRE=(_F(NOM_PARA='NUME_ORDRE',
                      VALE_I=12,),
                   _F(NOM_PARA='LIEU',
                      VALE_K='MA',),),
           NOM_PARA='INDIC_SEUIL',
           VALE=0.0,
           CRITERE='ABSOLU',
           REFERENCE='ANALYTIQUE',);

TEST_TABLE(TABLE=IND_SEUI,
           FILTRE=(_F(NOM_PARA='NUME_ORDRE',
                      VALE_I=52,),
                   _F(NOM_PARA='LIEU',
                      VALE_K='MA',),),
           NOM_PARA='INDIC_SEUIL',
           VALE=0.0971,
           PRECISION=0.01,
           REFERENCE='ANALYTIQUE',);

TEST_TABLE(TABLE=IND_SEUI,
           FILTRE=(_F(NOM_PARA='NUME_ORDRE',
                      VALE_I=53,),
                   _F(NOM_PARA='LIEU',
                      VALE_K='MA',),),
           NOM_PARA='INDIC_SEUIL',
           VALE=1.0,
           PRECISION=0.01,
           REFERENCE='ANALYTIQUE',);


FIN();
