# MODIF  DATE 23/08/2011   AUTEUR TARDIEU N.TARDIEU 
# TITRE SHALLOW IRONING
# ssnp153a.para = tps_job 600 mem_job 800Mo ncpus 1 liste_test S
#            CONFIGURATION MANAGEMENT OF EDF VERSION
# ======================================================================
# COPYRIGHT (C) 1991 - 2011  EDF R&D                  WWW.CODE-ASTER.ORG
# THIS PROGRAM IS FREE SOFTWARE; YOU CAN REDISTRIBUTE IT AND/OR MODIFY  
# IT UNDER THE TERMS OF THE GNU GENERAL PUBLIC LICENSE AS PUBLISHED BY  
# THE FREE SOFTWARE FOUNDATION; EITHER VERSION 2 OF THE LICENSE, OR     
# (AT YOUR OPTION) ANY LATER VERSION.                                                    
#                                                                       
# THIS PROGRAM IS DISTRIBUTED IN THE HOPE THAT IT WILL BE USEFUL, BUT   
# WITHOUT ANY WARRANTY; WITHOUT EVEN THE IMPLIED WARRANTY OF            
# MERCHANTABILITY OR FITNESS FOR A PARTICULAR PURPOSE. SEE THE GNU      
# GENERAL PUBLIC LICENSE FOR MORE DETAILS.                              
#                                                                       
# YOU SHOULD HAVE RECEIVED A COPY OF THE GNU GENERAL PUBLIC LICENSE     
# ALONG WITH THIS PROGRAM; IF NOT, WRITE TO EDF R&D CODE_ASTER,         
#    1 AVENUE DU GENERAL DE GAULLE, 92141 CLAMART CEDEX, FRANCE.        
# ======================================================================
DEBUT(CODE=_F(NOM='SSNP153A',NIV_PUB_WEB='INTERNET'),DEBUG=_F(SDVERI='OUI'))

MESH=LIRE_MAILLAGE(UNITE=20,
                   FORMAT='MED',);

MESH=MODI_MAILLAGE(reuse =MESH,
                   MAILLAGE=MESH,
                   ORIE_PEAU_2D=(_F(GROUP_MA='Master',),
                                 _F(GROUP_MA='Slave',),),);

MESH=DEFI_GROUP(reuse =MESH,
                MAILLAGE=MESH,
                CREA_GROUP_NO=_F(TOUT_GROUP_MA='OUI',),);

Hard=DEFI_MATERIAU(ELAS=_F(E=68.96E8,
                           NU=0.32,),
                   ECRO_LINE=_F(D_SIGM_EPSI=10.0,
                                SY=10.E100,),
                           );

Soft=DEFI_MATERIAU(ELAS=_F(E=6.896E8,
                           NU=0.32,),
                   ECRO_LINE=_F(D_SIGM_EPSI=10.0,
                                SY=10.E100,),
                           );
T1 = 1;
T2 = 2;

FONCx=DEFI_FONCTION(NOM_PARA='INST',
                    VALE=(0.0,0.0,
                          T1,0.0,
                          T2,10.0,
                          ),
                    PROL_DROITE='LINEAIRE',PROL_GAUCHE='LINEAIRE',);

FONCy=DEFI_FONCTION(NOM_PARA='INST',
                    VALE=(0.0,0.0,
                          T1,1.0,
                          T2,1.0,
                          ),
                    PROL_DROITE='LINEAIRE',PROL_GAUCHE='LINEAIRE',);

Npas1 = 10;
Npas2 = 500;
L_INST=DEFI_LIST_REEL(DEBUT=0.0,
                      INTERVALLE=(_F(JUSQU_A=T1,
                                     NOMBRE=Npas1,),
                                  _F(JUSQU_A=T2,
                                     NOMBRE=Npas2,),
                                   ));

L_ARCH=DEFI_LIST_REEL(DEBUT=0.0,
                      INTERVALLE=(_F(JUSQU_A=T1,
                                     NOMBRE=Npas1,),
                                  _F(JUSQU_A=T2,
                                     NOMBRE=Npas2,),
                                   ));

LINST=DEFI_LIST_INST(DEFI_LIST=_F(METHODE='MANUEL',
                                  LIST_INST=L_INST,),
                     ECHEC=_F(SUBD_PAS=4,
                              SUBD_NIVEAU=5,),);

MO=AFFE_MODELE(MAILLAGE=MESH,
               AFFE=_F(TOUT='OUI',
                       PHENOMENE='MECANIQUE',
                       MODELISATION='D_PLAN',),);

MAT=AFFE_MATERIAU(MAILLAGE=MESH,
                  AFFE=(_F(GROUP_MA='Hard',
                           MATER=Hard,),
                        _F(GROUP_MA='Soft',
                           MATER=Soft,),),);

CLx=AFFE_CHAR_CINE(MODELE=MO,
                   MECA_IMPO=(_F(GROUP_MA='Bloq',
                                 DX=0.0,),
                              _F(GROUP_MA='Depl',
                                 DX=1.0,),),);

CLy=AFFE_CHAR_CINE(MODELE=MO,
                   MECA_IMPO=(_F(GROUP_MA='Bloq',
                                 DY=0.0,),
                              _F(GROUP_MA='Depl',
                                 DY=-1.0,),),);

CONT=DEFI_CONTACT(MODELE=MO,
                  FORMULATION='CONTINUE',
                  REAC_GEOM='CONTROLE',
                  FROTTEMENT='COULOMB',
                  NB_ITER_GEOM=3,
                  LISSAGE='OUI',
                  ZONE=_F(APPARIEMENT='MAIT_ESCL',
                          GROUP_MA_MAIT='Master',
                          GROUP_MA_ESCL='Slave',
                          COULOMB=0.3,
                          ),);


RESU=STAT_NON_LINE(MODELE=MO,
                   CHAM_MATER=MAT,
                   EXCIT=(_F(CHARGE=CLx,
                             FONC_MULT=FONCx,),
                          _F(CHARGE=CLy,
                             FONC_MULT=FONCy,),),
                   CONTACT=CONT,
                   COMP_INCR=_F(RELATION='VMIS_ISOT_LINE',
                                DEFORMATION='SIMO_MIEHE',),
                   INCREMENT=_F(LIST_INST=LINST,
                                INST_FIN=1.01,),
                   NEWTON=_F(PREDICTION='ELASTIQUE',
                             MATRICE='TANGENTE',
                             REAC_ITER=1,),
                   CONVERGENCE=_F(RESI_GLOB_MAXI=1.E1,
                                  ITER_GLOB_MAXI=100,),
                   SOLVEUR=_F(METHODE='MUMPS',PCENT_PIVOT=30,),
                   ARCHIVAGE=_F(LIST_INST=L_ARCH,),);


RESU=CALC_ELEM(reuse =RESU,
               RESULTAT=RESU,
               OPTION=('SIEF_ELNO','SIEQ_ELGA',),);

RESU=CALC_NO(reuse =RESU,
             RESULTAT=RESU,
             OPTION=('SIEF_NOEU','FORC_NODA','REAC_NODA',),);

IMPR_RESU(MODELE=MO,
          FORMAT='MED',
          UNITE=81,
          RESU=_F(RESULTAT=RESU,),);

IMPR_RESU(MODELE=MO,
          FORMAT='MED',
          UNITE=80,
          RESU=_F(RESULTAT=RESU,
                  NOM_CHAM='DEPL',
                  NOM_CMP=('DX','DY',),),);

TAB_N=POST_RELEVE_T(ACTION=_F(INTITULE='FORCE',
                            GROUP_NO='Depl',
                            RESULTAT=RESU,
                            NOM_CHAM='REAC_NODA',
                            TOUT_ORDRE='OUI',
                            RESULTANTE='DY',
                            OPERATION='EXTRACTION',),);

TAB_T=POST_RELEVE_T(ACTION=_F(INTITULE='FORCE',
                            GROUP_NO='Depl',
                            RESULTAT=RESU,
                            NOM_CHAM='REAC_NODA',
                            TOUT_ORDRE='OUI',
                            RESULTANTE='DX',
                            OPERATION='EXTRACTION',),);

IMPR_TABLE(TABLE=TAB_N,
           FORMAT='XMGRACE',
           PILOTE='PNG',
           UNITE=29,
           NOM_PARA=('INST','DY',),
           TITRE='RESULTANTE N',);


IMPR_TABLE(TABLE=TAB_T,
           FORMAT='XMGRACE',
           PILOTE='PNG',
           UNITE=30,
           NOM_PARA=('INST','DX',),
           TITRE='RESULTANTE T',);

IMPR_TABLE(TABLE=TAB_N)
IMPR_TABLE(TABLE=TAB_T)

# Tests de la force normale
TEST_TABLE(TABLE=TAB_N,
           REFERENCE='NON_REGRESSION',
           FILTRE=_F(NOM_PARA='INST', VALE=5.00000E-01),
           NOM_PARA='DY', 
           PRECISION=2.E-7,
           VALE=-9.45388E+07)

TEST_TABLE(TABLE=TAB_N,
           REFERENCE='NON_REGRESSION',
           FILTRE=_F(NOM_PARA='INST', VALE=6.00000E-01),
           NOM_PARA='DY', 
           PRECISION=2.E-6,
           VALE=-1.34557E+08)

TEST_TABLE(TABLE=TAB_N,
           REFERENCE='NON_REGRESSION',
           FILTRE=_F(NOM_PARA='INST', VALE=7.00000E-01),
           NOM_PARA='DY', 
           PRECISION=6.E-7,
           VALE=-1.78403E+08)

TEST_TABLE(TABLE=TAB_N,
           REFERENCE='NON_REGRESSION',
           FILTRE=_F(NOM_PARA='INST', VALE=8.00000E-01),
           NOM_PARA='DY', 
           PRECISION=2.E-6,
           VALE=-2.25571E+08)

TEST_TABLE(TABLE=TAB_N,
           REFERENCE='NON_REGRESSION',
           FILTRE=_F(NOM_PARA='INST', VALE=9.00000E-01),
           NOM_PARA='DY', 
           PRECISION=2.E-6,
           VALE=-2.75554E+08)

TEST_TABLE(TABLE=TAB_N,
           REFERENCE='NON_REGRESSION',
           FILTRE=_F(NOM_PARA='INST', VALE=1.00000E+00),
           NOM_PARA='DY', 
           PRECISION=3.E-7,
           VALE=-3.29898E+08)

TEST_TABLE(TABLE=TAB_N,
           REFERENCE='NON_REGRESSION',
           FILTRE=_F(NOM_PARA='INST', VALE=1.00200E+00),
           NOM_PARA='DY', 
           PRECISION=3.E-7,
           VALE=-3.32405E+08)

TEST_TABLE(TABLE=TAB_N,
           REFERENCE='NON_REGRESSION',
           FILTRE=_F(NOM_PARA='INST', VALE=1.00400E+00),
           NOM_PARA='DY', 
           PRECISION=5.E-7,
           VALE=-3.34898E+08)

TEST_TABLE(TABLE=TAB_N,
           REFERENCE='NON_REGRESSION',
           FILTRE=_F(NOM_PARA='INST', VALE=1.00600E+00),
           NOM_PARA='DY', 
           PRECISION=2.E-6,
           VALE=-3.37378E+08)

TEST_TABLE(TABLE=TAB_N,
           REFERENCE='NON_REGRESSION',
           FILTRE=_F(NOM_PARA='INST', VALE=1.00800E+00),
           NOM_PARA='DY', 
           PRECISION=2.E-6,
           VALE=-3.39843E+08)

TEST_TABLE(TABLE=TAB_N,
           REFERENCE='NON_REGRESSION',
           FILTRE=_F(NOM_PARA='INST', VALE=1.01000E+00),
           NOM_PARA='DY', 
           PRECISION=2.E-6,
           VALE=-3.42296E+08)

# Tests de la force tangentielle
TEST_TABLE(TABLE=TAB_T,
           REFERENCE='NON_REGRESSION',
           FILTRE=_F(NOM_PARA='INST', VALE=5.00000E-01),
           NOM_PARA='DX', 
           PRECISION=3.E-7,
           VALE=1.83593E+07)

TEST_TABLE(TABLE=TAB_T,
           REFERENCE='NON_REGRESSION',
           FILTRE=_F(NOM_PARA='INST', VALE=6.00000E-01),
           NOM_PARA='DX', 
           PRECISION=2.E-6,
           VALE=2.66801E+07)

TEST_TABLE(TABLE=TAB_T,
           REFERENCE='NON_REGRESSION',
           FILTRE=_F(NOM_PARA='INST', VALE=7.00000E-01),
           NOM_PARA='DX', 
           PRECISION=5.E-7,
           VALE=3.59896E+07)

TEST_TABLE(TABLE=TAB_T,
           REFERENCE='NON_REGRESSION',
           FILTRE=_F(NOM_PARA='INST', VALE=8.00000E-01),
           NOM_PARA='DX', 
           PRECISION=5.E-7,
           VALE=4.60820E+07)

TEST_TABLE(TABLE=TAB_T,
           REFERENCE='NON_REGRESSION',
           FILTRE=_F(NOM_PARA='INST', VALE=9.00000E-01),
           NOM_PARA='DX', 
           PRECISION=5.5E-7,
           VALE=5.68856E+07)

TEST_TABLE(TABLE=TAB_T,
           REFERENCE='NON_REGRESSION',
           FILTRE=_F(NOM_PARA='INST', VALE=1.00000E+00),
           NOM_PARA='DX', 
           PRECISION=6.E-7,
           VALE=6.90205E+07)

TEST_TABLE(TABLE=TAB_T,
           REFERENCE='NON_REGRESSION',
           FILTRE=_F(NOM_PARA='INST', VALE=1.00200E+00),
           NOM_PARA='DX', 
           PRECISION=4.E-7,
           VALE=7.26935E+07)

TEST_TABLE(TABLE=TAB_T,
           REFERENCE='NON_REGRESSION',
           FILTRE=_F(NOM_PARA='INST', VALE=1.00400E+00),
           NOM_PARA='DX', 
           PRECISION=1.E-7,
           VALE=7.63719E+07)

TEST_TABLE(TABLE=TAB_T,
           REFERENCE='NON_REGRESSION',
           FILTRE=_F(NOM_PARA='INST', VALE=1.00600E+00),
           NOM_PARA='DX', 
           PRECISION=1.E-7,
           VALE=8.00561E+07)

TEST_TABLE(TABLE=TAB_T,
           REFERENCE='NON_REGRESSION',
           FILTRE=_F(NOM_PARA='INST', VALE=1.00800E+00),
           NOM_PARA='DX', 
           PRECISION=3.E-7,
           VALE=8.37463E+07)

TEST_TABLE(TABLE=TAB_T,
           REFERENCE='NON_REGRESSION',
           FILTRE=_F(NOM_PARA='INST', VALE=1.01000E+00),
           NOM_PARA='DX', 
           PRECISION=3.E-7,
           VALE=8.74428E+07)


FIN();
