# ======================================================================
# COPYRIGHT (C) 1991 - 2016  EDF R&D                  WWW.CODE-ASTER.ORG
# THIS PROGRAM IS FREE SOFTWARE; YOU CAN REDISTRIBUTE IT AND/OR MODIFY
# IT UNDER THE TERMS OF THE GNU GENERAL PUBLIC LICENSE AS PUBLISHED BY
# THE FREE SOFTWARE FOUNDATION; EITHER VERSION 2 OF THE LICENSE, OR
# (AT YOUR OPTION) ANY LATER VERSION.
#
# THIS PROGRAM IS DISTRIBUTED IN THE HOPE THAT IT WILL BE USEFUL, BUT
# WITHOUT ANY WARRANTY; WITHOUT EVEN THE IMPLIED WARRANTY OF
# MERCHANTABILITY OR FITNESS FOR A PARTICULAR PURPOSE. SEE THE GNU
# GENERAL PUBLIC LICENSE FOR MORE DETAILS.
#
# YOU SHOULD HAVE RECEIVED A COPY OF THE GNU GENERAL PUBLIC LICENSE
# ALONG WITH THIS PROGRAM; IF NOT, WRITE TO EDF R&D CODE_ASTER,
#    1 AVENUE DU GENERAL DE GAULLE, 92141 CLAMART CEDEX, FRANCE.
# ======================================================================
#                 FISSURE PARALLELE A L'INTERFACE
#
# ELEMENTS LINEAIRES

DEBUT(CODE=_F(
              NIV_PUB_WEB='INTERNET',),);

MA=LIRE_MAILLAGE(VERI_MAIL=_F(VERIF='OUI',),FORMAT='MED',);

MO=AFFE_MODELE(MAILLAGE=MA,
               AFFE=_F(TOUT='OUI',
                       PHENOMENE='MECANIQUE',
                       MODELISATION='D_PLAN',),);

TRAC1=DEFI_FONCTION(NOM_PARA='EPSI',
                    VALE=(0.00155,310.0,0.4,600.0,1.0,700.0,),
                    PROL_DROITE='LINEAIRE',);

TRAC2=DEFI_FONCTION(NOM_PARA='EPSI',
                    VALE=(0.00221,442.0,0.4,600.0,1.0,650.0,),
                    PROL_DROITE='LINEAIRE',);

MAT1=DEFI_MATERIAU(ELAS=_F(E=200000.0,
                           NU=0.3,
                           ALPHA=0.0,),
                   TRACTION=_F(SIGM=TRAC1,),);

MAT2=DEFI_MATERIAU(ELAS=_F(E=200000.0,
                           NU=0.3,
                           ALPHA=0.0,),
                   TRACTION=_F(SIGM=TRAC2,),);

MAT3=DEFI_MATERIAU(ELAS=_F(E=60000000000.0,
                           NU=0.3,
                           ALPHA=0.0,),);

CHMAT=AFFE_MATERIAU(MAILLAGE=MA,
                    AFFE=(_F(GROUP_MA='AUSTENI',
                             MATER=MAT1,),
                          _F(GROUP_MA='FERRITI',
                             MATER=MAT2,),
                          _F(GROUP_MA='GOUP',
                             MATER=MAT3,),),);

CL=AFFE_CHAR_MECA(MODELE=MO,
                  DDL_IMPO=(_F(GROUP_NO='PB',
                               DX=0.0,),
                            _F(GROUP_NO='PB',
                               DY=0.0,),
                            _F(GROUP_NO='PA',
                               DX=0.0,),),);

CH=AFFE_CHAR_MECA(MODELE=MO,
                  DDL_IMPO=_F(GROUP_NO='PA',
                              DY=1.0,),);

RAMPE=DEFI_FONCTION(NOM_PARA='INST',
                    VALE=(0.0,0.0,1.0,1.0,),
                    PROL_DROITE='LINEAIRE',
                    PROL_GAUCHE='LINEAIRE',);

L_INST=DEFI_LIST_REEL(DEBUT=0.0,
                      INTERVALLE=(_F(JUSQU_A=0.4,
                                     NOMBRE=40,),
                                  _F(JUSQU_A=1.0,
                                     NOMBRE=180,),),);

CHAMDEPL=STAT_NON_LINE(MODELE=MO,
                       CHAM_MATER=CHMAT,
                       EXCIT=(_F(CHARGE=CL,),
                              _F(CHARGE=CH,
                                 FONC_MULT=RAMPE,),),
                       COMPORTEMENT=(_F(RELATION='ELAS_VMIS_TRAC',
                                     GROUP_MA=('AUSTENI','FERRITI',),),
                                  _F(RELATION='ELAS',
                                    GROUP_MA='GOUP',),),
                       INCREMENT=_F(LIST_INST=L_INST,),
                       NEWTON=_F(MATRICE='TANGENTE',
                                 REAC_ITER=5,),
                       CONVERGENCE=_F(RESI_GLOB_RELA=1e-06,ITER_GLOB_MAXI=21),);

CHAMDEPL=CALC_CHAMP(reuse=CHAMDEPL,RESULTAT=CHAMDEPL,CONTRAINTE=('SIGM_ELNO'),VARI_INTERNE=('VARI_ELNO'))

#
IMPR_RESU(RESU=_F(MAILLAGE=MA))
FOND=DEFI_FOND_FISS(MAILLAGE=MA,
                    FOND_FISS=_F(GROUP_NO='PFI1',),
                    );
#


#
# CALCUL DE G POUR LE CHAMP THETA0
# --------------------------------

G5_0=CALC_G(THETA=_F(
                     R_INF=0.02,
                     FOND_FISS=FOND,
                     MODULE=1.0,
                     R_SUP=0.18,
                     DIRECTION=(1.0,0.0,0.0,)),
           RESULTAT=CHAMDEPL,
           NUME_ORDRE=5,

           );
#

G10_0=CALC_G(THETA=_F(
                      R_INF=0.02,
                      FOND_FISS=FOND,
                      MODULE=1.0,
                      R_SUP=0.18,
                      DIRECTION=(1.0,0.0,0.0,)),
            RESULTAT=CHAMDEPL,
            NUME_ORDRE=10,

            );
#

G20_0=CALC_G(THETA=_F(
                      R_INF=0.02,
                      FOND_FISS=FOND,
                      MODULE=1.0,
                      R_SUP=0.18,
                      DIRECTION=(1.0,0.0,0.0,)),
            RESULTAT=CHAMDEPL,
            NUME_ORDRE=20,

            );
#

G30_0=CALC_G(THETA=_F(
                      R_INF=0.02,
                      FOND_FISS=FOND,
                      MODULE=1.0,
                      R_SUP=0.18,
                      DIRECTION=(1.0,0.0,0.0,)),
            RESULTAT=CHAMDEPL,
            NUME_ORDRE=30,

            );
#

G40_0=CALC_G(THETA=_F(
                      R_INF=0.02,
                      FOND_FISS=FOND,
                      MODULE=1.0,
                      R_SUP=0.18,
                      DIRECTION=(1.0,0.0,0.0,)),
            RESULTAT=CHAMDEPL,
            NUME_ORDRE=40,

            );
#

G70_0=CALC_G(THETA=_F(
                      R_INF=0.02,
                      FOND_FISS=FOND,
                      MODULE=1.0,
                      R_SUP=0.18,
                      DIRECTION=(1.0,0.0,0.0,)),
            RESULTAT=CHAMDEPL,
            NUME_ORDRE=70,

            );
#

G100_0=CALC_G(THETA=_F(
                       R_INF=0.02,
                       FOND_FISS=FOND,
                       MODULE=1.0,
                       R_SUP=0.18,
                       DIRECTION=(1.0,0.0,0.0,)),
              RESULTAT=CHAMDEPL,
              NUME_ORDRE=100,

              );
#

G130_0=CALC_G(THETA=_F(
                       R_INF=0.02,
                       FOND_FISS=FOND,
                       MODULE=1.0,
                       R_SUP=0.18,
                       DIRECTION=(1.0,0.0,0.0,)),
              RESULTAT=CHAMDEPL,
              NUME_ORDRE=130,

              );
#

G160_0=CALC_G(THETA=_F(
                       R_INF=0.02,
                       FOND_FISS=FOND,
                       MODULE=1.0,
                       R_SUP=0.18,
                       DIRECTION=(1.0,0.0,0.0,)),
              RESULTAT=CHAMDEPL,
              NUME_ORDRE=160,

              );
#

G190_0=CALC_G(THETA=_F(
                       R_INF=0.02,
                       FOND_FISS=FOND,
                       MODULE=1.0,
                       R_SUP=0.18,
                       DIRECTION=(1.0,0.0,0.0,)),
              RESULTAT=CHAMDEPL,
              NUME_ORDRE=190,

              );
#

G220_0=CALC_G(THETA=_F(
                       R_INF=0.02,
                       FOND_FISS=FOND,
                       MODULE=1.0,
                       R_SUP=0.18,
                       DIRECTION=(1.0,0.0,0.0,)),
              RESULTAT=CHAMDEPL,
              NUME_ORDRE=220,

              );
#
#
# CALCUL DE G THETA POUR LE CHAMP THETA1
# --------------------------------------

G5_1=CALC_G(THETA=_F(
                     R_INF=0.2,
                     FOND_FISS=FOND,
                     MODULE=1.0,
                     R_SUP=1.0,
                     DIRECTION=(1.0,0.0,0.0,)),
         RESULTAT=CHAMDEPL,
         NUME_ORDRE=5,

         );
#

G10_1=CALC_G(THETA=_F(
                      R_INF=0.2,
                      FOND_FISS=FOND,
                      MODULE=1.0,
                      R_SUP=1.0,
                      DIRECTION=(1.0,0.0,0.0,)),
          RESULTAT=CHAMDEPL,
          NUME_ORDRE=10,

          );
#

G20_1=CALC_G(THETA=_F(
                      R_INF=0.2,
                      FOND_FISS=FOND,
                      MODULE=1.0,
                      R_SUP=1.0,
                      DIRECTION=(1.0,0.0,0.0,)),
          RESULTAT=CHAMDEPL,
          NUME_ORDRE=20,

          );
#

G30_1=CALC_G(THETA=_F(
                      R_INF=0.2,
                      FOND_FISS=FOND,
                      MODULE=1.0,
                      R_SUP=1.0,
                      DIRECTION=(1.0,0.0,0.0,)),
          RESULTAT=CHAMDEPL,
          NUME_ORDRE=30,

          );
#

G40_1=CALC_G(THETA=_F(
                      R_INF=0.2,
                      FOND_FISS=FOND,
                      MODULE=1.0,
                      R_SUP=1.0,
                      DIRECTION=(1.0,0.0,0.0,)),
          RESULTAT=CHAMDEPL,
          NUME_ORDRE=40,

          );
#

G70_1=CALC_G(THETA=_F(
                      R_INF=0.2,
                      FOND_FISS=FOND,
                      MODULE=1.0,
                      R_SUP=1.0,
                      DIRECTION=(1.0,0.0,0.0,)),
             RESULTAT=CHAMDEPL,
             NUME_ORDRE=70,

             );
#

G100_1=CALC_G(THETA=_F(
                       R_INF=0.2,
                       FOND_FISS=FOND,
                       MODULE=1.0,
                       R_SUP=1.0,
                       DIRECTION=(1.0,0.0,0.0,)),
              RESULTAT=CHAMDEPL,
              NUME_ORDRE=100,

              );
#

G130_1=CALC_G(THETA=_F(
                       R_INF=0.2,
                       FOND_FISS=FOND,
                       MODULE=1.0,
                       R_SUP=1.0,
                       DIRECTION=(1.0,0.0,0.0,)),
              RESULTAT=CHAMDEPL,
              NUME_ORDRE=130,

              );
#

G160_1=CALC_G(THETA=_F(
                       R_INF=0.2,
                       FOND_FISS=FOND,
                       MODULE=1.0,
                       R_SUP=1.0,
                       DIRECTION=(1.0,0.0,0.0,)),
              RESULTAT=CHAMDEPL,
              NUME_ORDRE=160,

              );
#

G190_1=CALC_G(THETA=_F(
                       R_INF=0.2,
                       FOND_FISS=FOND,
                       MODULE=1.0,
                       R_SUP=1.0,
                       DIRECTION=(1.0,0.0,0.0,)),
              RESULTAT=CHAMDEPL,
              NUME_ORDRE=190,

              );
#

G220_1=CALC_G(THETA=_F(
                       R_INF=0.2,
                       FOND_FISS=FOND,
                       MODULE=1.0,
                       R_SUP=1.0,
                       DIRECTION=(1.0,0.0,0.0,)),
              RESULTAT=CHAMDEPL,
              NUME_ORDRE=220,

              );
#
#
# CALCUL DE G THETA POUR LE CHAMP THETA2
# --------------------------------------

G5_2=CALC_G(THETA=_F(
                     R_INF=1.0,
                     FOND_FISS=FOND,
                     MODULE=1.0,
                     R_SUP=2.0,
                     DIRECTION=(1.0,0.0,0.0,)),
           RESULTAT=CHAMDEPL,
           NUME_ORDRE=5,

           );
#

G10_2=CALC_G(THETA=_F(
                      R_INF=1.0,
                      FOND_FISS=FOND,
                      MODULE=1.0,
                      R_SUP=2.0,
                      DIRECTION=(1.0,0.0,0.0,)),
            RESULTAT=CHAMDEPL,
            NUME_ORDRE=10,

            );
#

G20_2=CALC_G(THETA=_F(
                      R_INF=1.0,
                      FOND_FISS=FOND,
                      MODULE=1.0,
                      R_SUP=2.0,
                      DIRECTION=(1.0,0.0,0.0,)),
            RESULTAT=CHAMDEPL,
            NUME_ORDRE=20,

            );
#

G30_2=CALC_G(THETA=_F(
                      R_INF=1.0,
                      FOND_FISS=FOND,
                      MODULE=1.0,
                      R_SUP=2.0,
                      DIRECTION=(1.0,0.0,0.0,)),
            RESULTAT=CHAMDEPL,
            NUME_ORDRE=30,

            );
#

G40_2=CALC_G(THETA=_F(
                      R_INF=1.0,
                      FOND_FISS=FOND,
                      MODULE=1.0,
                      R_SUP=2.0,
                      DIRECTION=(1.0,0.0,0.0,)),
            RESULTAT=CHAMDEPL,
            NUME_ORDRE=40,

            );
#

G70_2=CALC_G(THETA=_F(
                      R_INF=1.0,
                      FOND_FISS=FOND,
                      MODULE=1.0,
                      R_SUP=2.0,
                      DIRECTION=(1.0,0.0,0.0,)),
            RESULTAT=CHAMDEPL,
            NUME_ORDRE=70,

            );
#

G100_2=CALC_G(THETA=_F(
                       R_INF=1.0,
                       FOND_FISS=FOND,
                       MODULE=1.0,
                       R_SUP=2.0,
                       DIRECTION=(1.0,0.0,0.0,)),
              RESULTAT=CHAMDEPL,
              NUME_ORDRE=100,

              );
#

G130_2=CALC_G(THETA=_F(
                       R_INF=1.0,
                       FOND_FISS=FOND,
                       MODULE=1.0,
                       R_SUP=2.0,
                       DIRECTION=(1.0,0.0,0.0,)),
              RESULTAT=CHAMDEPL,
              NUME_ORDRE=130,

              );
#

G160_2=CALC_G(THETA=_F(
                       R_INF=1.0,
                       FOND_FISS=FOND,
                       MODULE=1.0,
                       R_SUP=2.0,
                       DIRECTION=(1.0,0.0,0.0,)),
              RESULTAT=CHAMDEPL,
              NUME_ORDRE=160,

              );
#

G190_2=CALC_G(THETA=_F(
                       R_INF=1.0,
                       FOND_FISS=FOND,
                       MODULE=1.0,
                       R_SUP=2.0,
                       DIRECTION=(1.0,0.0,0.0,)),
              RESULTAT=CHAMDEPL,
              NUME_ORDRE=190,

              );
#

G220_2=CALC_G(THETA=_F(
                       R_INF=1.0,
                       FOND_FISS=FOND,
                       MODULE=1.0,
                       R_SUP=2.0,
                       DIRECTION=(1.0,0.0,0.0,)),
              RESULTAT=CHAMDEPL,
              NUME_ORDRE=220,

              );
#
# CALCUL DE G THETA POUR LE CHAMP THETA3
# --------------------------------------

G5_3=CALC_G(THETA=_F(
                     R_INF=2.0,
                     FOND_FISS=FOND,
                     MODULE=1.0,
                     R_SUP=3.0,
                     DIRECTION=(1.0,0.0,0.0,)),
           RESULTAT=CHAMDEPL,
           NUME_ORDRE=5,

           );
#

G10_3=CALC_G(THETA=_F(
                      R_INF=2.0,
                      FOND_FISS=FOND,
                      MODULE=1.0,
                      R_SUP=3.0,
                      DIRECTION=(1.0,0.0,0.0,)),
            RESULTAT=CHAMDEPL,
            NUME_ORDRE=10,

            );
#

G20_3=CALC_G(THETA=_F(
                      R_INF=2.0,
                      FOND_FISS=FOND,
                      MODULE=1.0,
                      R_SUP=3.0,
                      DIRECTION=(1.0,0.0,0.0,)),
            RESULTAT=CHAMDEPL,
            NUME_ORDRE=20,

            );
#

G30_3=CALC_G(THETA=_F(
                      R_INF=2.0,
                      FOND_FISS=FOND,
                      MODULE=1.0,
                      R_SUP=3.0,
                      DIRECTION=(1.0,0.0,0.0,)),
            RESULTAT=CHAMDEPL,
            NUME_ORDRE=30,

            );
#

G40_3=CALC_G(THETA=_F(
                      R_INF=2.0,
                      FOND_FISS=FOND,
                      MODULE=1.0,
                      R_SUP=3.0,
                      DIRECTION=(1.0,0.0,0.0,)),
            RESULTAT=CHAMDEPL,
            NUME_ORDRE=40,

            );
#

G70_3=CALC_G(THETA=_F(
                      R_INF=2.0,
                      FOND_FISS=FOND,
                      MODULE=1.0,
                      R_SUP=3.0,
                      DIRECTION=(1.0,0.0,0.0,)),
            RESULTAT=CHAMDEPL,
            NUME_ORDRE=70,

            );
#

G100_3=CALC_G(THETA=_F(
                       R_INF=2.0,
                       FOND_FISS=FOND,
                       MODULE=1.0,
                       R_SUP=3.0,
                       DIRECTION=(1.0,0.0,0.0,)),
              RESULTAT=CHAMDEPL,
              NUME_ORDRE=100,

              );
#

G130_3=CALC_G(THETA=_F(
                       R_INF=2.0,
                       FOND_FISS=FOND,
                       MODULE=1.0,
                       R_SUP=3.0,
                       DIRECTION=(1.0,0.0,0.0,)),
              RESULTAT=CHAMDEPL,
              NUME_ORDRE=130,

              );
#

G160_3=CALC_G(THETA=_F(
                       R_INF=2.0,
                       FOND_FISS=FOND,
                       MODULE=1.0,
                       R_SUP=3.0,
                       DIRECTION=(1.0,0.0,0.0,)),
              RESULTAT=CHAMDEPL,
              NUME_ORDRE=160,
               );
#

G190_3=CALC_G(THETA=_F(
                       R_INF=2.0,
                       FOND_FISS=FOND,
                       MODULE=1.0,
                       R_SUP=3.0,
                       DIRECTION=(1.0,0.0,0.0,)),
              RESULTAT=CHAMDEPL,
              NUME_ORDRE=190,
               );
#

G220_3=CALC_G(THETA=_F(
                       R_INF=2.0,
                       FOND_FISS=FOND,
                       MODULE=1.0,
                       R_SUP=3.0,
                       DIRECTION=(1.0,0.0,0.0,)),
              RESULTAT=CHAMDEPL,
              NUME_ORDRE=220,
               );
#
# CALCUL DE G THETA POUR LE CHAMP THETA4
# --------------------------------------

G5_4=CALC_G(THETA=_F(
                     R_INF=3.0,
                     FOND_FISS=FOND,
                     MODULE=1.0,
                     R_SUP=5.0,
                     DIRECTION=(1.0,0.0,0.0,)),
           RESULTAT=CHAMDEPL,
           NUME_ORDRE=5,
            );
#

G10_4=CALC_G(THETA=_F(
                      R_INF=3.0,
                      FOND_FISS=FOND,
                      MODULE=1.0,
                      R_SUP=5.0,
                      DIRECTION=(1.0,0.0,0.0,)),
            RESULTAT=CHAMDEPL,
            NUME_ORDRE=10,
             );
#

G20_4=CALC_G(THETA=_F(
                      R_INF=3.0,
                      FOND_FISS=FOND,
                      MODULE=1.0,
                      R_SUP=5.0,
                      DIRECTION=(1.0,0.0,0.0,)),
            RESULTAT=CHAMDEPL,
            NUME_ORDRE=20,
             );
#

G30_4=CALC_G(THETA=_F(
                      R_INF=3.0,
                      FOND_FISS=FOND,
                      MODULE=1.0,
                      R_SUP=5.0,
                      DIRECTION=(1.0,0.0,0.0,)),
            RESULTAT=CHAMDEPL,
            NUME_ORDRE=30,
             );
#

G40_4=CALC_G(THETA=_F(
                      R_INF=3.0,
                      FOND_FISS=FOND,
                      MODULE=1.0,
                      R_SUP=5.0,
                      DIRECTION=(1.0,0.0,0.0,)),
            RESULTAT=CHAMDEPL,
            NUME_ORDRE=40,
             );
#

G70_4=CALC_G(THETA=_F(
                      R_INF=3.0,
                      FOND_FISS=FOND,
                      MODULE=1.0,
                      R_SUP=5.0,
                      DIRECTION=(1.0,0.0,0.0,)),
            RESULTAT=CHAMDEPL,
            NUME_ORDRE=70,
             );
#

G100_4=CALC_G(THETA=_F(
                       R_INF=3.0,
                       FOND_FISS=FOND,
                       MODULE=1.0,
                       R_SUP=5.0,
                       DIRECTION=(1.0,0.0,0.0,)),
              RESULTAT=CHAMDEPL,
              NUME_ORDRE=100,
               );
#

G130_4=CALC_G(THETA=_F(
                       R_INF=3.0,
                       FOND_FISS=FOND,
                       MODULE=1.0,
                       R_SUP=5.0,
                       DIRECTION=(1.0,0.0,0.0,)),
              RESULTAT=CHAMDEPL,
              NUME_ORDRE=130,
               );
#

G160_4=CALC_G(THETA=_F(
                       R_INF=3.0,
                       FOND_FISS=FOND,
                       MODULE=1.0,
                       R_SUP=5.0,
                       DIRECTION=(1.0,0.0,0.0,)),
              RESULTAT=CHAMDEPL,
              NUME_ORDRE=160,
               );
#

G190_4=CALC_G(THETA=_F(
                       R_INF=3.0,
                       FOND_FISS=FOND,
                       MODULE=1.0,
                       R_SUP=5.0,
                       DIRECTION=(1.0,0.0,0.0,)),
              RESULTAT=CHAMDEPL,
              NUME_ORDRE=190,
               );
#

G220_4=CALC_G(THETA=_F(
                       R_INF=3.0,
                       FOND_FISS=FOND,
                       MODULE=1.0,
                       R_SUP=5.0,
                       DIRECTION=(1.0,0.0,0.0,)),
              RESULTAT=CHAMDEPL,
              NUME_ORDRE=220,
               );
#
# TESTS DES RESULTATS COURONNE 0
# -----------------------------------

TEST_TABLE(REFERENCE='ANALYTIQUE',
           PRECISION=0.040000000000000001,
           VALE_CALC=6.001915810,
           VALE_REFE=5.8243999999999998,
           NOM_PARA='G',
           TABLE=G20_0,)

TEST_TABLE(REFERENCE='ANALYTIQUE',
           PRECISION=0.029999999999999999,
           VALE_CALC=23.231364307,
           VALE_REFE=22.600000000000001,
           NOM_PARA='G',
           TABLE=G40_0,)

TEST_TABLE(REFERENCE='ANALYTIQUE',
           PRECISION=0.029999999999999999,
           VALE_CALC=48.175277311,
           VALE_REFE=47.240000000000002,
           NOM_PARA='G',
           TABLE=G100_0,)

TEST_TABLE(REFERENCE='ANALYTIQUE',
           PRECISION=0.059999999999999998,
           VALE_CALC=75.077510548,
           VALE_REFE=74.703999999999994,
           NOM_PARA='G',
           TABLE=G160_0,)

TEST_TABLE(REFERENCE='ANALYTIQUE',
           PRECISION=0.080000000000000002,
           VALE_CALC=102.832618934,
           VALE_REFE=103.73999999999999,
           NOM_PARA='G',
           TABLE=G220_0,)

#
# TESTS DES RESULTATS COURONNE 1
# -----------------------------------

TEST_TABLE(REFERENCE='ANALYTIQUE',
           PRECISION=0.050000000000000003,
           VALE_CALC=6.084310809,
           VALE_REFE=5.8243999999999998,
           NOM_PARA='G',
           TABLE=G20_1,)

TEST_TABLE(REFERENCE='ANALYTIQUE',
           PRECISION=0.029999999999999999,
           VALE_CALC=23.228523238,
           VALE_REFE=22.600000000000001,
           NOM_PARA='G',
           TABLE=G40_1,)

TEST_TABLE(REFERENCE='ANALYTIQUE',
           PRECISION=0.02,
           VALE_CALC=47.291459722,
           VALE_REFE=47.240000000000002,
           NOM_PARA='G',
           TABLE=G100_1,)

TEST_TABLE(REFERENCE='ANALYTIQUE',
           PRECISION=0.029999999999999999,
           VALE_CALC=73.096164431,
           VALE_REFE=74.703999999999994,
           NOM_PARA='G',
           TABLE=G160_1,)

TEST_TABLE(REFERENCE='ANALYTIQUE',
           PRECISION=0.040000000000000001,
           VALE_CALC=99.759952489,
           VALE_REFE=103.73999999999999,
           NOM_PARA='G',
           TABLE=G220_1,)

#
# TESTS DES RESULTATS COURONNE 2
# -----------------------------------

TEST_TABLE(REFERENCE='ANALYTIQUE',
           PRECISION=0.050000000000000003,
           VALE_CALC=6.070273550,
           VALE_REFE=5.8243999999999998,
           NOM_PARA='G',
           TABLE=G20_2,)

TEST_TABLE(REFERENCE='ANALYTIQUE',
           PRECISION=0.040000000000000001,
           VALE_CALC=23.328342635,
           VALE_REFE=22.600000000000001,
           NOM_PARA='G',
           TABLE=G40_2,)

TEST_TABLE(REFERENCE='ANALYTIQUE',
           PRECISION=0.02,
           VALE_CALC=48.012766652,
           VALE_REFE=47.240000000000002,
           NOM_PARA='G',
           TABLE=G100_2,)

TEST_TABLE(REFERENCE='ANALYTIQUE',
           PRECISION=1.E-2,
           VALE_CALC=74.951860121,
           VALE_REFE=74.703999999999994,
           NOM_PARA='G',
           TABLE=G160_2,)

TEST_TABLE(REFERENCE='ANALYTIQUE',
           PRECISION=1.E-2,
           VALE_CALC=103.099633198,
           VALE_REFE=103.73999999999999,
           NOM_PARA='G',
           TABLE=G220_2,)

#
# TESTS DES RESULTATS COURONNE 3
# -----------------------------------

TEST_TABLE(REFERENCE='ANALYTIQUE',
           PRECISION=0.050000000000000003,
           VALE_CALC=6.079703741,
           VALE_REFE=5.8243999999999998,
           NOM_PARA='G',
           TABLE=G20_3,)

TEST_TABLE(REFERENCE='ANALYTIQUE',
           PRECISION=0.040000000000000001,
           VALE_CALC=23.343862897,
           VALE_REFE=22.600000000000001,
           NOM_PARA='G',
           TABLE=G40_3,)

TEST_TABLE(REFERENCE='ANALYTIQUE',
           PRECISION=0.029999999999999999,
           VALE_CALC=48.155895935,
           VALE_REFE=47.240000000000002,
           NOM_PARA='G',
           TABLE=G100_3,)

TEST_TABLE(REFERENCE='ANALYTIQUE',
           PRECISION=0.02,
           VALE_CALC=75.454444186,
           VALE_REFE=74.703999999999994,
           NOM_PARA='G',
           TABLE=G160_3,)

TEST_TABLE(REFERENCE='ANALYTIQUE',
           PRECISION=1.E-2,
           VALE_CALC=104.195946209,
           VALE_REFE=103.73999999999999,
           NOM_PARA='G',
           TABLE=G220_3,)

#
# TESTS DES RESULTATS COURONNE 4
# -----------------------------------

TEST_TABLE(REFERENCE='ANALYTIQUE',
           PRECISION=0.050000000000000003,
           VALE_CALC=6.086696972,
           VALE_REFE=5.8243999999999998,
           NOM_PARA='G',
           TABLE=G20_4,)

TEST_TABLE(REFERENCE='ANALYTIQUE',
           PRECISION=0.040000000000000001,
           VALE_CALC=23.374795384,
           VALE_REFE=22.600000000000001,
           NOM_PARA='G',
           TABLE=G40_4,)

TEST_TABLE(REFERENCE='ANALYTIQUE',
           PRECISION=0.029999999999999999,
           VALE_CALC=48.196014207,
           VALE_REFE=47.240000000000002,
           NOM_PARA='G',
           TABLE=G100_4,)

TEST_TABLE(REFERENCE='ANALYTIQUE',
           PRECISION=0.02,
           VALE_CALC=75.520838690,
           VALE_REFE=74.703999999999994,
           NOM_PARA='G',
           TABLE=G160_4,)

TEST_TABLE(REFERENCE='ANALYTIQUE',
           PRECISION=1.E-2,
           VALE_CALC=104.412752775,
           VALE_REFE=103.73999999999999,
           NOM_PARA='G',
           TABLE=G220_4,)

#

FIN();
#
