# MODIF  DATE 03/02/2004   AUTEUR LEBOUVIE F.LEBOUVIER 
# TITRE  FISSURE DE BORD EN ELASTOPLASTICITE DANS UNE PLAQUE
#            CONFIGURATION MANAGEMENT OF EDF VERSION
# ======================================================================
# COPYRIGHT (C) 1991 - 2001  EDF R&D                  WWW.CODE-ASTER.ORG
# THIS PROGRAM IS FREE SOFTWARE; YOU CAN REDISTRIBUTE IT AND/OR MODIFY
# IT UNDER THE TERMS OF THE GNU GENERAL PUBLIC LICENSE AS PUBLISHED BY
# THE FREE SOFTWARE FOUNDATION; EITHER VERSION 2 OF THE LICENSE, OR   
# (AT YOUR OPTION) ANY LATER VERSION.                                 
#
# THIS PROGRAM IS DISTRIBUTED IN THE HOPE THAT IT WILL BE USEFUL, BUT 
# WITHOUT ANY WARRANTY; WITHOUT EVEN THE IMPLIED WARRANTY OF          
# MERCHANTABILITY OR FITNESS FOR A PARTICULAR PURPOSE. SEE THE GNU    
# GENERAL PUBLIC LICENSE FOR MORE DETAILS.                            
#
# YOU SHOULD HAVE RECEIVED A COPY OF THE GNU GENERAL PUBLIC LICENSE   
# ALONG WITH THIS PROGRAM; IF NOT, WRITE TO EDF R&D CODE_ASTER,       
#    1 AVENUE DU GENERAL DE GAULLE, 92141 CLAMART CEDEX, FRANCE.      
# ======================================================================
#    RECTANGULAIRE FINIE SOUMISE A FLEXION CISAILLANTE - EX SSNP310
#

DEBUT( CODE=_F( NOM = 'SSNP110B',NIV_PUB_WEB='INTERNET'))

PRE_GIBI()

MA=LIRE_MAILLAGE(VERI_MAIL=_F(VERIF='OUI'),  )

MO=AFFE_MODELE(  MAILLAGE=MA, 
      AFFE=_F( TOUT = 'OUI',PHENOMENE = 'MECANIQUE',MODELISATION = 'C_PLAN'))

MAT=DEFI_MATERIAU(ELAS=_F(  E = 2.0601E5, NU = 0.3, ALPHA = 0.),
                          ECRO_LINE=_F(  D_SIGM_EPSI = 0., SY = 808.344)
                         )

CHMAT=AFFE_MATERIAU(  MAILLAGE=MA,AFFE=_F(  TOUT = 'OUI',MATER = MAT))

MA=DEFI_GROUP( reuse=MA,   MAILLAGE=MA, 
                     CREA_GROUP_NO=_F( 
                        GROUP_MA = ( 'LPOP11',  'LPOP8', 'LP9P10', ))
                 )

CL=AFFE_CHAR_MECA(  MODELE=MO, 
            DDL_IMPO=_F(  GROUP_NO = 'LPOP11', DX = 0., DY = 0.)
                          )

CH=AFFE_CHAR_MECA(  MODELE=MO, 
            DDL_IMPO=_F(  GROUP_NO = 'LP9P10',  DX = 1.)
                          )

RAMPE=DEFI_FONCTION(  NOM_PARA='INST',
                        VALE=(0.,0.,1.,1.,),
                        PROL_DROITE='LINEAIRE'
                      )

L_INST=DEFI_LIST_REEL(  DEBUT=0.,
                          INTERVALLE=_F( JUSQU_A = .30,  NOMBRE = 6)
                        )

CHAMDEP=STAT_NON_LINE( 
                            MODELE=MO,
                        CHAM_MATER=CHMAT,EXCIT=(
                             _F( 
                CHARGE = CL), _F( 
                CHARGE = CH,
                FONC_MULT = RAMPE)),
                         COMP_ELAS=_F( 
                RELATION = 'ELAS_VMIS_LINE',
                DEFORMATION = 'GREEN'),
                         INCREMENT=_F( 
                LIST_INST = L_INST),
                            NEWTON=_F( 
                MATRICE = 'TANGENTE',
                PREDICTION = 'TANGENTE',
                REAC_ITER = 1),
                       CONVERGENCE=_F( 
                RESI_GLOB_RELA = 1.E-6),
                           SOLVEUR=_F( 
                METHODE = 'MULT_FRONT'),
                     RECH_LINEAIRE=_F( 
                ITER_LINE_MAXI = 3)
              )

CHAMDEP=CALC_ELEM( reuse=CHAMDEP,
                            OPTION=(
                  'SIEF_ELNO_ELGA',  'VARI_ELNO_ELGA',),
                          RESULTAT=CHAMDEP,
                            MODELE=MO,
                        CHAM_MATER=CHMAT
              )

FOND=DEFI_FOND_FISS(    MAILLAGE=MA,
                           FOND_FISS=_F( GROUP_NO = ('P0',)),
                           NORMALE=(0., 1., 0.,)
                      )

# RT = 1.8  AVEC 4 COURONNES REGULIERES
# -------------------------------------

THETA0=CALC_THETA(    MODELE=MO,
                        THETA_2D=_F(  GROUP_NO = ('P0',),
                                   MODULE = 1.,
                                   R_INF = 0.45,
                                   R_SUP = 0.9),
                                     DIRECTION=(1., 0., 0.,)
                     )

THETA1=CALC_THETA(    MODELE=MO,
                        THETA_2D=_F(  GROUP_NO = ('P0',),
                                   MODULE = 1.,
                                   R_INF = 0.9,
                                   R_SUP = 1.35),
                                     DIRECTION=(1., 0., 0.,)
                     )

THETA2=CALC_THETA(    MODELE=MO,
                        THETA_2D=_F(  GROUP_NO = ('P0',),
                                   MODULE = 1.,
                                   R_INF = 1.35,
                                   R_SUP = 1.8),
                                     DIRECTION=(1., 0., 0.,)
                     )

G1_0=CALC_G_THETA_T(    MODELE=MO,
                         RESULTAT=CHAMDEP,
                          THETA=THETA0,
                         CHARGE=CH,
                         COMP_ELAS=_F(  RELATION = 'ELAS_VMIS_LINE'),
                         CHAM_MATER=CHMAT,
                         SYME_CHAR='SYME',
                         NUME_ORDRE=1
                      )

G2_0=CALC_G_THETA_T(    MODELE=MO,
                         RESULTAT=CHAMDEP,
                          THETA=THETA0,
                         CHARGE=CH,
                         COMP_ELAS=_F(  RELATION = 'ELAS_VMIS_LINE'),
                         CHAM_MATER=CHMAT,
                         SYME_CHAR='SYME',
                         NUME_ORDRE=2
                      )

G3_0=CALC_G_THETA_T(    MODELE=MO,
                         RESULTAT=CHAMDEP,
                          THETA=THETA0,
                         CHARGE=CH,
                         COMP_ELAS=_F(  RELATION = 'ELAS_VMIS_LINE'),
                         CHAM_MATER=CHMAT,
                         SYME_CHAR='SYME',
                         NUME_ORDRE=3
                      )

G4_0=CALC_G_THETA_T(    MODELE=MO,
                         RESULTAT=CHAMDEP,
                          THETA=THETA0,
                         CHARGE=CH,
                         COMP_ELAS=_F(  RELATION = 'ELAS_VMIS_LINE'),
                         CHAM_MATER=CHMAT,
                         SYME_CHAR='SYME',
                         NUME_ORDRE=4
                      )

G5_0=CALC_G_THETA_T(    MODELE=MO,
                         RESULTAT=CHAMDEP,
                          THETA=THETA0,
                         CHARGE=CH,
                         COMP_ELAS=_F(  RELATION = 'ELAS_VMIS_LINE'),
                         CHAM_MATER=CHMAT,
                         SYME_CHAR='SYME',
                         NUME_ORDRE=5
                      )

G6_0=CALC_G_THETA_T(    MODELE=MO,
                         RESULTAT=CHAMDEP,
                          THETA=THETA0,
                         CHARGE=CH,
                         COMP_ELAS=_F(  RELATION = 'ELAS_VMIS_LINE'),
                         CHAM_MATER=CHMAT,
                         SYME_CHAR='SYME',
                         NUME_ORDRE=6
                      )

#

TEST_TABLE(       TABLE=G1_0,
                          FILTRE=_F(  NOM_PARA = 'NUME_ORDRE',
                                   VALE_I = 1),
                       NOM_PARA='G',
                            VALE=2.48,
                      PRECISION=0.01,
                      REFERENCE='NON_REGRESSION',
                        VERSION='5.3'            )

TEST_TABLE(       TABLE=G2_0,
                          FILTRE=_F(  NOM_PARA = 'NUME_ORDRE',
                                   VALE_I = 2),
                       NOM_PARA='G',
                           VALE=9.71,
                      PRECISION=0.01,
                      REFERENCE='NON_REGRESSION',
                        VERSION='5.3'            )

TEST_TABLE(       TABLE=G3_0,
                          FILTRE=_F(  NOM_PARA = 'NUME_ORDRE',
                                   VALE_I = 3),
                       NOM_PARA='G',
                           VALE=21.08,
                      PRECISION=0.01,
                      REFERENCE='NON_REGRESSION',
                        VERSION='5.3'            )

TEST_TABLE(       TABLE=G4_0,
                          FILTRE=_F(  NOM_PARA = 'NUME_ORDRE',
                                   VALE_I = 4),
                       NOM_PARA='G',
                           VALE=35.35,
                      PRECISION=0.01,
                      REFERENCE='NON_REGRESSION',
                        VERSION='5.3'            )

TEST_TABLE(       TABLE=G5_0,
                          FILTRE=_F(  NOM_PARA = 'NUME_ORDRE',
                                   VALE_I = 5),
                       NOM_PARA='G',
                           VALE=51.69,
                      PRECISION=0.01,
                      REFERENCE='NON_REGRESSION',
                        VERSION='5.3'            )

TEST_TABLE(       TABLE=G6_0,
                          FILTRE=_F(  NOM_PARA = 'NUME_ORDRE',
                                   VALE_I = 6),
                       NOM_PARA='G',
                            VALE=68.58,
                      PRECISION=0.01,
                      REFERENCE='NON_REGRESSION',
                        VERSION='5.3'            )

FIN()
#
