# TITRE PLAQUE ENTAILLEE EN ELASTOPLASTICITE (ELEMENTS QUAD4 SI)
# ======================================================================
# COPYRIGHT (C) 1991 - 2013  EDF R&D                  WWW.CODE-ASTER.ORG
# THIS PROGRAM IS FREE SOFTWARE; YOU CAN REDISTRIBUTE IT AND/OR MODIFY
# IT UNDER THE TERMS OF THE GNU GENERAL PUBLIC LICENSE AS PUBLISHED BY
# THE FREE SOFTWARE FOUNDATION; EITHER VERSION 2 OF THE LICENSE, OR
# (AT YOUR OPTION) ANY LATER VERSION.
#
# THIS PROGRAM IS DISTRIBUTED IN THE HOPE THAT IT WILL BE USEFUL, BUT
# WITHOUT ANY WARRANTY; WITHOUT EVEN THE IMPLIED WARRANTY OF
# MERCHANTABILITY OR FITNESS FOR A PARTICULAR PURPOSE. SEE THE GNU
# GENERAL PUBLIC LICENSE FOR MORE DETAILS.
#
# YOU SHOULD HAVE RECEIVED A COPY OF THE GNU GENERAL PUBLIC LICENSE
# ALONG WITH THIS PROGRAM; IF NOT, WRITE TO EDF R&D CODE_ASTER,
#    1 AVENUE DU GENERAL DE GAULLE, 92141 CLAMART CEDEX, FRANCE.
# ======================================================================

DEBUT(CODE=_F(NOM='SSNP123B',
NIV_PUB_WEB='INTERNET',),DEBUG=_F(SDVERI='OUI'))
# DEFINITION DU PROBLEME
#=======================

MA=LIRE_MAILLAGE(FORMAT='MED',);

MO=AFFE_MODELE(MAILLAGE=MA,
               AFFE=_F(GROUP_MA='SURF',
                       PHENOMENE='MECANIQUE',
                       MODELISATION='D_PLAN_INCO',),);
YOUNG=200000.0
SIGY=200.0

MATERIAU=DEFI_MATERIAU(ELAS=_F(E=YOUNG,
                               NU=0.3,),
                       ECRO_LINE=_F(D_SIGM_EPSI=1000.0,
                                    SY=SIGY,),);

CH_MATER=AFFE_MATERIAU(MAILLAGE=MA,
                       AFFE=_F(TOUT='OUI',
                               MATER=MATERIAU,),);

SYMETRIE=AFFE_CHAR_MECA(MODELE=MO,
                        FACE_IMPO=(_F(GROUP_MA=('LCD','LBC',),
                                      DY=0.0,),
                                   _F(GROUP_MA=('LDE','LEF',),
                                      DX=0.0,),),);

TRACTION=AFFE_CHAR_MECA(MODELE=MO,
                        FACE_IMPO=_F(GROUP_MA='LFG',
                                     DY=0.1,),);

INSTANTS=DEFI_LIST_REEL(DEBUT=0.0,
                        INTERVALLE=_F(JUSQU_A=1.0,
                                      NOMBRE=5,),);

RAMPE=DEFI_FONCTION(NOM_PARA='INST',
                    VALE=(0.0,0.0,1.0,1.0,),);

DEFLIST =DEFI_LIST_INST(DEFI_LIST=_F(LIST_INST =INSTANTS ),
                        ECHEC=_F(ACTION       = 'DECOUPE',
                                 SUBD_METHODE = 'MANUEL',
                                 SUBD_PAS=4,
                                 SUBD_PAS_MINI = 0.001),)

# CALCUL
#========

RESU=STAT_NON_LINE(MODELE=MO,
                   CHAM_MATER=CH_MATER,
                   EXCIT=(_F(CHARGE=TRACTION,
                             FONC_MULT=RAMPE,),
                          _F(CHARGE=SYMETRIE,),),
                   COMPORTEMENT=_F(RELATION='VMIS_ISOT_LINE',),
                   INCREMENT=_F(LIST_INST=DEFLIST),
                   NEWTON=_F(REAC_ITER=1,),
                   CONVERGENCE=_F(EPSI_REFE=SIGY/YOUNG,
                                  SIGM_REFE=SIGY,
                                  RESI_REFE_RELA=1.E-4,),
                   SOLVEUR=_F(METHODE='MUMPS',),
                   ARCHIVAGE=_F(LIST_INST=INSTANTS,),);
# POST TRAITEMENT
#=================

RESU=CALC_CHAMP(reuse=RESU,RESULTAT=RESU,CONTRAINTE=('SIGM_ELNO'))


RESU=CALC_ERREUR(reuse =RESU,
               RESULTAT=RESU,
               OPTION=('ERME_ELEM','ERME_ELNO',),);

RESU=CALC_CHAMP(reuse =RESU,
             RESULTAT=RESU,
             CONTRAINTE='SIGM_NOEU',);

ECHAN=INTE_MAIL_2D(MAILLAGE=MA,
                   DEFI_SEGMENT=_F(ORIGINE=(0.0,1.0,),
                                   EXTREMITE=(5.0,1.0,),),
                   PRECISION=0.001,
                   INFO=1,);

S_T=POST_RELEVE_T(ACTION=_F(INTITULE='S_EXT',
                            CHEMIN=ECHAN,
                            RESULTAT=RESU,
                            NOM_CHAM='SIGM_NOEU',
                            INST=1.0,
                            CRITERE='RELATIF',
                            NOM_CMP='SIYY',
                            REPERE='GLOBAL',
                            MOYE_NOEUD='OUI',
                            OPERATION='EXTRACTION',),
                  INFO=1,);

IMPR_TABLE(TABLE=S_T,);
# TESTS
#=======
# NON REGRESSION

TEST_TABLE(
           VALE_CALC=234.17369549492,
           NOM_PARA='SIYY',
           TABLE=S_T,
           FILTRE=_F(NOM_PARA='COOR_X',
                     VALE=0.0,),
           )

TEST_TABLE(
           VALE_CALC=257.41729309271,
           NOM_PARA='SIYY',
           TABLE=S_T,
           FILTRE=_F(NOM_PARA='COOR_X',
                     VALE=1.54051,),
           )

TEST_TABLE(
           VALE_CALC=300.3325184181,
           NOM_PARA='SIYY',
           TABLE=S_T,
           FILTRE=_F(NOM_PARA='COOR_X',
                     VALE=3.2679499999999999,),
           )

TEST_TABLE(
           VALE_CALC=263.21206094076,
           NOM_PARA='SIYY',
           TABLE=S_T,
           FILTRE=_F(NOM_PARA='COOR_X',
                     VALE=3.8340299999999998,),
           )

TEST_TABLE(
           VALE_CALC=175.82916193352,
           NOM_PARA='SIYY',
           TABLE=S_T,
           FILTRE=_F(NOM_PARA='COOR_X',
                     VALE=4.3794199999999996,),
           )

#--------------------------------------------------------------------------------
#
#  TEST SUR L'ESTIMATEUR D'ERREUR EN RESIDU

TEST_RESU(RESU=_F(INST=1.0,
                  POINT=1,
                  RESULTAT=RESU,
                  NOM_CHAM='ERME_ELEM',
                  NOM_CMP='NUEST',
                  VALE_CALC=1.2580199421582E-04,
                  CRITERE='RELATIF',
                  MAILLE='M20',
                  ),
          )

TEST_RESU(RESU=_F(INST=1.0,
                  RESULTAT=RESU,
                  NOM_CHAM='ERME_ELNO',
                  NOEUD='N20',
                  NOM_CMP='ERREST',
                  VALE_CALC=3.0812887111053E-05,
                  CRITERE='RELATIF',
                  MAILLE='M20',
                  ),
          )

#--------------------------------------------------------------------------------
#
#  TEST SUR LES CONTRAINTES AU POINT B

TEST_RESU(RESU=_F(INST=1.0,
                  RESULTAT=RESU,
                  NOM_CHAM='SIGM_ELNO',
                  NOEUD='N20',
                  NOM_CMP='SIYY',
                  VALE_CALC=439.88472897788,
                  CRITERE='RELATIF',
                  MAILLE='M20',
                  ),
          )

TEST_RESU(RESU=_F(INST=1.0,
                  RESULTAT=RESU,
                  NOM_CHAM='SIGM_ELNO',
                  NOEUD='N20',
                  NOM_CMP='SIXX',
                  VALE_CALC=-0.25767300107652,
                  CRITERE='RELATIF',
                  MAILLE='M20',
                  ),
          )

FIN();
