# ======================================================================
# COPYRIGHT (C) 1991 - 2016  EDF R&D                  WWW.CODE-ASTER.ORG
# THIS PROGRAM IS FREE SOFTWARE; YOU CAN REDISTRIBUTE IT AND/OR MODIFY
# IT UNDER THE TERMS OF THE GNU GENERAL PUBLIC LICENSE AS PUBLISHED BY
# THE FREE SOFTWARE FOUNDATION; EITHER VERSION 2 OF THE LICENSE, OR
# (AT YOUR OPTION) ANY LATER VERSION.
#
# THIS PROGRAM IS DISTRIBUTED IN THE HOPE THAT IT WILL BE USEFUL, BUT
# WITHOUT ANY WARRANTY; WITHOUT EVEN THE IMPLIED WARRANTY OF
# MERCHANTABILITY OR FITNESS FOR A PARTICULAR PURPOSE. SEE THE GNU
# GENERAL PUBLIC LICENSE FOR MORE DETAILS.
#
# YOU SHOULD HAVE RECEIVED A COPY OF THE GNU GENERAL PUBLIC LICENSE
# ALONG WITH THIS PROGRAM; IF NOT, WRITE TO EDF R&D CODE_ASTER,
#    1 AVENUE DU GENERAL DE GAULLE, 92141 CLAMART CEDEX, FRANCE.
#
#
# ======================================================================
#
#  TEST B DU  BENCHMARK SUR L EVALUATION DES MODELES POUR LE BETON (2001)
#  TEST LOI DE MAZARS
#  COMPARAISON AVEC LES RESULTATS OBTENUS PAR CASTEM (VERSION 2001) AU LGCNSN
# ________________________________________________________
#  MAILLAGE : 1 CUB20
#
#  CHARGEMENT : 1 - direction (DEPSxx,DEPSyy,DEPSxy)=(1,-NU,0)jusqu a la contrainte max
#               2 - direction (DEPSxx,DEPSyy,DEPSxy)=(1, 1.5, 1) jusqu a EPSxx=0.0015
# ________________________________________________________

DEBUT(CODE=_F(NIV_PUB_WEB='INTERNET'),DEBUG=_F(SDVERI='NON'))
# SDVERI='NON' car la verification est trop couteuse en CPU
MAIL=LIRE_MAILLAGE();
MODELE=AFFE_MODELE(AFFE    =_F(TOUT = 'OUI',
                               PHENOMENE='MECANIQUE',
                               MODELISATION='3D'),
                   MAILLAGE=MAIL);
MATERIAU=DEFI_MATERIAU(MAZARS=_F(K =0.7,
                                 EPSD0=9.375e-5,
                                 AC   =1.15,
                                 AT   =0.8,
                                 BC   =1391.3,
                                 BT   =10000.),
                       ELAS     =_F(NU=0.2,
                                    E=3.20000000000E10),);

CAR_MAT=AFFE_MATERIAU(AFFE=_F(MATER=MATERIAU,
                              TOUT='OUI'),
                      MAILLAGE=MAIL);
CLIM=AFFE_CHAR_MECA(DDL_IMPO=(_F(DX=0.0,
                                 GROUP_NO='COTEG'),
                              _F(DZ=0.0,
                                 NOEUD='N1',
                                 DY=0.0),
                              _F(NOEUD='N5',
                                 DY=0.0),),
                    MODELE=MODELE);
CHAR1=AFFE_CHAR_MECA(DDL_IMPO=(_F(NOEUD=('N2','N6'),
                                  DY=0.0),
                               _F(DX=1.0,
                                  GROUP_NO='COTED'),
                               _F(DY=-0.2,
                                  GROUP_NO='HAUT'),),
                     MODELE=MODELE);
CHAR2=AFFE_CHAR_MECA(DDL_IMPO=(_F(DX=1.0,
                                 GROUP_NO='COTED'),
                              _F(NOEUD='N4',
                                 DY=1.5),
                              _F(NOEUD='N8',
                                 DY=1.5),
                              _F(NOEUD='N3',
                                 DY=3.5),
                              _F(NOEUD='N7',
                                 DY=3.5),
                              _F(NOEUD='N2',
                                 DY=2.0),
                              _F(NOEUD='N6',
                                 DY=2.0),),
                     MODELE=MODELE);
L_INS1=DEFI_LIST_REEL(DEBUT=0.0,
                      INTERVALLE=(_F(JUSQU_A=1.0,
                                     NOMBRE=10),
                                  _F(JUSQU_A=5.0,
                                     NOMBRE=300) ,), );
FCT_MUL1=DEFI_FONCTION(INTERPOL=('LIN','LIN'),
                       NOM_PARA='INST',
                       VALE=(0.0,0.0,1.0,5.25E-05),);
FCT_MUL2=DEFI_FONCTION(INTERPOL=('LIN','LIN'),
                       NOM_PARA='INST',
                       VALE=(1.0,0.0,5.0,7.88E-4),);
RES1=STAT_NON_LINE(CHAM_MATER=CAR_MAT,
                   MODELE=MODELE,
                   TITRE='BENCH-B LOI MAZARS',
                   CONVERGENCE=_F(ITER_GLOB_MAXI=20,
                                  RESI_GLOB_RELA=1.E-06),
                   COMPORTEMENT  =_F(RELATION='MAZARS'),
                   INCREMENT  =_F(LIST_INST=L_INS1,
                                  INST_FIN = 1.0 ),
                   NEWTON     =_F(MATRICE='TANGENTE'),
                   EXCIT      =(_F(CHARGE=CLIM),
                                _F(CHARGE=CHAR1,
                                   FONC_MULT=FCT_MUL1),), );
RES1=STAT_NON_LINE(reuse     = RES1,
                   CHAM_MATER=CAR_MAT,
                   MODELE    =MODELE,
                   TITRE     ='BENCH-A LOI MAZARS',
                   CONVERGENCE=_F(ITER_GLOB_MAXI=30,
                                  RESI_GLOB_RELA=1.E-4),
                   COMPORTEMENT  =_F(RELATION='MAZARS'),
                   INCREMENT  =_F(
                                  LIST_INST=L_INS1,),
                   NEWTON     =_F(
                                  MATRICE='TANGENTE',
                                  REAC_ITER  = 1,
                                  REAC_INCR  = 1,),
                   EXCIT    =(_F(CHARGE=CLIM),
                              _F(CHARGE=CHAR2,
                                 TYPE_CHARGE='DIDI',
                                 FONC_MULT=FCT_MUL2),),
                  ETAT_INIT= _F( EVOL_NOLI=RES1 ),
                  ARCHIVAGE= _F(LIST_INST = L_INS1), );
RES1=CALC_CHAMP(reuse=RES1,RESULTAT=RES1,NUME_ORDRE=(10,25,310),CONTRAINTE=('SIGM_ELNO'),VARI_INTERNE=('VARI_ELNO'),DEFORMATION=('EPSI_ELNO'))

RES1=CALC_CHAMP  ( reuse  = RES1,
                RESULTAT=RES1,
                NUME_ORDRE = (10,25,310),
                DEFORMATION='EPSI_NOEU',CONTRAINTE='SIGM_NOEU',VARI_INTERNE='VARI_NOEU',
                );

TEST_RESU(RESU=(_F(NUME_ORDRE=10,
                   REFERENCE='SOURCE_EXTERNE',
                   RESULTAT=RES1,
                   NOM_CHAM='EPSI_NOEU',
                   NOEUD='N1',
                   NOM_CMP='EPXX',
                   VALE_CALC= 9.37500000E-05,
                   VALE_REFE=9.3750000000000002E-05,
                   CRITERE='RELATIF',
                   PRECISION=1.E-3,
                   MAILLE='M1',),
                _F(NUME_ORDRE=10,
                   REFERENCE='SOURCE_EXTERNE',
                   RESULTAT=RES1,
                   NOM_CHAM='EPSI_NOEU',
                   NOEUD='N1',
                   NOM_CMP='EPYY',
                   VALE_CALC=-1.87500000E-05,
                   VALE_REFE=-1.8749999999999998E-05,
                   CRITERE='RELATIF',
                   PRECISION=1.E-3,
                   MAILLE='M1',),
                _F(NUME_ORDRE=10,
                   REFERENCE='SOURCE_EXTERNE',
                   RESULTAT=RES1,
                   NOM_CHAM='EPSI_NOEU',
                   NOEUD='N1',
                   NOM_CMP='EPXY',
                   VALE_CALC=-1.24014231E-21,
                   VALE_REFE=0.0,
                   CRITERE='ABSOLU',
                   PRECISION=1.E-08,
                   MAILLE='M1',),
                _F(NUME_ORDRE=10,
                   REFERENCE='SOURCE_EXTERNE',
                   RESULTAT=RES1,
                   NOM_CHAM='SIGM_NOEU',
                   NOEUD='N1',
                   NOM_CMP='SIXX',
                   VALE_CALC= 3.00000000E+06,
                   VALE_REFE=3.E6,
                   CRITERE='RELATIF',
                   PRECISION=1.E-3,
                   MAILLE='M1',),
                _F(NUME_ORDRE=10,
                   REFERENCE='SOURCE_EXTERNE',
                   RESULTAT=RES1,
                   NOM_CHAM='SIGM_NOEU',
                   NOEUD='N1',
                   NOM_CMP='SIYY',
                   VALE_CALC=-9.01658848E-11,
                   VALE_REFE=0.0,
                   CRITERE='ABSOLU',
                   PRECISION=1.E-08,
                   MAILLE='M1',),
                _F(NUME_ORDRE=10,
                   REFERENCE='SOURCE_EXTERNE',
                   RESULTAT=RES1,
                   NOM_CHAM='SIGM_NOEU',
                   NOEUD='N1',
                   NOM_CMP='SIXY',
                   VALE_CALC= 0.00000000E+00,
                   VALE_REFE=0.0,
                   CRITERE='ABSOLU',
                   PRECISION=1.E-08,
                   MAILLE='M1',),
                _F(NUME_ORDRE=10,
                   REFERENCE='SOURCE_EXTERNE',
                   RESULTAT=RES1,
                   NOM_CHAM='VARI_NOEU',
                   NOEUD='N1',
                   NOM_CMP='V1',
                   VALE_CALC= 2.22044605E-16,
                   VALE_REFE=0.0,
                   CRITERE='ABSOLU',
                   PRECISION=1.E-08,
                   MAILLE='M1',),
                _F(NUME_ORDRE=25,
                   REFERENCE='SOURCE_EXTERNE',
                   RESULTAT=RES1,
                   NOM_CHAM='EPSI_NOEU',
                   NOEUD='N1',
                   NOM_CMP='EPXX',
                   VALE_CALC= 1.64107143E-04,
                   VALE_REFE=1.64E-4,
                   CRITERE='RELATIF',
                   PRECISION=1.E-3,
                   MAILLE='M1',),
                _F(NUME_ORDRE=25,
                   REFERENCE='SOURCE_EXTERNE',
                   RESULTAT=RES1,
                   NOM_CHAM='EPSI_NOEU',
                   NOEUD='N1',
                   NOM_CMP='EPYY',
                   VALE_CALC= 8.67857143E-05,
                   VALE_REFE=8.6700000000000007E-05,
                   CRITERE='RELATIF',
                   PRECISION=1.E-3,
                   MAILLE='M1',),
                _F(NUME_ORDRE=25,
                   REFERENCE='SOURCE_EXTERNE',
                   RESULTAT=RES1,
                   NOM_CHAM='EPSI_NOEU',
                   NOEUD='N1',
                   NOM_CMP='EPXY',
                   VALE_CALC= 7.03571429E-05,
                   VALE_REFE=7.0300000000000001E-05,
                   CRITERE='RELATIF',
                   PRECISION=1.E-3,
                   MAILLE='M1',),
                _F(NUME_ORDRE=25,
                   REFERENCE='SOURCE_EXTERNE',
                   RESULTAT=RES1,
                   NOM_CHAM='SIGM_NOEU',
                   NOEUD='N1',
                   NOM_CMP='SIXX',
                   VALE_CALC= 2.04221697E+06,
                   VALE_REFE=2.043190E6,
                   CRITERE='RELATIF',
                   PRECISION=1.E-3,
                   MAILLE='M1',),
                _F(NUME_ORDRE=25,
                   REFERENCE='SOURCE_EXTERNE',
                   RESULTAT=RES1,
                   NOM_CHAM='SIGM_NOEU',
                   NOEUD='N1',
                   NOM_CMP='SIYY',
                   VALE_CALC= 1.34607058E+06,
                   VALE_REFE=1.346290E6,
                   CRITERE='RELATIF',
                   PRECISION=1.E-3,
                   MAILLE='M1',),
                _F(NUME_ORDRE=25,
                   REFERENCE='SOURCE_EXTERNE',
                   RESULTAT=RES1,
                   NOM_CHAM='SIGM_NOEU',
                   NOEUD='N1',
                   NOM_CMP='SIXY',
                   VALE_CALC= 6.33444980E+05,
                   VALE_REFE=6.33546E5,
                   CRITERE='RELATIF',
                   PRECISION=1.E-3,
                   MAILLE='M1',),
                _F(NUME_ORDRE=25,
                   REFERENCE='SOURCE_EXTERNE',
                   RESULTAT=RES1,
                   NOM_CHAM='VARI_NOEU',
                   NOEUD='N1',
                   NOM_CMP='V1',
                   VALE_CALC=0.662377041,
                   VALE_REFE=0.66210999999999998,
                   CRITERE='RELATIF',
                   PRECISION=1.E-3,
                   MAILLE='M1',),
                _F(NUME_ORDRE=310,
                   REFERENCE='SOURCE_EXTERNE',
                   RESULTAT=RES1,
                   NOM_CHAM='EPSI_NOEU',
                   NOEUD='N1',
                   NOM_CMP='EPXX',
                   VALE_CALC= 1.50089286E-03,
                   VALE_REFE=1.5E-3,
                   CRITERE='RELATIF',
                   PRECISION=1.E-3,
                   MAILLE='M1',),
                _F(NUME_ORDRE=310,
                   REFERENCE='SOURCE_EXTERNE',
                   RESULTAT=RES1,
                   NOM_CHAM='EPSI_NOEU',
                   NOEUD='N1',
                   NOM_CMP='EPYY',
                   VALE_CALC= 2.09196429E-03,
                   VALE_REFE=2.09063E-3,
                   CRITERE='RELATIF',
                   PRECISION=1.E-3,
                   MAILLE='M1',),
                _F(NUME_ORDRE=310,
                   REFERENCE='SOURCE_EXTERNE',
                   RESULTAT=RES1,
                   NOM_CHAM='EPSI_NOEU',
                   NOEUD='N1',
                   NOM_CMP='EPXY',
                   VALE_CALC= 1.40714286E-03,
                   VALE_REFE=1.4062499999999999E-3,
                   CRITERE='RELATIF',
                   PRECISION=1.E-3,
                   MAILLE='M1',),
                _F(NUME_ORDRE=310,
                   REFERENCE='SOURCE_EXTERNE',
                   RESULTAT=RES1,
                   NOM_CHAM='SIGM_NOEU',
                   NOEUD='N1',
                   NOM_CMP='SIXX',
                   VALE_CALC= 3.68629601E+05,
                   VALE_REFE=3.68638E5,
                   CRITERE='RELATIF',
                   PRECISION=1.E-3,
                   MAILLE='M1',),
                _F(NUME_ORDRE=310,
                   REFERENCE='SOURCE_EXTERNE',
                   RESULTAT=RES1,
                   NOM_CHAM='SIGM_NOEU',
                   NOEUD='N1',
                   NOM_CMP='SIYY',
                   VALE_CALC= 4.59449398E+05,
                   VALE_REFE=4.59447E5,
                   CRITERE='RELATIF',
                   PRECISION=1.E-3,
                   MAILLE='M1',),
                _F(NUME_ORDRE=310,
                   REFERENCE='SOURCE_EXTERNE',
                   RESULTAT=RES1,
                   NOM_CHAM='SIGM_NOEU',
                   NOEUD='N1',
                   NOM_CMP='SIXY',
                   VALE_CALC= 2.16211481E+05,
                   VALE_REFE=2.16210E5,
                   CRITERE='RELATIF',
                   PRECISION=1.E-3,
                   MAILLE='M1',),
                _F(NUME_ORDRE=310,
                   REFERENCE='SOURCE_EXTERNE',
                   RESULTAT=RES1,
                   NOM_CHAM='VARI_NOEU',
                   NOEUD='N1',
                   NOM_CMP='V1',
                   VALE_CALC=0.994238019,
                   VALE_REFE=0.99422999999999995,
                   CRITERE='RELATIF',
                   PRECISION=1.E-3,
                   MAILLE='M1',),
                ),
          )

FIN() ;
