# ======================================================================
# COPYRIGHT (C) 1991 - 2016  EDF R&D                  WWW.CODE-ASTER.ORG
# THIS PROGRAM IS FREE SOFTWARE; YOU CAN REDISTRIBUTE IT AND/OR MODIFY
# IT UNDER THE TERMS OF THE GNU GENERAL PUBLIC LICENSE AS PUBLISHED BY
# THE FREE SOFTWARE FOUNDATION; EITHER VERSION 2 OF THE LICENSE, OR
# (AT YOUR OPTION) ANY LATER VERSION.
#
# THIS PROGRAM IS DISTRIBUTED IN THE HOPE THAT IT WILL BE USEFUL, BUT
# WITHOUT ANY WARRANTY; WITHOUT EVEN THE IMPLIED WARRANTY OF
# MERCHANTABILITY OR FITNESS FOR A PARTICULAR PURPOSE. SEE THE GNU
# GENERAL PUBLIC LICENSE FOR MORE DETAILS.
#
# YOU SHOULD HAVE RECEIVED A COPY OF THE GNU GENERAL PUBLIC LICENSE
# ALONG WITH THIS PROGRAM; IF NOT, WRITE TO EDF R&D CODE_ASTER,
#    1 AVENUE DU GENERAL DE GAULLE, 92141 CLAMART CEDEX, FRANCE.
# ======================================================================

DEBUT(CODE=_F(NIV_PUB_WEB='INTERNET',VISU_EFICAS='NON'),DEBUG=_F(SDVERI='OUI'))

# MODELISATION D : CHARGEMENT SUR LES BORDS DU DOMAINE, MAILLES TRIA3, ENRICH TOPOLOGIQUE

#*********************************************************
#                    GEOMETRIE
#                    *********
#     Parametres a modifier avec le maillage
#*********************************************************
#
# LARGEUR DE L EPROUVETTE SELON X
W = 0.2 
#
# HAUTEUR DE L EPROUVETTE SELON Y
H = 0.5 
#
# NOMBRE D ELEMENTS SELON X
NX = 100. 
#
# NOMBRE D ELEMENTS SELON Y
NY = 100. 
#
# precision
eps = sqrt((W/NX)**2+(H/NY)**2)

#*********************************************************

# LONGUEUR DE LA FISSURE
A = 0.04

# PRESSION APPLIQUEE SUR LES FACES INFERIEURE ET SUPERIEURE
PRES=-1.e6

# DEFINITION DU MATERIAU
E   = 210E9
nu  = 0.3
ACIER=DEFI_MATERIAU(ELAS=_F(E=E,NU=nu))

#*********************************************************

# ANGLES D INCLINAISON DE LA FISSURE (EN DEGRES)
alphaf = [ 30.] 

# DEFINITION DES COURONNES POUR LE CALCUL DES SIF
RI=[0.2*A,   eps]
RS=[0.4*A, 3*eps]

#----------------------------------------------
#                MAILLAGE, MODELE INITIAL
#----------------------------------------------

PRE_GIBI()

MAILLAGE=LIRE_MAILLAGE()

MAILLAGE=DEFI_GROUP(reuse =MAILLAGE,
                    MAILLAGE=MAILLAGE,
                    CREA_GROUP_NO=(_F(NOM='NA',OPTION='ENV_SPHERE',POINT=(-W/2.,0.),PRECISION=eps/4.,RAYON=eps/4.),
                                   _F(NOM='NB',OPTION='ENV_SPHERE',POINT=(+W/2.,0.),PRECISION=eps/4.,RAYON=eps/4.),
                                   _F(NOM='NC',OPTION='ENV_SPHERE',POINT=(0.,-H/2.),PRECISION=eps/4.,RAYON=eps/4.),
                                   _F(NOM='ND',OPTION='ENV_SPHERE',POINT=(0.,+H/2.),PRECISION=eps/4.,RAYON=eps/4.),
                                   ),
                    INFO=2)
                    
MODELEIN=AFFE_MODELE(MAILLAGE=MAILLAGE,
                     AFFE=_F(GROUP_MA=('SURF','LIG1','LIG3'),
                             PHENOMENE='MECANIQUE',
                             MODELISATION='D_PLAN'))

MAILLAGE=MODI_MAILLAGE(reuse =MAILLAGE,
                       MAILLAGE=MAILLAGE,
                       ORIE_PEAU_2D=_F(GROUP_MA=('LIG1','LIG3',),),
                       )

#----------------------------------------------
#         DEBUT DE LA BOUCLE SUR LES ANGLES
#----------------------------------------------

nbcalc = len(alphaf)
alpha = [None]*nbcalc
FISS = [None]*nbcalc
MODELK = [None]*nbcalc
CHMA = [None]*nbcalc
CH = [None]*nbcalc
RESU = [None]*nbcalc
RESU = [None]*nbcalc
PK1 = [None]*nbcalc
PK2 = [None]*nbcalc

nbc=len(RI)
SIF_1 = [None]*(nbc*nbcalc)
SIF_2 = [None]*(nbc*nbcalc)
TG_1 = [None]*(nbc*nbcalc)
VAL_CALC = [
     1.9333885073769E+05  ,
     1.9331904628156E+05  ,
     0.21432213400639     ,
     1.0968661627319E+05  ,
     1.0974243351045E+05  ,
     1.9335942884057E+05  ,
     1.9335435476945E+05  ,
     0.21438628821940     ,
     1.0968033623907E+05  ,
     1.0971931876758E+05  ,
     1.9381135505057E+05  ,
     1.120903152353E+05   ,
     1.9273732035766E+05  ,
     1.1201274670009E+05  ,     ]
ct = -1
for i in range(nbcalc) :

   # on passe pas un string pour que l evaluation de la fonction se fasse a chaque pas
   alpha = str(eval('alphaf[i]*pi/180.'))

   FISS[i]=DEFI_FISS_XFEM(MAILLAGE=MAILLAGE,
                          DEFI_FISS=_F(
                                       FORM_FISS  = 'SEGMENT',
                                       PFON_ORIG  = (-A*cos(eval(alpha))/2,-A*sin(eval(alpha))/2, 0.),
                                       PFON_EXTR  = ( A*cos(eval(alpha))/2, A*sin(eval(alpha))/2, 0.),
                                       ),NB_COUCHES=5,
                          )

   MODELK[i]=MODI_MODELE_XFEM(MODELE_IN=MODELEIN,FISSURE=FISS[i])

   CHMA[i]=AFFE_MATERIAU(MAILLAGE=MAILLAGE,
                         MODELE=MODELK[i],
                         AFFE=_F(TOUT = 'OUI',
                                 MATER=ACIER))

   CH[i]=AFFE_CHAR_MECA(MODELE=MODELK[i],
                        DDL_IMPO=(_F(GROUP_NO=('NA','NB',),DY=0.),
                                  _F(GROUP_NO=('NC','ND',),DX=0.),),
                        PRES_REP=_F(GROUP_MA=('LIG1','LIG3',),PRES=PRES))

   RESU[i]=MECA_STATIQUE(MODELE=MODELK[i],
                         CHAM_MATER=CHMA[i],
                         EXCIT=_F(CHARGE=CH[i]))

   # SOLUTION ANALYTIQUE (handbook tada p42)
   fab=1.0+0.128*(A/W)-0.288*(A/W)**2+1.525*(A/W)**3
   K1REF=-PRES*sqrt(pi*A/2.)*fab*cos(eval(alpha))**2
   K2REF=-PRES*sqrt(pi*A/2.)*fab*cos(eval(alpha))*sin(eval(alpha))
   GREF = (1-nu**2)/E*(K1REF**2+K2REF**2)

   for j in range(0,nbc) :
      k = i*nbc + j
      SIF_1[k]=CALC_G(RESULTAT=RESU[i],
                     OPTION='CALC_K_G',
                     THETA=_F(FISSURE=FISS[i],
                              R_INF=RI[j],
                              R_SUP=RS[j]))

      SIF_2[k]=CALC_G(RESULTAT=RESU[i],
                     OPTION='CALC_K_G',
                     THETA=_F(FISSURE=FISS[i],
                              NUME_FOND=2,
                              R_INF=RI[j],
                              R_SUP=RS[j]))

      TG_1[k]=CALC_G(RESULTAT=RESU[i],
                     THETA=_F(FISSURE=FISS[i],
                              R_INF=RI[j],
                              R_SUP=RS[j]))

      IMPR_TABLE(TABLE=SIF_1[k])
      IMPR_TABLE(TABLE=SIF_2[k])
      IMPR_TABLE(TABLE=TG_1[k])
      
      ct = ct +1
      TEST_TABLE(TABLE=SIF_1[k],
                 NOM_PARA='K1',
                 VALE_CALC=VAL_CALC[ct], VALE_REFE=K1REF,
                 CRITERE='RELATIF',
                  PRECISION=0.005,
                 REFERENCE='ANALYTIQUE')
      
      ct = ct +1
      TEST_TABLE(TABLE=SIF_2[k],
                 NOM_PARA='K1',
                 VALE_CALC=VAL_CALC[ct], VALE_REFE=K1REF,
                 CRITERE='RELATIF',
                  PRECISION=0.005,
                 REFERENCE='ANALYTIQUE')
      ct = ct +1
      TEST_TABLE(TABLE=TG_1[k],
                 NOM_PARA='G',
                 VALE_CALC=VAL_CALC[ct], VALE_REFE=GREF,
                 CRITERE='RELATIF',
                  PRECISION=0.04,
                 REFERENCE='ANALYTIQUE')

      if K2REF != 0. :
         ct = ct +1
         TEST_TABLE(TABLE=SIF_1[k],
                    NOM_PARA='K2',
                    VALE_CALC=VAL_CALC[ct], VALE_REFE=K2REF,
                    CRITERE='RELATIF',
                     PRECISION=0.03,
                    REFERENCE='ANALYTIQUE')
         
         ct = ct +1
         TEST_TABLE(TABLE=SIF_2[k],
                    NOM_PARA='K2',
                    VALE_CALC=VAL_CALC[ct], VALE_REFE=K2REF,
                    CRITERE='RELATIF',
                     PRECISION=0.03,
                    REFERENCE='ANALYTIQUE')
      else :
         ct = ct +1
         TEST_TABLE(TABLE=SIF_1[k],
                    NOM_PARA='K2',
                    VALE_CALC=VAL_CALC[ct], VALE_REFE=K2REF,
                    CRITERE='ABSOLU',
                     PRECISION=K1REF/1000.,
                    REFERENCE='ANALYTIQUE')

         ct = ct +1
         TEST_TABLE(TABLE=SIF_2[k],
                    NOM_PARA='K2',
                    VALE_CALC=VAL_CALC[ct], VALE_REFE=K2REF,
                    CRITERE='ABSOLU',
                    PRECISION=K1REF/1000.,
                    REFERENCE='ANALYTIQUE')

   # K1 SUR LE 1er FOND
   PK1[i]=POST_K1_K2_K3(FISSURE = FISS[i],
                        NUME_FOND = 1,
                        RESULTAT  = RESU[i],
                       )

   IMPR_TABLE(TABLE = PK1[i])

   ct = ct +1
   TEST_TABLE(TABLE=PK1[i],
              NOM_PARA='K1',
              VALE_CALC=VAL_CALC[ct], VALE_REFE=K1REF,
              CRITERE='RELATIF',
               PRECISION=0.06,
              REFERENCE='ANALYTIQUE')

   if K2REF != 0. :
      ct = ct +1
      TEST_TABLE(TABLE=PK1[i],
                 NOM_PARA='K2',
                 VALE_CALC=VAL_CALC[ct], VALE_REFE=K2REF,
                 CRITERE='RELATIF',
                  PRECISION=0.06,
                 REFERENCE='ANALYTIQUE')
   else :
      ct = ct +1
      TEST_TABLE(TABLE=PK1[i],
                 NOM_PARA='K2',
                 VALE_CALC=VAL_CALC[ct], VALE_REFE=K2REF,
                 CRITERE='ABSOLU',
                 PRECISION=K1REF/500.,
                 REFERENCE='ANALYTIQUE')


   # K1 SUR LE 2EME FOND
   PK2[i]=POST_K1_K2_K3(FISSURE = FISS[i],
                        NUME_FOND = 2,
                        RESULTAT  = RESU[i],
                       )

   IMPR_TABLE(TABLE = PK2[i])
   
   ct = ct +1
   TEST_TABLE(TABLE=PK2[i],
              NOM_PARA='K1',
              VALE_CALC=VAL_CALC[ct], VALE_REFE=K1REF,
              CRITERE='RELATIF',
               PRECISION=0.06,
              REFERENCE='ANALYTIQUE');

   if K2REF != 0. :
      ct = ct +1
      TEST_TABLE(TABLE=PK2[i],
                NOM_PARA='K2',
                VALE_CALC=VAL_CALC[ct], VALE_REFE=K2REF,
                CRITERE='RELATIF',
                 PRECISION=0.06,
                REFERENCE='ANALYTIQUE')

   else :
      ct = ct +1
      TEST_TABLE(TABLE=PK2[i],
                NOM_PARA='K2',
                VALE_CALC=VAL_CALC[ct], VALE_REFE=K2REF,
                CRITERE='ABSOLU',
                 PRECISION=K1REF/500.,
                REFERENCE='ANALYTIQUE')


#------------------------------------------------------------------------
# POST-TRAITEMENT : MAILLAGE FISSURE et DEPLACEMENTS POUR LE MAILLAGE FISSURE
#------------------------------------------------------------------------

i=0

MA_XFEM=POST_MAIL_XFEM(MODELE=MODELK[i])

MOD_VISU=AFFE_MODELE(MAILLAGE=MA_XFEM,
                     AFFE=_F(TOUT='OUI',
                             PHENOMENE='MECANIQUE',
                             MODELISATION='D_PLAN'))

RES_XFEM=POST_CHAM_XFEM(MODELE_VISU= MOD_VISU,
                        RESULTAT= RESU[i])

IMPR_RESU(FORMAT='MED',RESU=_F(RESULTAT=RES_XFEM))

FIN()
