# ======================================================================
# COPYRIGHT (C) 1991 - 2016  EDF R&D                  WWW.CODE-ASTER.ORG
# THIS PROGRAM IS FREE SOFTWARE; YOU CAN REDISTRIBUTE IT AND/OR MODIFY
# IT UNDER THE TERMS OF THE GNU GENERAL PUBLIC LICENSE AS PUBLISHED BY
# THE FREE SOFTWARE FOUNDATION; EITHER VERSION 2 OF THE LICENSE, OR
# (AT YOUR OPTION) ANY LATER VERSION.
#
# THIS PROGRAM IS DISTRIBUTED IN THE HOPE THAT IT WILL BE USEFUL, BUT
# WITHOUT ANY WARRANTY; WITHOUT EVEN THE IMPLIED WARRANTY OF
# MERCHANTABILITY OR FITNESS FOR A PARTICULAR PURPOSE. SEE THE GNU
# GENERAL PUBLIC LICENSE FOR MORE DETAILS.
#
# YOU SHOULD HAVE RECEIVED A COPY OF THE GNU GENERAL PUBLIC LICENSE
# ALONG WITH THIS PROGRAM; IF NOT, WRITE TO EDF R&D CODE_ASTER,
#    1 AVENUE DU GENERAL DE GAULLE, 92141 CLAMART CEDEX, FRANCE.
# ======================================================================

DEBUT(CODE=_F(NIV_PUB_WEB='INTERNET'), DEBUG=_F(SDVERI='OUI'))

#......................................................................
# PLAQUE CARREE EN TRACTION CISAILLEMENT CALCUL MEC3TR7H EN MEMBRANE
# ELASTOPLASTICITE ISOTROPE VON MISES   (2 TRIA7)
#......................................................................


M=LIRE_MAILLAGE( )

M=DEFI_GROUP( reuse=M,   MAILLAGE=M,
  CREA_GROUP_MA=_F(  NOM = 'TOUT', TOUT = 'OUI'))

MO=AFFE_MODELE(
          MAILLAGE=M,    
         AFFE=_F( TOUT = 'OUI',PHENOMENE = 'MECANIQUE',MODELISATION = 'COQUE_3D')
           )

CARAC=AFFE_CARA_ELEM(  MODELE=MO,
           COQUE=_F( COQUE_NCOU=2,
                     GROUP_MA = 'TOUT',
                     EPAIS = 1.,  A_CIS = 0.83333333333333))

ACIER=DEFI_MATERIAU(
                ELAS=_F( E = 195000., NU = 0.3),
           ECRO_LINE=_F( D_SIGM_EPSI = 1930., SY = 181.E0)
           )

CM=AFFE_MATERIAU(
            MAILLAGE=M,
           AFFE=_F( TOUT = 'OUI',MATER = ACIER)
           )

CH_LA=AFFE_CHAR_MECA(
            MODELE=MO,DDL_IMPO=(
           _F( NOEUD = 'NO4', DX = 0.,DY = 0.),
           _F( NOEUD = 'NO2', DX = 0.),
           _F( NOEUD = 'NO7', DX = 0.),
           _F( NOEUD = ('NO1','NO2','NO3',), DZ = 0.))
           )

CH_FO=AFFE_CHAR_MECA(
           MODELE=MO,FORCE_NODALE=(
          _F( NOEUD = 'NO1',  FX = -9.6833333333, FY = -15.516666666),
                       _F( NOEUD = 'NO2',  FX = 15.516666666, FY = 15.516666666),
                       _F( NOEUD = 'NO3',  FX = -40.716666666, FY = -15.516666666),
                       _F( NOEUD = 'NO4',  FX = -15.5166666,   FY = 15.516666666),
                       _F( NOEUD = 'NO5',  FX = -100.8,        FY = -62.066666666),
                       _F( NOEUD = 'NO6',  FX = -62.066666666),
                       _F( NOEUD = 'NO7',                   FY = 62.066666666),
                       _F( NOEUD = 'NO8',  FX = 62.066666666))
                        )

RAMPE=DEFI_FONCTION(   NOM_PARA='INST',
           PROL_GAUCHE='LINEAIRE',  PROL_DROITE='LINEAIRE',
           VALE=(0.0,  0.0,
                1.0,  1.0,))

L_INST=DEFI_LIST_REEL(  DEBUT=0.0,INTERVALLE=(
             _F( JUSQU_A = 0.81880,  NOMBRE = 2),
             _F( JUSQU_A = 1.0,      NOMBRE = 1))
           )

# STAT_NON_LINE 'VMIS_ISOT_LINE'
#-------------------------------

U=STAT_NON_LINE(MODELE=MO,
                CHAM_MATER=CM,
                CARA_ELEM=CARAC,
                EXCIT=(_F(CHARGE = CH_FO,
                          FONC_MULT = RAMPE),
                      _F(CHARGE = CH_LA)),
                COMPORTEMENT=_F(
                             RELATION = 'VMIS_ISOT_LINE',
                             ITER_INTE_MAXI = 30,
                             RESI_INTE_RELA = 1.E-6
                            ),
                INCREMENT=_F(LIST_INST = L_INST),
                NEWTON=_F(MATRICE = 'TANGENTE',
                          REAC_ITER = 3),
                RECH_LINEAIRE=_F(RHO_MAX=150),
                )

U=CALC_CHAMP(reuse=U,RESULTAT=U,CONTRAINTE=('EFGE_ELNO','SIGM_ELNO'),VARI_INTERNE=('VARI_ELNO'))


UPOS=POST_CHAMP(RESULTAT=U,
                 EXTR_COQUE=_F(NOM_CHAM='SIGM_ELNO',
                               NUME_COUCHE=1,
                               NIVE_COUCHE='SUP',),);
UPOS2=POST_CHAMP(RESULTAT=U,
                 EXTR_COQUE=_F(NOM_CHAM='VARI_ELNO',
                               NUME_COUCHE=1,
                               NIVE_COUCHE='SUP',),);
TEST_RESU(RESU=(_F(INST=0.81879999999999997,
                   RESULTAT=U,
                   NOM_CHAM='DEPL',
                   NOEUD='NO1',
                   NOM_CMP='DX',
                   VALE_CALC=-6.34884923E-04,
                   VALE_REFE=-6.3488499999999996E-4,
                   REFERENCE='ANALYTIQUE',
                   PRECISION=5.0E-3,
                   MAILLE='MA1',),
                _F(INST=0.81879999999999997,
                   RESULTAT=U,
                   NOM_CHAM='DEPL',
                   NOEUD='NO1',
                   NOM_CMP='DY',
                   VALE_CALC=-1.20686921E-03,
                   VALE_REFE=-1.2068700000000001E-3,
                   REFERENCE='ANALYTIQUE',
                   PRECISION=5.0E-3,
                   MAILLE='MA1',),
                _F(INST=1.0,
                   RESULTAT=U,
                   NOM_CHAM='DEPL',
                   NOEUD='NO1',
                   NOM_CMP='DY',
                   VALE_CALC=-0.034462580,
                   VALE_REFE=-0.034314600000000001,
                   REFERENCE='ANALYTIQUE',
                   PRECISION=5.0E-3,
                   MAILLE='MA1',),
                ),
          )

TEST_RESU(RESU=(_F(INST=1.0,
                   RESULTAT=UPOS2,
                   NOM_CHAM='VARI_ELNO',
                   NOEUD='NO10',
                   NOM_CMP='V1',
                   VALE_CALC=0.020547265,
                   VALE_REFE=0.020549999999999999,
                   REFERENCE='ANALYTIQUE',
                   PRECISION=1.E-2,
                   MAILLE='MA1',),
                _F(INST=1.0,
                   RESULTAT=UPOS2,
                   NOM_CHAM='VARI_ELNO',
                   NOEUD='NO11',
                   NOM_CMP='V1',
                   VALE_CALC=0.020547265,
                   VALE_REFE=0.020549999999999999,
                   REFERENCE='ANALYTIQUE',
                   PRECISION=1.E-2,
                   MAILLE='MA2',),
                ),
          )

TEST_RESU(RESU=(_F(INST=1.0,
                   RESULTAT=UPOS,
                   NOM_CHAM='SIGM_ELNO',
                   NOEUD='NO1',
                   NOM_CMP='SIXX',
                   VALE_CALC=151.200014462,
                   VALE_REFE=151.19999999999999,
                   REFERENCE='ANALYTIQUE',
                   PRECISION=1.E-2,
                   MAILLE='MA1',),
                _F(INST=1.0,
                   RESULTAT=UPOS,
                   NOM_CHAM='SIGM_ELNO',
                   NOEUD='NO1',
                   NOM_CMP='SIXY',
                   VALE_CALC=93.099997236,
                   VALE_REFE=93.099999999999994,
                   REFERENCE='ANALYTIQUE',
                   PRECISION=1.E-2,
                   MAILLE='MA1',),
                _F(INST=1.0,
                   RESULTAT=UPOS,
                   NOM_CHAM='SIGM_ELNO',
                   NOEUD='NO3',
                   NOM_CMP='SIXX',
                   VALE_CALC=151.200014465,
                   VALE_REFE=151.19999999999999,
                   REFERENCE='ANALYTIQUE',
                   PRECISION=1.E-2,
                   MAILLE='MA1',),
                _F(INST=1.0,
                   RESULTAT=UPOS,
                   NOM_CHAM='SIGM_ELNO',
                   NOEUD='NO3',
                   NOM_CMP='SIXY',
                   VALE_CALC=93.099997234,
                   VALE_REFE=93.099999999999994,
                   REFERENCE='ANALYTIQUE',
                   PRECISION=1.E-2,
                   MAILLE='MA1',),
                _F(INST=1.0,
                   RESULTAT=UPOS,
                   NOM_CHAM='SIGM_ELNO',
                   NOEUD='NO3',
                   NOM_CMP='SIXX',
                   VALE_CALC=151.200014463,
                   VALE_REFE=151.19999999999999,
                   REFERENCE='ANALYTIQUE',
                   PRECISION=1.E-2,
                   MAILLE='MA2',),
                _F(INST=1.0,
                   RESULTAT=UPOS,
                   NOM_CHAM='SIGM_ELNO',
                   NOEUD='NO3',
                   NOM_CMP='SIXY',
                   VALE_CALC=93.099997235,
                   VALE_REFE=93.099999999999994,
                   REFERENCE='ANALYTIQUE',
                   PRECISION=1.E-2,
                   MAILLE='MA2',),
                ),
          )

TEST_RESU(RESU=(_F(INST=1.0,
                   RESULTAT=U,
                   NOM_CHAM='EFGE_ELNO',
                   NOEUD='NO1',
                   NOM_CMP='NXX',
                   VALE_CALC=151.200014462,
                   VALE_REFE=151.19999999999999,
                   REFERENCE='ANALYTIQUE',
                   PRECISION=1.E-2,
                   MAILLE='MA1',),
                _F(INST=1.0,
                   RESULTAT=U,
                   NOM_CHAM='EFGE_ELNO',
                   NOEUD='NO1',
                   NOM_CMP='NXY',
                   VALE_CALC=93.099997236,
                   VALE_REFE=93.099999999999994,
                   REFERENCE='ANALYTIQUE',
                   PRECISION=1.E-2,
                   MAILLE='MA1',),
                _F(INST=1.0,
                   RESULTAT=U,
                   NOM_CHAM='EFGE_ELNO',
                   NOEUD='NO3',
                   NOM_CMP='NXX',
                   VALE_CALC=151.200014465,
                   VALE_REFE=151.19999999999999,
                   REFERENCE='ANALYTIQUE',
                   PRECISION=1.E-2,
                   MAILLE='MA1',),
                _F(INST=1.0,
                   RESULTAT=U,
                   NOM_CHAM='EFGE_ELNO',
                   NOEUD='NO3',
                   NOM_CMP='NXY',
                   VALE_CALC=93.099997234,
                   VALE_REFE=93.099999999999994,
                   REFERENCE='ANALYTIQUE',
                   PRECISION=1.E-2,
                   MAILLE='MA1',),
                _F(INST=1.0,
                   RESULTAT=U,
                   NOM_CHAM='EFGE_ELNO',
                   NOEUD='NO3',
                   NOM_CMP='NXX',
                   VALE_CALC=151.200014463,
                   VALE_REFE=151.19999999999999,
                   REFERENCE='ANALYTIQUE',
                   PRECISION=1.E-2,
                   MAILLE='MA2',),
                _F(INST=1.0,
                   RESULTAT=U,
                   NOM_CHAM='EFGE_ELNO',
                   NOEUD='NO3',
                   NOM_CMP='NXY',
                   VALE_CALC=93.099997235,
                   VALE_REFE=93.099999999999994,
                   REFERENCE='ANALYTIQUE',
                   PRECISION=1.E-2,
                   MAILLE='MA2',),
                ),
          )

FIN()
