# TITRE PLAQUE MULTI-FISSUREE EN BITACTION-CISAILLEMENT AVEC XFEM
# ======================================================================
# COPYRIGHT (C) 1991 - 2013  EDF R&D                  WWW.CODE-ASTER.ORG
# THIS PROGRAM IS FREE SOFTWARE; YOU CAN REDISTRIBUTE IT AND/OR MODIFY
# IT UNDER THE TERMS OF THE GNU GENERAL PUBLIC LICENSE AS PUBLISHED BY
# THE FREE SOFTWARE FOUNDATION; EITHER VERSION 2 OF THE LICENSE, OR
# (AT YOUR OPTION) ANY LATER VERSION.
#
# THIS PROGRAM IS DISTRIBUTED IN THE HOPE THAT IT WILL BE USEFUL, BUT
# WITHOUT ANY WARRANTY; WITHOUT EVEN THE IMPLIED WARRANTY OF
# MERCHANTABILITY OR FITNESS FOR A PARTICULAR PURPOSE. SEE THE GNU
# GENERAL PUBLIC LICENSE FOR MORE DETAILS.
#
# YOU SHOULD HAVE RECEIVED A COPY OF THE GNU GENERAL PUBLIC LICENSE
# ALONG WITH THIS PROGRAM; IF NOT, WRITE TO EDF R&D CODE_ASTER,
#    1 AVENUE DU GENERAL DE GAULLE, 92141 CLAMART CEDEX, FRANCE.
# ======================================================================

# cas avec contact

DEBUT(CODE=_F(NIV_PUB_WEB='INTERNET',),DEBUG=_F(SDVERI='OUI'));

# nbre de raffinements et pourcentage a rafiner
nb_raff = 3
coef_ini = 0.25

# initialisation

coef = []
coef.append(coef_ini)
for i in range(nb_raff-1):
  coef.append(4*coef[i]*coef[i]/(1+3*coef[i]))
h = 0.5/2**nb_raff
r_inf = h
r_sup = 5*h

MA    = [None]*(nb_raff+1)
CHERR = [None]*(nb_raff+1)

MA[0]=LIRE_MAILLAGE(INFO=1,);

for num_calc in range(nb_raff+1):

  MO=AFFE_MODELE(MAILLAGE=MA[num_calc],
                 AFFE=(_F(GROUP_MA=('GM200','GM11','GM12','GM13','GM14',),
                          PHENOMENE='MECANIQUE',
                          MODELISATION='D_PLAN',),),);

  #========================
  # Definition des fissures
  #========================

  FISS1=DEFI_FISS_XFEM(MAILLAGE=MA[num_calc],
                       TYPE_DISCONTINUITE='FISSURE',
                       DEFI_FISS=_F(GROUP_MA_FISS='GM21',
                                    GROUP_MA_FOND='GM1'),
                       INFO=1,);

  FISS2=DEFI_FISS_XFEM(MAILLAGE=MA[num_calc],
                       TYPE_DISCONTINUITE='FISSURE',
                       DEFI_FISS=_F(GROUP_MA_FISS='GM22',
                                    GROUP_MA_FOND='GM2'),
                       INFO=1,);

  FISS3=DEFI_FISS_XFEM(MAILLAGE=MA[num_calc],
                       TYPE_DISCONTINUITE='FISSURE',
                       DEFI_FISS=_F(GROUP_MA_FISS='GM23',
                                    GROUP_MA_FOND='GM3'),
                       INFO=1,);


  if (num_calc == nb_raff):
    FISS4=DEFI_FISS_XFEM(MAILLAGE=MA[num_calc],
                         TYPE_DISCONTINUITE='FISSURE',
                         JONCTION=_F(FISSURE=FISS1,POINT=(0.2030945,1.557297),),
                         DEFI_FISS=_F(GROUP_MA_FISS='GM24',
                                      GROUP_MA_FOND='GM4'),
                         INFO=1,);
  else:
    FISS4=DEFI_FISS_XFEM(MAILLAGE=MA[num_calc],
                         TYPE_DISCONTINUITE='FISSURE',
                         DEFI_FISS=_F(GROUP_MA_FISS='GM24',
                                      GROUP_MA_FOND='GM4'),
                         INFO=1,);

  FISS5=DEFI_FISS_XFEM(MAILLAGE=MA[num_calc],
                       TYPE_DISCONTINUITE='FISSURE',
                       DEFI_FISS=_F(GROUP_MA_FISS='GM31',
                                    GROUP_MA_FOND='GM5'),
                       INFO=1,);

  FISS6=DEFI_FISS_XFEM(MAILLAGE=MA[num_calc],
                       TYPE_DISCONTINUITE='FISSURE',
                       DEFI_FISS=_F(GROUP_MA_FISS='GM32',
                                    GROUP_MA_FOND='GM6'),
                       INFO=1,);

  FISS7=DEFI_FISS_XFEM(MAILLAGE=MA[num_calc],
                       TYPE_DISCONTINUITE='FISSURE',
                       DEFI_FISS=_F(GROUP_MA_FISS='GM33',
                                    GROUP_MA_FOND='GM7'),
                       INFO=1,);

  if (num_calc == nb_raff):
    FISS8=DEFI_FISS_XFEM(MAILLAGE=MA[num_calc],
                         TYPE_DISCONTINUITE='FISSURE',
                         JONCTION=_F(FISSURE=FISS5,POINT=(-0.2030955,0.057297),),
                         DEFI_FISS=_F(GROUP_MA_FISS='GM34',
                                      GROUP_MA_FOND='GM8'),
                         INFO=1,);
  else:
    FISS8=DEFI_FISS_XFEM(MAILLAGE=MA[num_calc],
                         TYPE_DISCONTINUITE='FISSURE',
                         DEFI_FISS=_F(GROUP_MA_FISS='GM34',
                                      GROUP_MA_FOND='GM8'),
                         INFO=1,);

  # on ne raffine pas la derniere iteration
  if num_calc < nb_raff :
    CHERR[num_calc] = RAFF_XFEM(FISSURE=(FISS1,FISS2,FISS3,FISS4,
                                         FISS5,FISS6,FISS7,FISS8,),);

    MA[num_calc+1]=CO('MA_%d' % (num_calc+1));

    MACR_ADAP_MAIL(ADAPTATION='RAFFINEMENT',
                   GROUP_MA = ('GM200','GM11','GM12','GM13','GM14',),
                   CHAM_GD = CHERR[num_calc],
                   CRIT_RAFF_PE = coef[num_calc],
                   USAGE_CMP = 'RELATIF',
                   MAILLAGE_N = MA[num_calc],
                   MAILLAGE_NP1 = MA[num_calc+1])

    DETRUIRE(CONCEPT=_F( NOM=(MO,FISS1,FISS2,FISS3,FISS4,FISS5,FISS6,FISS7,FISS8)));

#=====================
# Definition du modele
#=====================

MODELEK=MODI_MODELE_XFEM(MODELE_IN=MO,
                         FISSURE=(FISS1,FISS2,FISS3,FISS4,
                         FISS5,FISS6,FISS7,FISS8,),
                         CONTACT='STANDARD',
                         INFO=1,);

CTXFEM = DEFI_CONTACT(MODELE             = MODELEK,
                      FORMULATION    = 'XFEM', ELIM_ARETE = 'ELIM',
                      ZONE = (_F(INTEGRATION   = 'NOEUD',
                                 FISS_MAIT     = FISS1,
                                 ALGO_LAGR     = 'VERSION2',),
                              _F(INTEGRATION   = 'NOEUD',
                                 FISS_MAIT     = FISS2,
                                 ALGO_LAGR     = 'VERSION2',),
                              _F(INTEGRATION   = 'NOEUD',
                                 FISS_MAIT     = FISS3,
                                 ALGO_LAGR     = 'VERSION2',),
                              _F(INTEGRATION   = 'NOEUD',
                                 FISS_MAIT     = FISS4,
                                 ALGO_LAGR     = 'VERSION2',),
                              _F(INTEGRATION   = 'NOEUD',
                                 FISS_MAIT     = FISS5,
                                 ALGO_LAGR     = 'VERSION2',
                                 COEF_CONT     = 100000.0,),
                              _F(INTEGRATION   = 'NOEUD',
                                 FISS_MAIT     = FISS6,
                                 ALGO_LAGR     = 'VERSION2',),
                              _F(INTEGRATION   = 'NOEUD',
                                 FISS_MAIT     = FISS7,
                                 ALGO_LAGR     = 'VERSION2',),
                              _F(INTEGRATION   = 'NOEUD',
                                 FISS_MAIT     = FISS8,
                                 ALGO_LAGR     = 'VERSION2',),
                            )
                      );


#====================
# Loi de comportement
#====================

E = 1.E5
NU = 0.3
MATER=DEFI_MATERIAU(ELAS=_F(E=E,NU=NU,),);
CHAMPMAT=AFFE_MATERIAU(MAILLAGE=MA[nb_raff],
                       MODELE=MODELEK,
                       AFFE=_F(TOUT='OUI',
                               MATER=MATER,),);

#=======================
# Conditions aux limites
#=======================

CH=AFFE_CHAR_MECA(MODELE=MODELEK,
                  FORCE_CONTOUR=(_F(GROUP_MA=('GM11','GM12',),FX=1.,FY=1.,),
                                 _F(GROUP_MA=('GM13','GM14',),FX=-1.,FY=-1.,),),
                  DDL_IMPO=(_F(GROUP_MA='GM18',DX=0,DY=0),
                            _F(GROUP_MA='GM17',DX=1.4e-4,DY=5e-4,),),
                            );

#=======
# Calcul
#=======

L_INST=DEFI_LIST_REEL(DEBUT=0,
                      INTERVALLE=_F(JUSQU_A=1,
                                    NOMBRE=1,),);
UTOT1=STAT_NON_LINE(MODELE=MODELEK,
                    CHAM_MATER=CHAMPMAT,
                    CONTACT = CTXFEM,
                    EXCIT=(
                           _F(CHARGE=CH,),),
                    COMPORTEMENT=_F(RELATION='ELAS',
                                 GROUP_MA='GM200',),
                    INCREMENT=_F(LIST_INST=L_INST,),
                    SOLVEUR=_F(METHODE='MUMPS',),
                    NEWTON=_F(REAC_ITER=1,),
                    CONVERGENCE=_F(ARRET='OUI',),
                    ARCHIVAGE=_F(CHAM_EXCLU='VARI_ELGA',),
                    INFO=1,);

#================
# Post-traitement
#================

MA_XFEM=POST_MAIL_XFEM(MODELE=MODELEK);

MOD_VISU=AFFE_MODELE(MAILLAGE=MA_XFEM,
                     AFFE=_F(GROUP_MA='GM200',
                     PHENOMENE='MECANIQUE',
                     MODELISATION='D_PLAN',),);

RES_XFEM=POST_CHAM_XFEM(MODELE_VISU = MOD_VISU,
                        RESULTAT    = UTOT1,);

PK = [None]*14
Points = ['A','B','C','F','G','H','I','A\'','B\'','C\'','F\'','G\'','H\'','I\'']
NumFond = [1,2,1,1,2,1,2, 2,1,1,2,1,2,1]
Fissure = [FISS1,FISS1,FISS4,FISS2,FISS2,FISS3,FISS3,FISS5,FISS5,FISS8,FISS6,FISS6,FISS7,FISS7]
#Vale_I  = [1.7479, 1.2384,-0.5836, 0.1656,-0.3466,-0.0002,-0.3366, 3.6999, 2.6639, 5.4041, 4.3020, 3.6790, 0.4022, 0.9760]
#Vale_II = [2.7678, 3.1770, 0.4408, 0.2810, 0.1555,-0.0410, 0.2531, 2.3679, 1.0261,-0.0961,-0.1591, 0.9319,-0.3641, 0.0989]
#Vale_Ic  = [None]*14
#Vale_IIc = [None]*14

for i in range(14):
    PK[i]=CALC_G(RESULTAT=UTOT1,
                 OPTION='CALC_K_G',
                 NUME_ORDRE=1,
                 THETA=_F(NUME_FOND=NumFond[i],
                          FISSURE=Fissure[i],
                          R_INF=r_inf,
                          R_SUP=r_sup,),);

    IMPR_TABLE(TABLE=PK[i],
               FORMAT='AGRAF',
               FORMAT_R='1PE12.7',);

TEST_TABLE(TABLE=PK[0],
           NOM_PARA='K1',
           CRITERE='RELATIF',
           VALE_CALC=1.75249000515,
           VALE_ABS='NON',
           INFO=1,)

TEST_TABLE(TABLE=PK[0],
           NOM_PARA='K2',
           CRITERE='RELATIF',
           VALE_CALC=2.76984490497,
           VALE_ABS='NON',
           INFO=1,)

TEST_TABLE(TABLE=PK[1],
           NOM_PARA='K1',
           CRITERE='RELATIF',
           VALE_CALC=1.23497089531,
           VALE_ABS='NON',
           INFO=1,)

TEST_TABLE(TABLE=PK[1],
           NOM_PARA='K2',
           CRITERE='RELATIF',
           VALE_CALC=3.17437353672,
           VALE_ABS='NON',
           INFO=1,)

TEST_TABLE(TABLE=PK[2],
           NOM_PARA='K1',
           CRITERE='ABSOLU',
           VALE_CALC=-0.587203786142,
           VALE_ABS='NON',
           INFO=1,)

TEST_TABLE(TABLE=PK[2],
           NOM_PARA='K2',
           CRITERE='ABSOLU',
           VALE_CALC=0.440698265473,
           VALE_ABS='NON',
           INFO=1,)

TEST_TABLE(TABLE=PK[3],
           NOM_PARA='K1',
           CRITERE='ABSOLU',
           VALE_CALC=0.167726886073,
           VALE_ABS='NON',
           INFO=1,)


TEST_TABLE(TABLE=PK[3],
           NOM_PARA='K2',
           CRITERE='ABSOLU',
           VALE_CALC=0.282652856876,
           VALE_ABS='NON',
           INFO=1,)

TEST_TABLE(TABLE=PK[4],
           NOM_PARA='K1',
           CRITERE='ABSOLU',
           VALE_CALC=-0.347099923379,
           VALE_ABS='NON',
           INFO=1,)

TEST_TABLE(TABLE=PK[4],
           NOM_PARA='K2',
           CRITERE='ABSOLU',
           VALE_CALC=0.156046340257,
           VALE_ABS='NON',
           INFO=1,)

TEST_TABLE(TABLE=PK[5],
           NOM_PARA='K1',
           CRITERE='ABSOLU',
           VALE_CALC=-0.00344634409625,
           VALE_ABS='NON',
           INFO=1,)

TEST_TABLE(TABLE=PK[5],
           NOM_PARA='K2',
           CRITERE='ABSOLU',
           VALE_CALC=-0.040397286992,
           VALE_ABS='NON',
           INFO=1,)

TEST_TABLE(TABLE=PK[6],
           NOM_PARA='K1',
           CRITERE='ABSOLU',
           VALE_CALC=-0.336043153843,
           VALE_ABS='NON',
           INFO=1,)

TEST_TABLE(TABLE=PK[6],
           NOM_PARA='K2',
           CRITERE='ABSOLU',
           VALE_CALC=0.253938624419,
           VALE_ABS='NON',
           INFO=1,)

TEST_TABLE(TABLE=PK[7],
           NOM_PARA='K1',
           CRITERE='RELATIF',
           VALE_CALC=3.70761497801,
           VALE_ABS='NON',
           INFO=1,)

TEST_TABLE(TABLE=PK[7],
           NOM_PARA='K2',
           CRITERE='RELATIF',
           VALE_CALC=2.37116722037,
           VALE_ABS='NON',
           INFO=1,)

TEST_TABLE(TABLE=PK[8],
           NOM_PARA='K1',
           CRITERE='RELATIF',
           VALE_CALC=2.68071488667,
           VALE_ABS='NON',
           INFO=1,)

TEST_TABLE(TABLE=PK[8],
           NOM_PARA='K2',
           CRITERE='RELATIF',
           VALE_CALC=1.02208204066,
           VALE_ABS='NON',
           INFO=1,)

TEST_TABLE(TABLE=PK[9],
           NOM_PARA='K1',
           CRITERE='RELATIF',
           VALE_CALC=5.39106663047,
           VALE_ABS='NON',
           INFO=1,)

TEST_TABLE(TABLE=PK[9],
           NOM_PARA='K2',
           CRITERE='ABSOLU',
           VALE_CALC=-0.104318290031,
           VALE_ABS='NON',
           INFO=1,)

TEST_TABLE(TABLE=PK[10],
           NOM_PARA='K1',
           CRITERE='RELATIF',
           VALE_CALC=4.30058114712,
           VALE_ABS='NON',
           INFO=1,)

TEST_TABLE(TABLE=PK[10],
           NOM_PARA='K2',
           CRITERE='ABSOLU',
           VALE_CALC=-0.162745281342,
           VALE_ABS='NON',
           INFO=1,)

TEST_TABLE(TABLE=PK[11],
           NOM_PARA='K1',
           CRITERE='RELATIF',
           VALE_CALC=3.67568199019,
           VALE_ABS='NON',
           INFO=1,)

TEST_TABLE(TABLE=PK[11],
           NOM_PARA='K2',
           CRITERE='ABSOLU',
           VALE_CALC=0.932153247123,
           VALE_ABS='NON',
           INFO=1,)

TEST_TABLE(TABLE=PK[12],
           NOM_PARA='K1',
           CRITERE='ABSOLU',
           VALE_CALC=0.404689555423,
           VALE_ABS='NON',
           INFO=1,)

TEST_TABLE(TABLE=PK[12],
           NOM_PARA='K2',
           CRITERE='ABSOLU',
           VALE_CALC=-0.356583626024,
           VALE_ABS='NON',
           INFO=1,)

TEST_TABLE(TABLE=PK[13],
           NOM_PARA='K1',
           CRITERE='ABSOLU',
           VALE_CALC=0.979454511604,
           VALE_ABS='NON',
           INFO=1,)

TEST_TABLE(TABLE=PK[13],
           NOM_PARA='K2',
           CRITERE='ABSOLU',
           VALE_CALC=0.105463926379,
           VALE_ABS='NON',
           INFO=1,)

FIN();
