
# MODIF  DATE 10/10/2012   AUTEUR COURTOIS M.COURTOIS 
# RESPONSABLE DEBONNIERES P.DEBONNIERES
# TITRE ESSAI DE TRACTION-CISAILLEMENT (VISCOELASTICITE CYRANO3)
# ssnp101a.para = tps_job 60 mem_job 256Mo ncpus 1 liste_test S
#            CONFIGURATION MANAGEMENT OF EDF VERSION
# ======================================================================
# COPYRIGHT (C) 1991 - 2012  EDF R&D                  WWW.CODE-ASTER.ORG
# THIS PROGRAM IS FREE SOFTWARE; YOU CAN REDISTRIBUTE IT AND/OR MODIFY
# IT UNDER THE TERMS OF THE GNU GENERAL PUBLIC LICENSE AS PUBLISHED BY
# THE FREE SOFTWARE FOUNDATION; EITHER VERSION 2 OF THE LICENSE, OR
# (AT YOUR OPTION) ANY LATER VERSION.
#
# THIS PROGRAM IS DISTRIBUTED IN THE HOPE THAT IT WILL BE USEFUL, BUT
# WITHOUT ANY WARRANTY; WITHOUT EVEN THE IMPLIED WARRANTY OF
# MERCHANTABILITY OR FITNESS FOR A PARTICULAR PURPOSE. SEE THE GNU
# GENERAL PUBLIC LICENSE FOR MORE DETAILS.
#
# YOU SHOULD HAVE RECEIVED A COPY OF THE GNU GENERAL PUBLIC LICENSE
# ALONG WITH THIS PROGRAM; IF NOT, WRITE TO EDF R&D CODE_ASTER,
#    1 AVENUE DU GENERAL DE GAULLE, 92141 CLAMART CEDEX, FRANCE.
# ======================================================================

DEBUT(CODE=_F(NOM='SSNP101A', NIV_PUB_WEB='INTERNET'), DEBUG=_F(SDVERI='NON'))
#......................................................................
# PLAQUE CARREE EN TRACTION CISAILLEMENT CALCUL 2D DEF. PLANES
# LOI DE LEMAITRE
#......................................................................

# SDVERI='NON' A CAUSE SUR SUR-COUT CPU

M=LIRE_MAILLAGE();

MO=AFFE_MODELE(MAILLAGE=M,
               VERIF='MAILLE',
               AFFE=_F(TOUT='OUI',
                       PHENOMENE='MECANIQUE',
                       MODELISATION='D_PLAN',),);

ACIER=DEFI_MATERIAU(ELAS=_F(E=178600.0,
                            NU=0.3,
                            ALPHA=0.0,),
                    LEMAITRE=_F(N=11.0,
                                UN_SUR_K=0.00032840723,
                                UN_SUR_M=0.178571429,),
                    VISC_ENDO=_F(SY=0.0,
                                 R_D=3.0,
                                 A_D=100000.0,),);



CM=AFFE_MATERIAU(MAILLAGE=M,
                 AFFE=_F(TOUT='OUI',
                         MATER=ACIER,),);
# LES FORCES SONT MULTIPLIEES PAR 2 PAR RAPPORT AU TEST SSNP05A

P30=DEFI_FONCTION(NOM_PARA='INST',
                  VALE=
                  (0.0,0.0,30.0,60.62177826,3630.0,60.62177826,3660.0,121.2435565,7260.0,121.2435565,),
                  PROL_DROITE='LINEAIRE',
                  PROL_GAUCHE='LINEAIRE',);

M30=DEFI_FONCTION(NOM_PARA='INST',
                  VALE=
                  (0.0,0.0,30.0,-60.62177826,3630.0,-60.62177826,3660.0,-121.2435565,7260.0,-121.2435565,),
                  PROL_DROITE='LINEAIRE',
                  PROL_GAUCHE='LINEAIRE',);

M52M30=DEFI_FONCTION(NOM_PARA='INST',
                     VALE=
                     (0.0,0.0,30.0,-165.6217783,3630.0,-165.6217783,3660.0,-121.2435565,7260.0,
                            -121.2435565,),
                     PROL_DROITE='LINEAIRE',
                     PROL_GAUCHE='LINEAIRE',);

M52P30=DEFI_FONCTION(NOM_PARA='INST',
                     VALE=
                     (0.0,0.0,30.0,-44.37822174,3630.0,-44.37822174,3660.0,121.2435565,7260.0,
                            121.2435565,),
                     PROL_DROITE='LINEAIRE',
                     PROL_GAUCHE='LINEAIRE',);

CH1=AFFE_CHAR_MECA(MODELE=MO,
                   DDL_IMPO=(_F(NOEUD='N4',
                                DX=0.0,
                                DY=0.0,),
                             _F(NOEUD='N3',
                                DX=0.0,),),);

CH2=AFFE_CHAR_MECA_F(MODELE=MO,
                     FORCE_NODALE=(_F(NOEUD='N2',
                                      FX=M52P30,
                                      FY=M30,),
                                   _F(NOEUD='N3',
                                      FX=P30,
                                      FY=P30,),
                                   _F(NOEUD='N1',
                                      FX=M52M30,
                                      FY=M30,),
                                   _F(NOEUD='N4',
                                      FX=M30,
                                      FY=P30,),),);

L_INST=DEFI_LIST_REEL(DEBUT=0.0,
                      INTERVALLE=(_F(JUSQU_A=30.0,
                                     NOMBRE=20,),
                                  _F(JUSQU_A=3630.0,
                                     NOMBRE=15,),
                                  _F(JUSQU_A=3660.0,
                                     NOMBRE=3,),
                                  _F(JUSQU_A=3720.0,
                                     NOMBRE=1,),),);

U=STAT_NON_LINE(MODELE=MO,
                CHAM_MATER=CM,
                EXCIT=(_F(CHARGE=CH1,),
                       _F(CHARGE=CH2,),),
                COMP_INCR=_F(RELATION='LEMAITRE',PARM_THETA=0.5,
                             ITER_INTE_MAXI=1000,),
                INCREMENT=_F(LIST_INST=L_INST,),
                NEWTON=_F(MATRICE='TANGENTE',
                          REAC_ITER=1,),
                CONVERGENCE=_F(RESI_GLOB_MAXI=1e-06,
                               ITER_GLOB_MAXI=25,),
                );

U=CALC_CHAMP(reuse=U,RESULTAT=U,CONTRAINTE=('SIGM_ELNO'),VARI_INTERNE=('VARI_ELNO'))


U=CALC_CHAMP(reuse=U,RESULTAT=U,DEFORMATION=('EPSI_ELNO'))


U=CALC_CHAMP(reuse=U,RESULTAT=U,DEFORMATION=('EPSP_ELNO'))


TEST_RESU(RESU=(_F(NUME_ORDRE=20,
                   REFERENCE='AUTRE_ASTER',
                   RESULTAT=U,
                   NOM_CHAM='EPSP_ELNO',
                   NOEUD='N2',
                   NOM_CMP='EPXX',
                   VALE_CALC= 1.76230068E-04,
                   VALE_REFE=1.762E-4,
                   PRECISION=5.0000000000000001E-3,
                   MAILLE='M1',),
                _F(NUME_ORDRE=20,
                   REFERENCE='AUTRE_ASTER',
                   RESULTAT=U,
                   NOM_CHAM='EPSP_ELNO',
                   NOEUD='N2',
                   NOM_CMP='EPXY',
                   VALE_CALC= 1.81582107E-04,
                   VALE_REFE=1.816E-4,
                   PRECISION=5.0000000000000001E-3,
                   MAILLE='M1',),
                _F(NUME_ORDRE=35,
                   REFERENCE='AUTRE_ASTER',
                   RESULTAT=U,
                   NOM_CHAM='EPSP_ELNO',
                   NOEUD='N2',
                   NOM_CMP='EPXX',
                   VALE_CALC= 1.90333757E-03,
                   VALE_REFE=1.903E-3,
                   PRECISION=5.0000000000000001E-3,
                   MAILLE='M1',),
                _F(NUME_ORDRE=35,
                   REFERENCE='AUTRE_ASTER',
                   RESULTAT=U,
                   NOM_CHAM='EPSP_ELNO',
                   NOEUD='N2',
                   NOM_CMP='EPXY',
                   VALE_CALC= 2.07915010E-03,
                   VALE_REFE=2.0790000000000001E-3,
                   PRECISION=5.0000000000000001E-3,
                   MAILLE='M1',),
                _F(NUME_ORDRE=38,
                   REFERENCE='AUTRE_ASTER',
                   RESULTAT=U,
                   NOM_CHAM='EPSP_ELNO',
                   NOEUD='N2',
                   NOM_CMP='EPXX',
                   VALE_CALC= 1.91254001E-03,
                   VALE_REFE=1.913E-3,
                   PRECISION=5.0000000000000001E-3,
                   MAILLE='M1',),
                _F(NUME_ORDRE=38,
                   REFERENCE='AUTRE_ASTER',
                   RESULTAT=U,
                   NOM_CHAM='EPSP_ELNO',
                   NOEUD='N2',
                   NOM_CMP='EPXY',
                   VALE_CALC= 2.19038498E-03,
                   VALE_REFE=2.1900000000000001E-3,
                   PRECISION=5.0000000000000001E-3,
                   MAILLE='M1',),
                _F(NUME_ORDRE=39,
                   REFERENCE='AUTRE_ASTER',
                   RESULTAT=U,
                   NOM_CHAM='EPSP_ELNO',
                   NOEUD='N2',
                   NOM_CMP='EPXX',
                   VALE_CALC= 1.87407384E-03,
                   VALE_REFE=1.874E-3,
                   PRECISION=5.0000000000000001E-3,
                   MAILLE='M1',),
                _F(NUME_ORDRE=39,
                   REFERENCE='AUTRE_ASTER',
                   RESULTAT=U,
                   NOM_CHAM='EPSP_ELNO',
                   NOEUD='N2',
                   NOM_CMP='EPXY',
                   VALE_CALC= 3.18143490E-03,
                   VALE_REFE=3.1809999999999998E-3,
                   PRECISION=5.0000000000000001E-3,
                   MAILLE='M1',),
                ),
          )

L_INST2=DEFI_LIST_REEL(DEBUT=0.0,
                       INTERVALLE=(_F(JUSQU_A=30.0,
                                      NOMBRE=200,),
                                   _F(JUSQU_A=3630.0,
                                      NOMBRE=155,),
                                   _F(JUSQU_A=3660.0,
                                      NOMBRE=130,),
                                   _F(JUSQU_A=3720.0,
                                      NOMBRE=110,),),);

U2=STAT_NON_LINE(MODELE=MO,
                 CHAM_MATER=CM,
                 EXCIT=(_F(CHARGE=CH1,),
                        _F(CHARGE=CH2,),),
                 COMP_INCR=_F(RELATION='VISC_ENDO_LEMA',
                              ALGO_INTE='BRENT',
                              ITER_INTE_MAXI=20),
                 INCREMENT=_F(LIST_INST=L_INST2,
                              INST_FIN=30.0,),
                 NEWTON=_F(PREDICTION='EXTRAPOLE',
                           MATRICE='TANGENTE',
                           REAC_ITER=1,),
                 CONVERGENCE=_F(RESI_GLOB_RELA=1e-06,
                                ITER_GLOB_MAXI=25,),);

U2=CALC_CHAMP(reuse=U2,RESULTAT=U2,CONTRAINTE=('SIGM_ELNO'),VARI_INTERNE=('VARI_ELNO'))


U2=CALC_CHAMP(reuse=U2,RESULTAT=U2,DEFORMATION=('EPSI_ELNO'))


U2=CALC_CHAMP(reuse=U2,RESULTAT=U2,DEFORMATION=('EPSP_ELNO'))


TEST_RESU(RESU=(_F(INST=30.0,
                   REFERENCE='AUTRE_ASTER',
                   RESULTAT=U2,
                   NOM_CHAM='EPSP_ELNO',
                   NOEUD='N2',
                   NOM_CMP='EPXX',
                   VALE_CALC= 1.77275564E-04,
                   VALE_REFE=1.762E-4,
                   PRECISION=7.0000000000000001E-3, TOLE_MACHINE=(7.0000000000000001E-3, 9.9999999999999995E-08),
                   MAILLE='M1',),
                _F(INST=30.0,
                   REFERENCE='AUTRE_ASTER',
                   RESULTAT=U2,
                   NOM_CHAM='EPSP_ELNO',
                   NOEUD='N2',
                   NOM_CMP='EPXY',
                   VALE_CALC= 1.82685086E-04,
                   VALE_REFE=1.816E-4,
                   PRECISION=7.0000000000000001E-3, TOLE_MACHINE=(7.0000000000000001E-3, 9.9999999999999995E-08),
                   MAILLE='M1',),
                ),
          )

FIN();
#
