# ======================================================================
# COPYRIGHT (C) 1991 - 2016  EDF R&D                  WWW.CODE-ASTER.ORG
# THIS PROGRAM IS FREE SOFTWARE; YOU CAN REDISTRIBUTE IT AND/OR MODIFY
# IT UNDER THE TERMS OF THE GNU GENERAL PUBLIC LICENSE AS PUBLISHED BY
# THE FREE SOFTWARE FOUNDATION; EITHER VERSION 2 OF THE LICENSE, OR
# (AT YOUR OPTION) ANY LATER VERSION.
#
# THIS PROGRAM IS DISTRIBUTED IN THE HOPE THAT IT WILL BE USEFUL, BUT
# WITHOUT ANY WARRANTY; WITHOUT EVEN THE IMPLIED WARRANTY OF
# MERCHANTABILITY OR FITNESS FOR A PARTICULAR PURPOSE. SEE THE GNU
# GENERAL PUBLIC LICENSE FOR MORE DETAILS.
#
# YOU SHOULD HAVE RECEIVED A COPY OF THE GNU GENERAL PUBLIC LICENSE
# ALONG WITH THIS PROGRAM; IF NOT, WRITE TO EDF R&D CODE_ASTER,
#    1 AVENUE DU GENERAL DE GAULLE, 92141 CLAMART CEDEX, FRANCE.
# ======================================================================
#    RECTANGULAIRE FINIE SOUMISE A FLEXION CISAILLANTE - EX SSNP310
#

DEBUT(CODE=_F(NIV_PUB_WEB='INTERNET'),DEBUG=_F(SDVERI='OUI'))

MA=LIRE_MAILLAGE(VERI_MAIL=_F(VERIF='OUI'),FORMAT='MED', )

MO=AFFE_MODELE(MAILLAGE=MA,
               AFFE=_F( TOUT = 'OUI',
                        PHENOMENE = 'MECANIQUE',
                        MODELISATION = 'C_PLAN'))

MAT=DEFI_MATERIAU(ELAS=_F(E = 2.0601E5, NU = 0.3, ALPHA = 0.),
                  ECRO_LINE=_F(  D_SIGM_EPSI = 0., SY = 808.344)
                         )

CHMAT=AFFE_MATERIAU(  MAILLAGE=MA,AFFE=_F(  TOUT = 'OUI',MATER = MAT))

MA=DEFI_GROUP( reuse=MA,   MAILLAGE=MA,
                     CREA_GROUP_NO=(_F(GROUP_MA = ( 'LPOP11',  'LPOP8', 'LP9P10', )),
                                    _F(NOM = 'NTEST',
                                       OPTION='ENV_SPHERE',
                                       POINT=(-6., 0.),
                                       PRECISION=0.0001,
                                       RAYON=0.0001),),
                )

CL=AFFE_CHAR_MECA(  MODELE=MO,
            DDL_IMPO=(_F(  GROUP_NO = 'LPOP11', DY = 0.,),
                      _F(  GROUP_NO = 'PB', DX = 0.),),)

CH=AFFE_CHAR_MECA(  MODELE=MO,
            DDL_IMPO=_F(  GROUP_NO = 'LP9P10', DY = 1.),)

RAMPE=DEFI_FONCTION(  NOM_PARA='INST',
                        VALE=(0.,0.,1.,1.,),
                        PROL_DROITE='LINEAIRE'
                      )

L_INST=DEFI_LIST_REEL(DEBUT=0.,
                      INTERVALLE=_F( JUSQU_A = 0.1,  NOMBRE = 150)
                        )

CHAMDEP=STAT_NON_LINE( MODELE=MO,
                       CHAM_MATER=CHMAT,
                       EXCIT=(_F(CHARGE = CL),
                              _F(CHARGE = CH,
                                 FONC_MULT = RAMPE)),
                       COMPORTEMENT=_F(RELATION = 'ELAS_VMIS_LINE',
                                    DEFORMATION = 'PETIT'),
                       INCREMENT=_F(LIST_INST = L_INST,),
                       NEWTON=_F(MATRICE = 'TANGENTE',
                                 REAC_ITER = 1),
                       CONVERGENCE=_F(RESI_GLOB_RELA = 1.E-5),
                       SOLVEUR=_F(METHODE = 'MULT_FRONT'),
                       ARCHIVAGE = _F(LIST_INST=L_INST,),

                     );

TABDEP= POST_RELEVE_T ( ACTION =_F(INTITULE   = 'DEPLACEMENT_FISSURE',
                                   GROUP_NO   = 'NTEST',
                                   RESULTAT   = CHAMDEP,
                                   NOM_CHAM   = 'DEPL',
                                   NOM_CMP    = ( 'DX','DY',),
                                   OPERATION  = 'EXTRACTION',),);

IMPR_TABLE(TABLE=TABDEP,);

# CETTE VALEUR A ETE OBTENUE PAR LA VERSION 9.0.11
DEPREF=9.8756898959655e-02;

TEST_TABLE(CRITERE='RELATIF',
           VALE_CALC=0.0987568989717,
           NOM_PARA='DY',
           TABLE=TABDEP,
           FILTRE=_F(NOM_PARA='NUME_ORDRE',
                     VALE_I=150,),
           )

FOND=DEFI_FOND_FISS(    MAILLAGE=MA,
                        FOND_FISS=_F( GROUP_NO = ('P0',)),
                        SYME='OUI',
                        LEVRE_SUP=_F(MAILLE='M458'),
                      )

# TEST CALC_G  AVEC 3 COURONNES
# ------------------------------




G_0=CALC_G( THETA=_F(
                     R_INF=0.15,
                     FOND_FISS=FOND,
                     MODULE=1.,
                     R_SUP=0.6,
                     DIRECTION=(1., 0., 0.,)),
            RESULTAT=CHAMDEP,
            TOUT_ORDRE='OUI',
            );

IMPR_TABLE(TABLE=G_0,);

LISTG = (30, 60,90,120,150);
G_1=CALC_G( THETA=_F(
                     R_INF=0.3,
                     FOND_FISS=FOND,
                     MODULE=1.,
                     R_SUP=0.9,
                     DIRECTION=(1., 0., 0.,)),
            RESULTAT=CHAMDEP,
            NUME_ORDRE=LISTG,
            );

IMPR_TABLE(TABLE=G_1,);

G_2=CALC_G( THETA=_F(
                     R_INF=0.9,
                     FOND_FISS=FOND,
                     MODULE=1.,
                     R_SUP=1.5,
                     DIRECTION=(1., 0., 0.,)),
            RESULTAT=CHAMDEP,
            NUME_ORDRE=LISTG,
            );

IMPR_TABLE(TABLE=G_2,);
#
# TEST
TEST_TABLE(
           VALE_CALC=3.29080902189,

           NOM_PARA='G',
           TABLE=G_0,
           FILTRE=_F(NOM_PARA='NUME_ORDRE',
                     VALE_I=30,),
           )

TEST_TABLE(
           VALE_CALC=13.6031881014,

           NOM_PARA='G',
           TABLE=G_0,
           FILTRE=_F(NOM_PARA='NUME_ORDRE',
                     VALE_I=60,),
           )

TEST_TABLE(
           VALE_CALC=31.9703747494,

           NOM_PARA='G',
           TABLE=G_0,
           FILTRE=_F(NOM_PARA='NUME_ORDRE',
                     VALE_I=90,),
           )

TEST_TABLE(
           VALE_CALC=58.9936139158,

           NOM_PARA='G',
           TABLE=G_0,
           FILTRE=_F(NOM_PARA='NUME_ORDRE',
                     VALE_I=120,),
           )

TEST_TABLE(
           VALE_CALC=91.415076304,

           NOM_PARA='G',
           TABLE=G_0,
           FILTRE=_F(NOM_PARA='NUME_ORDRE',
                     VALE_I=150,),
           )

TEST_TABLE(
           VALE_CALC=3.20139306069,

           NOM_PARA='G',
           TABLE=G_1,
           FILTRE=_F(NOM_PARA='NUME_ORDRE',
                     VALE_I=30,),
           )

TEST_TABLE(
           VALE_CALC=13.2375273565,

           NOM_PARA='G',
           TABLE=G_1,
           FILTRE=_F(NOM_PARA='NUME_ORDRE',
                     VALE_I=60,),
           )

TEST_TABLE(
           VALE_CALC=31.2270476743,

           NOM_PARA='G',
           TABLE=G_1,
           FILTRE=_F(NOM_PARA='NUME_ORDRE',
                     VALE_I=90,),
           )

TEST_TABLE(
           VALE_CALC=57.7456446727,

           NOM_PARA='G',
           TABLE=G_1,
           FILTRE=_F(NOM_PARA='NUME_ORDRE',
                     VALE_I=120,),
           )

TEST_TABLE(
           VALE_CALC=89.6371675773,

           NOM_PARA='G',
           TABLE=G_1,
           FILTRE=_F(NOM_PARA='NUME_ORDRE',
                     VALE_I=150,),
           )

TEST_TABLE(
           VALE_CALC=3.2017793873,

           NOM_PARA='G',
           TABLE=G_2,
           FILTRE=_F(NOM_PARA='NUME_ORDRE',
                     VALE_I=30,),
           )

TEST_TABLE(
           VALE_CALC=13.2413931298,

           NOM_PARA='G',
           TABLE=G_2,
           FILTRE=_F(NOM_PARA='NUME_ORDRE',
                     VALE_I=60,),
           )

TEST_TABLE(
           VALE_CALC=31.2363166204,

           NOM_PARA='G',
           TABLE=G_2,
           FILTRE=_F(NOM_PARA='NUME_ORDRE',
                     VALE_I=90,),
           )

TEST_TABLE(
           VALE_CALC=57.7674679196,

           NOM_PARA='G',
           TABLE=G_2,
           FILTRE=_F(NOM_PARA='NUME_ORDRE',
                     VALE_I=120,),
           )

TEST_TABLE(
           VALE_CALC=89.7083367603,

           NOM_PARA='G',
           TABLE=G_2,
           FILTRE=_F(NOM_PARA='NUME_ORDRE',
                     VALE_I=150,),
           )

FIN()
#
