# TITRE CONTACT EN GRANDS GLISSEMENTS AVEC X-FEM POUR DES FISSURES
# ======================================================================
# COPYRIGHT (C) 1991 - 2013  EDF R&D                  WWW.CODE-ASTER.ORG
# THIS PROGRAM IS FREE SOFTWARE; YOU CAN REDISTRIBUTE IT AND/OR MODIFY
# IT UNDER THE TERMS OF THE GNU GENERAL PUBLIC LICENSE AS PUBLISHED BY
# THE FREE SOFTWARE FOUNDATION; EITHER VERSION 2 OF THE LICENSE, OR
# (AT YOUR OPTION) ANY LATER VERSION.
#
# THIS PROGRAM IS DISTRIBUTED IN THE HOPE THAT IT WILL BE USEFUL, BUT
# WITHOUT ANY WARRANTY; WITHOUT EVEN THE IMPLIED WARRANTY OF
# MERCHANTABILITY OR FITNESS FOR A PARTICULAR PURPOSE. SEE THE GNU
# GENERAL PUBLIC LICENSE FOR MORE DETAILS.
#
# YOU SHOULD HAVE RECEIVED A COPY OF THE GNU GENERAL PUBLIC LICENSE
# ALONG WITH THIS PROGRAM; IF NOT, WRITE TO EDF R&D CODE_ASTER,
#    1 AVENUE DU GENERAL DE GAULLE, 92141 CLAMART CEDEX, FRANCE.
# ======================================================================
#
# CONTACT-FROTTANT EN GRANDS GLISSEMENTS
# AVEC XFEM POUR DES FISSURES HORIZONTALES
#

DEBUT(CODE=_F(NIV_PUB_WEB='INTERNET'),DEBUG=_F(SDVERI='OUI'));

typma=1

if (typma==1):
  MAILLAG2=LIRE_MAILLAGE(INFO=1,FORMAT='MED');
  Y=3

if (typma==2):
  MAILLAG1=LIRE_MAILLAGE(INFO=1,FORMAT='MED');
  MAILLAG2=CREA_MAILLAGE(MAILLAGE=MAILLAG1,
                       LINE_QUAD=_F(GROUP_MA='SURF'));
  Y=2.5

MAILLAG2=DEFI_GROUP(reuse =MAILLAG2,
                    MAILLAGE=MAILLAG2,
                    CREA_GROUP_NO =(_F(NOM = 'NFISSU',
                                       OPTION = 'PLAN',
                                       POINT  = (0.0,Y),
                                       VECT_NORMALE = (0.0,1.0),
                                       PRECISION = 1E-1)))

MODELEIN=AFFE_MODELE(MAILLAGE=MAILLAG2,
                     AFFE=(_F(GROUP_MA=('SURF'),
                              PHENOMENE='MECANIQUE',
                              MODELISATION='D_PLAN')));

LN1=FORMULE(NOM_PARA=('X','Y'),VALE='Y-2.5');
LN2=FORMULE(NOM_PARA=('X','Y'),VALE='-Y+6.5');

FISS1=DEFI_FISS_XFEM(MAILLAGE=MAILLAG2,
                     TYPE_DISCONTINUITE='INTERFACE',
                     DEFI_FISS=_F(FONC_LN=LN1),
                     )

FISS2=DEFI_FISS_XFEM(MAILLAGE=MAILLAG2,
                     TYPE_DISCONTINUITE='INTERFACE',
                     DEFI_FISS=_F(FONC_LN=LN2),
                     )

MODELEK=MODI_MODELE_XFEM(MODELE_IN=MODELEIN,
                         FISSURE=(FISS1,FISS2),
                         CONTACT='OUI',
                         INFO=1);

CTXFEM = DEFI_CONTACT(MODELE         = MODELEK,
                      FORMULATION    = 'XFEM',
                      REAC_GEOM      = 'AUTOMATIQUE',
                      ITER_FROT_MAXI = 10,
                      ITER_CONT_MAXI = 10,
                      ITER_GEOM_MAXI = 10,ELIM_ARETE     = 'ELIM',
                      FROTTEMENT     = 'COULOMB',
                      ZONE = (_F(
                                 INTEGRATION   = 'NOEUD',
                                 COULOMB       = 0.5,
                                 TOLE_PROJ_EXT = 0.0,
                                 CONTACT_INIT  = 'OUI',
                                 GLISSIERE     = 'NON',
                                 FISS_MAIT     = FISS1,
                                 ALGO_LAGR     = 'VERSION1',
                              ),
                             _F(
                                 INTEGRATION   = 'NOEUD',
                                 COULOMB       = 0.5,
                                 TOLE_PROJ_EXT = 0.0,
                                 CONTACT_INIT  = 'OUI',
                                 GLISSIERE     = 'NON',
                                 FISS_MAIT     = FISS2,
                                 ALGO_LAGR     = 'VERSION1',
                              ),
                            )
                    );


E=100.0E6
nu=0.3
ACIER=DEFI_MATERIAU(ELAS=_F(E=E,
                            NU=nu,
                            RHO=7800.0));

CHAMPMAT=AFFE_MATERIAU(MAILLAGE=MAILLAG2,
                       MODELE=MODELEK,
                       AFFE=_F(TOUT='OUI',
                                MATER=ACIER));

DEPX=2.00
DEPY=1.E-3
ZERO=0.0

CH1=AFFE_CHAR_MECA(MODELE=MODELEK,
                   DDL_IMPO=(_F(GROUP_MA='LIGINF',
                                          DY=DEPY),
                             _F(GROUP_MA='LIGSUP',
                                          DY=-DEPY),
                             _F(GROUP_NO=('P1','P2','P3','P4'),
                                DX=0.0)),
                   INFO=1);

CH2=AFFE_CHAR_MECA(MODELE=MODELEK,
                   DDL_IMPO=(_F(NOEUD=('N21','N22','N23','N24'),
                                DX=DEPX,
                                ),
                             ),
                   # CONDITIONS IMPOSEES A LA MAIN
                   # POUR LES MAILLES XFEM INFERIEURE
                   # ET SUPERIEURE
                   LIAISON_DDL=(_F(NOEUD=('N20','N20'),
                                   DDL=('DX','H1X'),
                                   COEF_MULT=(1,1),
                                   COEF_IMPO=DEPX),
                                _F(NOEUD=('N25','N25'),
                                   DDL=('DX','H1X'),
                                   COEF_MULT=(1,1),
                                   COEF_IMPO=DEPX),
                                ),
                    INFO=1);

VAR1=DEFI_FONCTION(NOM_PARA='INST',
                    VALE=(0.,0.,1.,1.),
                    );

VAR2=DEFI_FONCTION(NOM_PARA='INST',
                    VALE=(0.,0.,1.,1.),
                    );


L_INST=DEFI_LIST_REEL(DEBUT=0.0,
                      INTERVALLE=_F(JUSQU_A=1.0,
                                    NOMBRE=4));

UTOT1=STAT_NON_LINE(MODELE=MODELEK,INFO=1,
                    CHAM_MATER=CHAMPMAT,
                    CONTACT = CTXFEM,
                    EXCIT=(_F(CHARGE=CH1,FONC_MULT=VAR1),
                           _F(CHARGE=CH2,FONC_MULT=VAR2)),
                    COMPORTEMENT=_F(RELATION='ELAS',
                                 GROUP_MA='SURF'),
                    INCREMENT=_F(LIST_INST=L_INST),
                    CONVERGENCE=(_F(ITER_GLOB_MAXI=20,
                                    RESI_GLOB_MAXI=1E-06
                                    )),
                    NEWTON=_F(REAC_ITER=1),
                    SOLVEUR=_F(METHODE='MUMPS',

                               NPREC=-1),
                    ARCHIVAGE=_F(CHAM_EXCLU='VARI_ELGA'),
                    );

LAG=[None]*5
inst=[0.0,0.25,0.5,0.75,1.0]

vale = [[0.0,-8.1059677419895E+03,-6.4501079962162E+03,-6.4542488547963E+03,-4.1383234820701E+03],
        [0.0,-1.0392387701211E+04,-1.3120233647294E+04,-1.1868000225318E+04,-8.7124511077385E+03],
        [0.0,0.0,-2.1971032705744E+04,-1.8731886517003E+04,-1.1800264974966E+04],
        [0.0,0.0,-1.9159216181349E+04,-2.3596466885199E+04,-1.7951777872766E+04]]

#vale = [[0.0,-8.2318426772263E+03,-6.3690747415476E+03,-6.4300888224696E+03,-4.0794459673115E+03],
#        [0.0,-1.0605073124532E+04,-1.3046818405580E+04,-1.1796897408502E+04,-8.5688582786312E+03],
#        [0.0,0.0,-2.2167189670823E+04,-1.8735268291927E+04,-1.1431030978517E+04],
#        [0.0,0.0,-1.9530883294731E+04,-2.3604277746617E+04,-1.7514909721815E+04]]

VALE_CALC=[
[ 0.0E+00,
 -8105.9650611582,
 -6450.101220026,
 -6454.2560206819,
 -4138.3189320614,],
[ 0.0E+00,
 -10392.373998211,
 -13120.386218687,
 -11868.32915857,
 -8712.6645749512,],
[ 0.0E+00,
 0.0E+00,
 -21971.837298094,
 -18732.862768388,
 -11800.799404265,],
[ 0.0E+00,
 0.0E+00,
 -19161.426435694,
 -23597.877040122,
 -17952.663352677,],
]

for i in [1,2,3,4]: #Boucle sur les increments
   LAG[i]=POST_RELEVE_T(ACTION=_F(INTITULE='DEPLE',
                                         GROUP_NO=('NFISSU'),
                                         RESULTAT=UTOT1,
                                         NOM_CHAM='DEPL',
                                         INST=inst[i],
                                         NOM_CMP=('LAGS_C','LAGS_F1'),
                                         OPERATION='EXTRACTION'));
   IMPR_TABLE(TABLE=LAG[i],
              FORMAT='AGRAF',
              FORMAT_R='1PE12.7',
              NOM_PARA=('NOEUD','INST','COOR_X','LAGS_C','LAGS_F1'),
              IMPR_FONCTION='NON',
              TRI=_F(NOM_PARA=('COOR_X'),
                     ORDRE='CROISSANT'));

   for j in [0,1,2,3,4]: #Boucle sur les positions testees
      if (vale[i-1] [j] == 0.0):
        precision = 1.0E-10
        critere = 'ABSOLU'
      else:
        precision = 5.E-2
        critere = 'RELATIF'
      TEST_TABLE(TABLE=LAG[i],
                 NOM_PARA='LAGS_C',
                 VALE_CALC=VALE_CALC[i-1] [j], VALE_REFE=vale[i-1] [j],
                 CRITERE=critere,
                 PRECISION=precision,
                 REFERENCE='AUTRE_ASTER',
                 FILTRE=_F(NOM_PARA='COOR_X',
                           CRIT_COMP='EQ',
                           VALE=j,
                           PRECISION=0.03,
                           CRITERE='ABSOLU'));

FIN();
