# MODIF  DATE 09/07/2012   AUTEUR PELLET J.PELLET 
# TITRE BENCHMARK NAFEMS DE VALIDATION DU CONTACT 4 LOADED PIN
# ssnp156c.para = tps_job 60 mem_job 128Mo ncpus 1 liste_test S
#            CONFIGURATION MANAGEMENT OF EDF VERSION
# ======================================================================
# COPYRIGHT (C) 1991 - 2012  EDF R&D                  WWW.CODE-ASTER.ORG
# THIS PROGRAM IS FREE SOFTWARE; YOU CAN REDISTRIBUTE IT AND/OR MODIFY
# IT UNDER THE TERMS OF THE GNU GENERAL PUBLIC LICENSE AS PUBLISHED BY
# THE FREE SOFTWARE FOUNDATION; EITHER VERSION 2 OF THE LICENSE, OR
# (AT YOUR OPTION) ANY LATER VERSION.
#
# THIS PROGRAM IS DISTRIBUTED IN THE HOPE THAT IT WILL BE USEFUL, BUT
# WITHOUT ANY WARRANTY; WITHOUT EVEN THE IMPLIED WARRANTY OF
# MERCHANTABILITY OR FITNESS FOR A PARTICULAR PURPOSE. SEE THE GNU
# GENERAL PUBLIC LICENSE FOR MORE DETAILS.
#
# YOU SHOULD HAVE RECEIVED A COPY OF THE GNU GENERAL PUBLIC LICENSE
# ALONG WITH THIS PROGRAM; IF NOT, WRITE TO EDF R&D CODE_ASTER,
#    1 AVENUE DU GENERAL DE GAULLE, 92141 CLAMART CEDEX, FRANCE.
# ======================================================================

DEBUT(CODE=_F(NOM='SSNP156C',NIV_PUB_WEB='INTERNET',),DEBUG=_F(SDVERI='OUI'))

MESH=LIRE_MAILLAGE(FORMAT='MED',);

MESH=MODI_MAILLAGE(reuse =MESH,
                   MAILLAGE=MESH,
                   ORIE_PEAU_2D=(_F(GROUP_MA='Master',),
                                 _F(GROUP_MA='Slave',),),);

MAT_pi=DEFI_MATERIAU(ELAS=_F(E=210000.0,
                             NU=0.3,),);

MAT_sh=DEFI_MATERIAU(ELAS=_F(E=70000.0,
                             NU=0.3,),);

FONC=DEFI_FONCTION(NOM_PARA='INST',VALE=(0.0,0.0,
                         1.0,1.0,
                         ),PROL_DROITE='EXCLU',PROL_GAUCHE='EXCLU',);

L_INST=DEFI_LIST_REEL(DEBUT=0.0,
                      INTERVALLE=_F(JUSQU_A=1.0,
                                    NOMBRE=10,),);

LINST=DEFI_LIST_INST(DEFI_LIST=_F(METHODE='MANUEL',
                                  LIST_INST=L_INST,),
                     ECHEC=_F(SUBD_PAS=4,
                              SUBD_NIVEAU=3,),);

MO=AFFE_MODELE(MAILLAGE=MESH,
               AFFE=_F(GROUP_MA=('Sheet','Pin',),
                       PHENOMENE='MECANIQUE',
                       MODELISATION='D_PLAN',),);

MA=AFFE_MATERIAU(MAILLAGE=MESH,
                 AFFE=(_F(GROUP_MA='Sheet',
                          MATER=MAT_sh,),
                       _F(GROUP_MA='Pin',
                          MATER=MAT_pi,),),);

CL=AFFE_CHAR_CINE(MODELE=MO,
                  MECA_IMPO=(_F(GROUP_MA='Encast',
                                DX=0.0,
                                DY=0.0,),
                             _F(GROUP_MA='Axe',
                                DY=0.0,),),);

BLOQ=AFFE_CHAR_MECA(MODELE=MO,
                    LIAISON_DDL=_F(GROUP_NO=('Pf','Sf',),
                                   DDL=('DX','DX',),
                                   COEF_MULT=(-1,+1),
                                   COEF_IMPO=0.0,),);

CH=AFFE_CHAR_MECA(MODELE=MO,
                  FORCE_NODALE=_F(GROUP_NO='F',
                                  FX=10000.0,),);

COND=DEFI_CONTACT(MODELE=MO,
                  FORMULATION='DISCRETE',
                  FROTTEMENT='COULOMB',
                  ZONE=_F(GROUP_MA_MAIT='Master',
                          GROUP_MA_ESCL='Slave',
                          COULOMB=0.1,
                          ALGO_CONT='LAGRANGIEN',
                          ALGO_FROT='LAGRANGIEN',
                          ),);

RESU=STAT_NON_LINE(MODELE=MO,
                   CHAM_MATER=MA,
                   EXCIT=(_F(CHARGE=CL,),
                          _F(CHARGE=BLOQ,),
                          _F(CHARGE=CH,
                             FONC_MULT=FONC,),),
                   CONTACT=COND,
                   COMP_INCR=_F(RELATION='ELAS',
                                DEFORMATION='GROT_GDEP',),
                   INCREMENT=_F(LIST_INST=LINST,),
                   CONVERGENCE=_F(ITER_GLOB_MAXI=50,
                                  ),
                   SOLVEUR=_F(SYME='OUI',
                              METHODE='MUMPS',
                              ),
                   NEWTON=_F(MATRICE='TANGENTE',
                             REAC_ITER=1,),);

FIN()
