# TITRE ESSAI DE TRACTION-CISAILLEMENT (MISES ECROUISSAGE CINEMATIQUE)
# ======================================================================
# COPYRIGHT (C) 1991 - 2012  EDF R&D                  WWW.CODE-ASTER.ORG
# THIS PROGRAM IS FREE SOFTWARE; YOU CAN REDISTRIBUTE IT AND/OR MODIFY
# IT UNDER THE TERMS OF THE GNU GENERAL PUBLIC LICENSE AS PUBLISHED BY
# THE FREE SOFTWARE FOUNDATION; EITHER VERSION 2 OF THE LICENSE, OR
# (AT YOUR OPTION) ANY LATER VERSION.
#
# THIS PROGRAM IS DISTRIBUTED IN THE HOPE THAT IT WILL BE USEFUL, BUT
# WITHOUT ANY WARRANTY; WITHOUT EVEN THE IMPLIED WARRANTY OF
# MERCHANTABILITY OR FITNESS FOR A PARTICULAR PURPOSE. SEE THE GNU
# GENERAL PUBLIC LICENSE FOR MORE DETAILS.
#
# YOU SHOULD HAVE RECEIVED A COPY OF THE GNU GENERAL PUBLIC LICENSE
# ALONG WITH THIS PROGRAM; IF NOT, WRITE TO EDF R&D CODE_ASTER,
#    1 AVENUE DU GENERAL DE GAULLE, 92141 CLAMART CEDEX, FRANCE.
# ======================================================================
#......................................................................
# PLAQUE CARREE EN TRACTION CISAILLEMENT CALCUL 3D
# ELASTOPLASTICITE  CINEMATIQUE VON MISES
#......................................................................

DEBUT(CODE=_F(
              NIV_PUB_WEB='INTERNET',),
DEBUG=_F(SDVERI='NON'))
# SDVERI='NON' car la verification est trop couteuse en CPU

MA=LIRE_MAILLAGE();

MO=AFFE_MODELE(MAILLAGE=MA,
               VERIF='MAILLE',
               AFFE=_F(TOUT='OUI',
                       PHENOMENE='MECANIQUE',
                       MODELISATION='3D',),);

ACIER=DEFI_MATERIAU(ELAS=_F(E=195000.,
                            NU=0.3,),
                    ECRO_LINE=_F(D_SIGM_EPSI=1930.,
                                 SY=181.,),
                    PRAGER=_F(C=2./3.*195000.*1930./(195000.-1930.),),
                             CIN1_CHAB=_F(
                                 R_0 = 181.,
                                 R_I = 181.,
                                 B = 0.,
                                 C_I = 1930.,
                                 G_0 = 0.,
                                    ),
                             CIN2_CHAB=_F(
                                 R_0 = 181.,
                                 R_I = 181.,
                                 B = 0.,
                                 C1_I = 1930.*0.5,
                                 C2_I = 1930.*0.5,
                                 G1_0 = 0.,
                                 G2_0 = 0.,
                                    ),
                    );

CM=AFFE_MATERIAU(MAILLAGE=MA,
                 AFFE=_F(TOUT='OUI',
                         MATER=ACIER,),);

SIGMA_F=DEFI_FONCTION(NOM_PARA='INST',VALE=(0.0,0.0,
                            1.0,151.2,
                            2.0,257.2,
                            3.0,259.3,
                            4.0,0.0,
                            ),PROL_DROITE='EXCLU',PROL_GAUCHE='EXCLU',);

TAU_F=DEFI_FONCTION(NOM_PARA='INST',VALE=(0.0,0.0,
                          1.0,93.1,
                          2.0,33.1,
                          3.0,0.0,
                          4.0,0.0,
                          ),PROL_DROITE='EXCLU',PROL_GAUCHE='EXCLU',);

TRACTION=AFFE_CHAR_MECA(MODELE=MO,
                        FORCE_FACE=_F(MAILLE='GAUCHE',
                                      FX=-1.,),);

CISAIL=AFFE_CHAR_MECA(MODELE=MO,
                      FORCE_FACE=(_F(MAILLE='GAUCHE',
                                     FY=-1.,),
                                  _F(MAILLE='DROITE',
                                     FY=1.,),
                                  _F(MAILLE='HAUT',
                                     FX=1.,),
                                  _F(MAILLE='BAS',
                                     FX=-1.,),),);

LIAISON=AFFE_CHAR_MECA(MODELE=MO,
                       DDL_IMPO=(_F(NOEUD='NO4',
                                    DX=0.,
                                    DY=0.,),
                                 _F(NOEUD='NO8',
                                    DX=0.,
                                    DY=0.,
                                    DZ=0.,),
                                 _F(NOEUD='NO2',
                                    DX=0.,),
                                 _F(NOEUD='NO6',
                                    DX=0.,),),);

L_INST=DEFI_LIST_REEL(DEBUT=0.0,
                      INTERVALLE=(_F(JUSQU_A=0.1,
                                     NOMBRE=1,),
                                  _F(JUSQU_A=0.9,
                                     NOMBRE=1,),
                                  _F(JUSQU_A=1.0,
                                     NOMBRE=1,),
                                  _F(JUSQU_A=2.0,
                                     NOMBRE=30,),
                                  _F(JUSQU_A=3.0,
                                     NOMBRE=30,),
                                  _F(JUSQU_A=4.0,
                                     NOMBRE=1,),),);


U=STAT_NON_LINE(MODELE=MO,
                CHAM_MATER=CM,
                EXCIT=(_F(CHARGE=LIAISON,),
                       _F(CHARGE=TRACTION,
                          FONC_MULT=SIGMA_F,),
                       _F(CHARGE=CISAIL,
                          FONC_MULT=TAU_F,),),
                COMPORTEMENT=_F(RELATION='VMIS_CINE_LINE',),
                INCREMENT=_F(LIST_INST=L_INST,),
                NEWTON=_F(MATRICE='TANGENTE',REAC_ITER=3,),
                RECH_LINEAIRE=_F(ITER_LINE_MAXI=5,),
                CONVERGENCE=_F(ITER_GLOB_MAXI=21,),
                  SUIVI_DDL=(
                              _F(NOM_CMP    ='SIXX',
                                 NOM_CHAM   ='SIEF_ELGA',
                                 TOUT       = 'OUI',
                                 EVAL_ELGA  ='MAX',
                                 EVAL_CHAM ='MAX',),
                              _F(NOM_CMP    ='SIXY',
                                 NOM_CHAM   ='SIEF_ELGA',
                                 TOUT       = 'OUI',
                                 EVAL_ELGA  ='MAX',
                                 EVAL_CHAM ='MAX',),
                              _F(NOM_CMP    ='V1',
                                 NOM_CHAM   ='VARI_ELGA',
                                 TOUT       = 'OUI',
                                 EVAL_ELGA  ='MAX',
                                 EVAL_CHAM ='MAX',),
                              _F(NOM_CMP    ='V4',
                                 NOM_CHAM   ='VARI_ELGA',
                                 TOUT       = 'OUI',
                                 EVAL_ELGA  ='MAX',
                                 EVAL_CHAM ='MAX',),
                                 ),
                );


U=CALC_CHAMP(reuse=U,RESULTAT=U,CRITERES=('DERA_ELNO'),VARI_INTERNE=('VARI_ELNO'),DEFORMATION=('EPSI_ELNO'))



U=CALC_CHAMP(reuse =U,
          RESULTAT=U,
          INST=1.,
          VARI_INTERNE='VARI_NOEU',);

U=CALC_CHAMP(reuse=U,RESULTAT=U,CRITERES=('DERA_ELGA'))


VARI=CREA_CHAMP(TYPE_CHAM='ELNO_VARI_R',
                OPERATION='EXTR',
                RESULTAT=U,
                NOM_CHAM='VARI_ELNO',
                INST=1.,);

VARI_N=CREA_CHAMP(TYPE_CHAM='NOEU_VAR2_R',
                  OPERATION='EXTR',
                  RESULTAT=U,
                  NOM_CHAM='VARI_NOEU',
                  INST=1.,);

TEST_RESU(CHAM_ELEM=_F(NOEUD='NO2',
                       NOM_CMP='V2',
                       MAILLE='CUBE',
                       CHAM_GD=VARI,
                       VALE_CALC=-9.1320017195001,),
          )

TEST_RESU(RESU=(_F(INST=1.0,
                   RESULTAT=U,
                   NOM_CHAM='EPSI_ELNO',
                   NOEUD='NO2',
                   NOM_CMP='EPXX',
                   VALE_CALC=0.014829713606886,
                   MAILLE='CUBE',),
                _F(INST=1.0,
                   RESULTAT=U,
                   NOM_CHAM='EPSI_ELNO',
                   NOEUD='NO2',
                   NOM_CMP='EPXY',
                   VALE_CALC=0.013601401082429,
                   MAILLE='CUBE',),
                _F(INST=1.0,
                   RESULTAT=U,
                   NOM_CHAM='VARI_ELNO',
                   NOEUD='NO2',
                   NOM_CMP='V1',
                   VALE_CALC=18.264003439,
                   MAILLE='CUBE',),
                _F(INST=1.0,
                   RESULTAT=U,
                   NOM_CHAM='VARI_ELNO',
                   NOEUD='NO2',
                   NOM_CMP='V4',
                   VALE_CALC=16.868836509632,
                   MAILLE='CUBE',),
                _F(INST=2.0,
                   RESULTAT=U,
                   NOM_CHAM='EPSI_ELNO',
                   NOEUD='NO2',
                   NOM_CMP='EPXX',
                   VALE_CALC=0.040661299997639,
                   MAILLE='CUBE',),
                _F(INST=2.0,
                   RESULTAT=U,
                   NOM_CHAM='EPSI_ELNO',
                   NOEUD='NO2',
                   NOM_CMP='EPXY',
                   VALE_CALC=0.019780067836272,
                   MAILLE='CUBE',),
                _F(INST=3.0,
                   RESULTAT=U,
                   NOM_CHAM='EPSI_ELNO',
                   NOEUD='NO2',
                   NOM_CMP='EPXX',
                   VALE_CALC=0.044151267768728,
                   MAILLE='CUBE',),
                _F(INST=3.0,
                   RESULTAT=U,
                   NOM_CHAM='EPSI_ELNO',
                   NOEUD='NO2',
                   NOM_CMP='EPXY',
                   VALE_CALC=0.019085331590312,
                   MAILLE='CUBE',),
                _F(INST=0.1,
                   POINT=1,
                   RESULTAT=U,
                   NOM_CHAM='DERA_ELGA',
                   NOM_CMP='DCHA_V',
                   VALE_CALC=0.87787146917709,
                   CRITERE='RELATIF',
                   MAILLE='CUBE',),
                _F(INST=0.1,
                   RESULTAT=U,
                   NOM_CHAM='DERA_ELNO',
                   NOEUD='NO2',
                   NOM_CMP='DCHA_V',
                   VALE_CALC=0.87787146917709,
                   CRITERE='RELATIF',
                   MAILLE='CUBE',),
                _F(INST=1.5,
                   RESULTAT=U,
                   NOM_CHAM='DERA_ELNO',
                   NOEUD='NO2',
                   NOM_CMP='RADI_V',
                   VALE_CALC=0.0,
                   MAILLE='CUBE',),
                _F(INST=1.5,
                   RESULTAT=U,
                   NOM_CHAM='DERA_ELNO',
                   NOEUD='NO2',
                   NOM_CMP='ERR_RADI',
                   VALE_CALC=0.012576635148951,
                   MAILLE='CUBE',),
                ),
          )

#=========================================
#  test de ERR_RADI
#=========================================

nbincr=2

L_INST2=DEFI_LIST_REEL(DEBUT=0.0,
                      INTERVALLE=(_F(JUSQU_A=0.1,
                                     NOMBRE=1,),
                                  _F(JUSQU_A=0.9,
                                     NOMBRE=1,),
                                  _F(JUSQU_A=1.0,
                                     NOMBRE=1,),
                                  _F(JUSQU_A=2.0,
                                     NOMBRE=nbincr,),
                                  _F(JUSQU_A=3.0,
                                     NOMBRE=nbincr,),
                                  _F(JUSQU_A=4.0,
                                     NOMBRE=1,),),);

DEFLIST2=DEFI_LIST_INST(DEFI_LIST=_F(METHODE='MANUEL',
                                    LIST_INST=L_INST2,),
                       ECHEC=_F(SUBD_NIVEAU=10,SUBD_PAS=4),
                       );

# VMIS_CINE_LINE
# --------------

U2=STAT_NON_LINE(MODELE=MO,
                CHAM_MATER=CM,
                EXCIT=(_F(CHARGE=LIAISON,),
                       _F(CHARGE=TRACTION,
                          FONC_MULT=SIGMA_F,),
                       _F(CHARGE=CISAIL,
                          FONC_MULT=TAU_F,),),
                COMPORTEMENT=_F(RELATION='VMIS_CINE_LINE', RESI_RADI_RELA=0.02),
                INCREMENT=_F(LIST_INST=DEFLIST2,),
                NEWTON=_F(MATRICE='TANGENTE',REAC_ITER=3,),
                RECH_LINEAIRE=_F(ITER_LINE_MAXI=5,),
                CONVERGENCE=_F(ITER_GLOB_MAXI=21,),
                  SUIVI_DDL=(
                              _F(NOM_CMP    ='SIXX',
                                 NOM_CHAM   ='SIEF_ELGA',
                                 TOUT       = 'OUI',
                                 EVAL_ELGA  ='MAX',
                                 EVAL_CHAM ='MAX',),
                              _F(NOM_CMP    ='SIXY',
                                 NOM_CHAM   ='SIEF_ELGA',
                                 TOUT       = 'OUI',
                                 EVAL_ELGA  ='MAX',
                                 EVAL_CHAM ='MAX',),
                              _F(NOM_CMP    ='V1',
                                 NOM_CHAM   ='VARI_ELGA',
                                 TOUT       = 'OUI',
                                 EVAL_ELGA  ='MAX',
                                 EVAL_CHAM ='MAX',),
                              _F(NOM_CMP    ='V4',
                                 NOM_CHAM   ='VARI_ELGA',
                                 TOUT       = 'OUI',
                                 EVAL_ELGA  ='MAX',
                                 EVAL_CHAM ='MAX',),
                                 ),
                );

U2=CALC_CHAMP(reuse=U2,RESULTAT=U2,CRITERES=('DERA_ELNO'),VARI_INTERNE=('VARI_ELNO'),DEFORMATION=('EPSI_ELNO'))



# VMIS_ECMI_LINE
# --------------

U3=STAT_NON_LINE(MODELE=MO,
                CHAM_MATER=CM,
                EXCIT=(_F(CHARGE=LIAISON,),
                       _F(CHARGE=TRACTION,
                          FONC_MULT=SIGMA_F,),
                       _F(CHARGE=CISAIL,
                          FONC_MULT=TAU_F,),),
                COMPORTEMENT=_F(RELATION='VMIS_ECMI_LINE',
                             RESI_RADI_RELA=0.02
                             ),
                INCREMENT=_F(LIST_INST=DEFLIST2,),
                NEWTON=_F(MATRICE='TANGENTE',REAC_ITER=3,),
                RECH_LINEAIRE=_F(ITER_LINE_MAXI=5,),
                CONVERGENCE=_F(ITER_GLOB_MAXI=21,),
                  SUIVI_DDL=(
                              _F(NOM_CMP    ='SIXX',
                                 NOM_CHAM   ='SIEF_ELGA',
                                 TOUT       = 'OUI',
                                 EVAL_ELGA  ='MAX',
                                 EVAL_CHAM ='MAX',),
                              _F(NOM_CMP    ='SIXY',
                                 NOM_CHAM   ='SIEF_ELGA',
                                 TOUT       = 'OUI',
                                 EVAL_ELGA  ='MAX',
                                 EVAL_CHAM ='MAX',),
                              _F(NOM_CMP    ='V3',
                                 NOM_CHAM   ='VARI_ELGA',
                                 TOUT       = 'OUI',
                                 EVAL_ELGA  ='MAX',
                                 EVAL_CHAM ='MAX',),
                              _F(NOM_CMP    ='V6',
                                 NOM_CHAM   ='VARI_ELGA',
                                 TOUT       = 'OUI',
                                 EVAL_ELGA  ='MAX',
                                 EVAL_CHAM ='MAX',),
                                 ),
                );

U3=CALC_CHAMP(reuse=U3,RESULTAT=U3,CRITERES=('DERA_ELNO'),VARI_INTERNE=('VARI_ELNO'),DEFORMATION=('EPSI_ELNO'))



# VMIS_CIN1_CHAB
# --------------



U4=STAT_NON_LINE(MODELE=MO,
                CHAM_MATER=CM,
                EXCIT=(_F(CHARGE=LIAISON,),
                       _F(CHARGE=TRACTION,
                          FONC_MULT=SIGMA_F,),
                       _F(CHARGE=CISAIL,
                          FONC_MULT=TAU_F,),),
                COMPORTEMENT=_F(RELATION='VMIS_CIN1_CHAB',
                             RESI_RADI_RELA=0.02,
                            # RESI_INTE_RELA=1.E-8,
                             ITER_INTE_MAXI=100,
                             ),
                INCREMENT=_F(LIST_INST=DEFLIST2,),
                NEWTON=_F(MATRICE='TANGENTE',REAC_ITER=3,),
                RECH_LINEAIRE=_F(ITER_LINE_MAXI=5,),
                CONVERGENCE=_F(ITER_GLOB_MAXI=21,),
                  SUIVI_DDL=(
                              _F(NOM_CMP    ='SIXX',
                                 NOM_CHAM   ='SIEF_ELGA',
                                 TOUT       = 'OUI',
                                 EVAL_ELGA  ='MAX',
                                 EVAL_CHAM ='MAX',),
                              _F(NOM_CMP    ='SIXY',
                                 NOM_CHAM   ='SIEF_ELGA',
                                 TOUT       = 'OUI',
                                 EVAL_ELGA  ='MAX',
                                 EVAL_CHAM ='MAX',),
                              _F(NOM_CMP    ='V3',
                                 NOM_CHAM   ='VARI_ELGA',
                                 TOUT       = 'OUI',
                                 EVAL_ELGA  ='MAX',
                                 EVAL_CHAM ='MAX',),
                              _F(NOM_CMP    ='V6',
                                 NOM_CHAM   ='VARI_ELGA',
                                 TOUT       = 'OUI',
                                 EVAL_ELGA  ='MAX',
                                 EVAL_CHAM ='MAX',),
                                 ),
                );

U4=CALC_CHAMP(reuse=U4,RESULTAT=U4,CRITERES=('DERA_ELNO'),VARI_INTERNE=('VARI_ELNO'),DEFORMATION=('EPSI_ELNO'))


TEST_RESU(RESU=(_F(INST=1.0,
                   REFERENCE='AUTRE_ASTER',
                   RESULTAT=U2,
                   NOM_CHAM='EPSI_ELNO',
                   NOEUD='NO2',
                   NOM_CMP='EPXX',
                   VALE_CALC=0.014829714,
                   VALE_REFE=0.014829699999999999,
                   MAILLE='CUBE',),
                _F(INST=1.0,
                   REFERENCE='AUTRE_ASTER',
                   RESULTAT=U3,
                   NOM_CHAM='EPSI_ELNO',
                   NOEUD='NO2',
                   NOM_CMP='EPXX',
                   VALE_CALC=0.014829714,
                   VALE_REFE=0.014829699999999999,
                   MAILLE='CUBE',),
                _F(INST=1.0,
                   REFERENCE='AUTRE_ASTER',
                   RESULTAT=U4,
                   NOM_CHAM='EPSI_ELNO',
                   NOEUD='NO2',
                   NOM_CMP='EPXX',
                   VALE_CALC=0.014970206,
                   VALE_REFE=0.014829699999999999,
                   PRECISION=1.E-2,
                   MAILLE='CUBE',),
                _F(INST=1.0,
                   REFERENCE='AUTRE_ASTER',
                   RESULTAT=U2,
                   NOM_CHAM='EPSI_ELNO',
                   NOEUD='NO2',
                   NOM_CMP='EPXY',
                   VALE_CALC=0.013601401,
                   VALE_REFE=0.0136014,
                   MAILLE='CUBE',),
                _F(INST=1.0,
                   REFERENCE='AUTRE_ASTER',
                   RESULTAT=U3,
                   NOM_CHAM='EPSI_ELNO',
                   NOEUD='NO2',
                   NOM_CMP='EPXY',
                   VALE_CALC=0.013601401,
                   VALE_REFE=0.0136014,
                   MAILLE='CUBE',),
                _F(INST=1.0,
                   REFERENCE='AUTRE_ASTER',
                   RESULTAT=U4,
                   NOM_CHAM='EPSI_ELNO',
                   NOEUD='NO2',
                   NOM_CMP='EPXY',
                   VALE_CALC=0.013731161,
                   VALE_REFE=0.0136014,
                   PRECISION=1.E-2,
                   MAILLE='CUBE',),
                _F(INST=1.0,
                   REFERENCE='AUTRE_ASTER',
                   RESULTAT=U2,
                   NOM_CHAM='VARI_ELNO',
                   NOEUD='NO2',
                   NOM_CMP='V1',
                   VALE_CALC=18.264003439,
                   VALE_REFE=18.263999999999999,
                   MAILLE='CUBE',),
                _F(INST=1.0,
                   REFERENCE='AUTRE_ASTER',
                   RESULTAT=U2,
                   NOM_CHAM='VARI_ELNO',
                   NOEUD='NO2',
                   NOM_CMP='V4',
                   VALE_CALC=16.868836510,
                   VALE_REFE=16.8688,
                   MAILLE='CUBE',),
                _F(INST=2.0,
                   REFERENCE='AUTRE_ASTER',
                   RESULTAT=U2,
                   NOM_CHAM='EPSI_ELNO',
                   NOEUD='NO2',
                   NOM_CMP='EPXX',
                   VALE_CALC=0.040660090,
                   VALE_REFE=0.040661200000000002,
                   MAILLE='CUBE',),
                _F(INST=2.0,
                   REFERENCE='AUTRE_ASTER',
                   RESULTAT=U3,
                   NOM_CHAM='EPSI_ELNO',
                   NOEUD='NO2',
                   NOM_CMP='EPXX',
                   VALE_CALC=0.040660090,
                   VALE_REFE=0.040661200000000002,
                   MAILLE='CUBE',),
                _F(INST=2.0,
                   REFERENCE='AUTRE_ASTER',
                   RESULTAT=U4,
                   NOM_CHAM='EPSI_ELNO',
                   NOEUD='NO2',
                   NOM_CMP='EPXX',
                   VALE_CALC=0.041053358,
                   VALE_REFE=0.040661200000000002,
                   PRECISION=1.E-2,
                   MAILLE='CUBE',),
                _F(INST=2.0,
                   REFERENCE='AUTRE_ASTER',
                   RESULTAT=U2,
                   NOM_CHAM='EPSI_ELNO',
                   NOEUD='NO2',
                   NOM_CMP='EPXY',
                   VALE_CALC=0.019794305,
                   VALE_REFE=0.019779999999999999,
                   PRECISION=1.E-2,
                   MAILLE='CUBE',),
                _F(INST=2.0,
                   REFERENCE='AUTRE_ASTER',
                   RESULTAT=U3,
                   NOM_CHAM='EPSI_ELNO',
                   NOEUD='NO2',
                   NOM_CMP='EPXY',
                   VALE_CALC=0.019794305,
                   VALE_REFE=0.019779999999999999,
                   PRECISION=1.E-2,
                   MAILLE='CUBE',),
                _F(INST=2.0,
                   REFERENCE='AUTRE_ASTER',
                   RESULTAT=U4,
                   NOM_CHAM='EPSI_ELNO',
                   NOEUD='NO2',
                   NOM_CMP='EPXY',
                   VALE_CALC=0.019989970,
                   VALE_REFE=0.019779999999999999,
                   PRECISION=0.02,
                   MAILLE='CUBE',),
                _F(NUME_ORDRE=43,
                   REFERENCE='AUTRE_ASTER',
                   RESULTAT=U2,
                   NOM_CHAM='EPSI_ELNO',
                   NOEUD='NO2',
                   NOM_CMP='EPXX',
                   VALE_CALC=0.044144036,
                   VALE_REFE=0.044151000000000003,
                   MAILLE='CUBE',),
                _F(NUME_ORDRE=43,
                   REFERENCE='AUTRE_ASTER',
                   RESULTAT=U3,
                   NOM_CHAM='EPSI_ELNO',
                   NOEUD='NO2',
                   NOM_CMP='EPXX',
                   VALE_CALC=0.044144036,
                   VALE_REFE=0.044151000000000003,
                   MAILLE='CUBE',),
                _F(NUME_ORDRE=43,
                   REFERENCE='AUTRE_ASTER',
                   RESULTAT=U4,
                   NOM_CHAM='EPSI_ELNO',
                   NOEUD='NO2',
                   NOM_CMP='EPXX',
                   VALE_CALC=0.044572023,
                   VALE_REFE=0.044151799999999998,
                   PRECISION=0.02,
                   MAILLE='CUBE',),
                _F(NUME_ORDRE=43,
                   REFERENCE='AUTRE_ASTER',
                   RESULTAT=U2,
                   NOM_CHAM='EPSI_ELNO',
                   NOEUD='NO2',
                   NOM_CMP='EPXY',
                   VALE_CALC=0.019059761,
                   VALE_REFE=0.019085299999999999,
                   PRECISION=1.E-2,
                   MAILLE='CUBE',),
                _F(NUME_ORDRE=43,
                   REFERENCE='AUTRE_ASTER',
                   RESULTAT=U3,
                   NOM_CHAM='EPSI_ELNO',
                   NOEUD='NO2',
                   NOM_CMP='EPXY',
                   VALE_CALC=0.019059761,
                   VALE_REFE=0.019085299999999999,
                   PRECISION=1.E-2,
                   MAILLE='CUBE',),
                _F(NUME_ORDRE=43,
                   REFERENCE='AUTRE_ASTER',
                   RESULTAT=U4,
                   NOM_CHAM='EPSI_ELNO',
                   NOEUD='NO2',
                   NOM_CMP='EPXY',
                   VALE_CALC=0.019250289604756,
                   VALE_REFE=0.019085299999999999,
                   PRECISION=0.02,
                   MAILLE='CUBE',),
                _F(INST=1.5,
                   RESULTAT=U2,
                   NOM_CHAM='DERA_ELNO',
                   NOEUD='NO2',
                   NOM_CMP='ERR_RADI',
                   VALE_CALC=0.011798018357726,
                   MAILLE='CUBE',),
                _F(INST=1.5,
                   RESULTAT=U3,
                   NOM_CHAM='DERA_ELNO',
                   NOEUD='NO2',
                   NOM_CMP='ERR_RADI',
                   VALE_CALC=0.011798018357726,
                   MAILLE='CUBE',),
                _F(INST=1.5,
                   RESULTAT=U4,
                   NOM_CHAM='DERA_ELNO',
                   NOEUD='NO2',
                   NOM_CMP='ERR_RADI',
                   VALE_CALC=0.011798018348873,
                   MAILLE='CUBE',),
                _F(INST=2.5,
                   RESULTAT=U2,
                   NOM_CHAM='DERA_ELNO',
                   NOEUD='NO4',
                   NOM_CMP='ERR_RADI',
                   VALE_CALC=0.019559043505651,
                   MAILLE='CUBE',),
                _F(INST=2.5,
                   RESULTAT=U3,
                   NOM_CHAM='DERA_ELNO',
                   NOEUD='NO4',
                   NOM_CMP='ERR_RADI',
                   VALE_CALC=0.019559043505651,
                   MAILLE='CUBE',),
                _F(INST=2.5,
                   RESULTAT=U4,
                   NOM_CHAM='DERA_ELNO',
                   NOEUD='NO4',
                   NOM_CMP='ERR_RADI',
                   VALE_CALC=0.019559036488012,
                   MAILLE='CUBE',),
                ),
          )

# l'erreur est || dn || / 2 = sin (alpha / 2;)

RADI1=RECU_FONCTION(RESULTAT=U,
                   NOM_CHAM='DERA_ELNO',
                   NOM_CMP='ERR_RADI',
                   MAILLE='CUBE',
                   NOEUD='NO2',
                   NOM_RESU='X',
                  );

RADI2=RECU_FONCTION(RESULTAT=U2,
                   NOM_CHAM='DERA_ELNO',
                   NOM_CMP='ERR_RADI',
                   MAILLE='CUBE',
                   NOEUD='NO2',
                   NOM_RESU='X',
                  );

RADI3=RECU_FONCTION(RESULTAT=U3,
                   NOM_CHAM='DERA_ELNO',
                   NOM_CMP='ERR_RADI',
                   MAILLE='CUBE',
                   NOEUD='NO2',
                   NOM_RESU='X',
                  );

RADI4=RECU_FONCTION(RESULTAT=U4,
                   NOM_CHAM='DERA_ELNO',
                   NOM_CMP='ERR_RADI',
                   MAILLE='CUBE',
                   NOEUD='NO2',
                   NOM_RESU='X',
                  );


IMPR_FONCTION(FORMAT='XMGRACE',
              UNITE=38,
              COURBE=(
              _F(FONCTION=RADI1,LEGENDE='radi=sin(alpha/2) ref : 30 increments, VMIS_CINE_LINE',),
              _F(FONCTION=RADI2,LEGENDE='radi=sin(alpha/2) RESI_RADI_RELA=0.02, VMIS_CINE_LINE',),
              _F(FONCTION=RADI3,LEGENDE='radi=sin(alpha/2) RESI_RADI_RELA=0.02, VMIS_ECMI_LINE',),
              _F(FONCTION=RADI4,LEGENDE='radi=sin(alpha/2) RESI_RADI_RELA=0.02, VMIS_CIN1_CHAB',),
                        ),
              TITRE='Radi et iso-erreur',
              LEGENDE_X='Inst',
              LEGENDE_Y='crit erreur',);


FIN();
