# TITRE BARRE EN COMPRESSION  -  CALCUL 2D CONTRAINTES PLANES
# ======================================================================
# COPYRIGHT (C) 1991 - 2012  EDF R&D                  WWW.CODE-ASTER.ORG
# THIS PROGRAM IS FREE SOFTWARE; YOU CAN REDISTRIBUTE IT AND/OR MODIFY
# IT UNDER THE TERMS OF THE GNU GENERAL PUBLIC LICENSE AS PUBLISHED BY
# THE FREE SOFTWARE FOUNDATION; EITHER VERSION 2 OF THE LICENSE, OR
# (AT YOUR OPTION) ANY LATER VERSION.
#
# THIS PROGRAM IS DISTRIBUTED IN THE HOPE THAT IT WILL BE USEFUL, BUT
# WITHOUT ANY WARRANTY; WITHOUT EVEN THE IMPLIED WARRANTY OF
# MERCHANTABILITY OR FITNESS FOR A PARTICULAR PURPOSE. SEE THE GNU
# GENERAL PUBLIC LICENSE FOR MORE DETAILS.
#
# YOU SHOULD HAVE RECEIVED A COPY OF THE GNU GENERAL PUBLIC LICENSE
# ALONG WITH THIS PROGRAM; IF NOT, WRITE TO EDF R&D CODE_ASTER,
#    1 AVENUE DU GENERAL DE GAULLE, 92141 CLAMART CEDEX, FRANCE.
# ======================================================================
#
# ELEMENTS QUAD4
#.....................................................................

DEBUT(   CODE=_F(  NOM = 'SSNP305A',NIV_PUB_WEB='INTERNET'))

MAYA=LIRE_MAILLAGE( )

MODEL=AFFE_MODELE(    MAILLAGE=MAYA,
                                VERIF='MAILLE',
                                 AFFE=_F(  TOUT = 'OUI',
                                        PHENOMENE = 'MECANIQUE',
                                        MODELISATION = 'C_PLAN')
                         )

ACIER1=DEFI_MATERIAU(         ELAS=_F(  E = 2.E7,
                                      NU = 0.)
                      )

ACIER2=DEFI_MATERIAU(         ELAS=_F(  E = 200000.,
                                      NU = 0.)
                      )

MATER=AFFE_MATERIAU(   MAILLAGE=MAYA,AFFE=(
                                _F(  GROUP_MA = 'BORD',
                                       MATER = ACIER1),
                                     _F(  GROUP_MA = 'MILIEU',
                                       MATER = ACIER2))
                         )

CAT=DEFI_LIST_REEL(    DEBUT=0.0,
                          INTERVALLE=_F(  JUSQU_A = 1.,     NOMBRE = 100)
                      )

CONDLIM=AFFE_CHAR_MECA(     MODELE=MODEL,DDL_IMPO=(
                              _F(  NOEUD = 'NO000007',
                                               DX = 0.),
                                       _F(  NOEUD = 'NO000001',
                                               DX = 0.,
                                               DY = 0.))
                          )

DY_FO=DEFI_FONCTION(       NOM_PARA='INST',
                             PROL_DROITE='EXCLU',
                            PROL_GAUCHE='EXCLU',
                                   VALE=( 0.,      0.,
                                          1.,    -2500.,     )
                        )

CHA=AFFE_CHAR_MECA_F(     MODELE=MODEL,
                                  DDL_IMPO=_F(  NOEUD = 'NO000007',
                                             DY = DY_FO)
                         )

CALCNL=STAT_NON_LINE(
                            MODELE=MODEL,
                        CHAM_MATER=MATER,
                         COMPORTEMENT=_F(
                RELATION = 'ELAS',
                DEFORMATION = 'GROT_GDEP'),
                         INCREMENT=_F(
                LIST_INST = CAT),
                            NEWTON=_F(
                MATRICE = 'TANGENTE',
                REAC_ITER = 1),
                       CONVERGENCE=_F(
                RESI_GLOB_RELA = 1.E-6,
                ITER_GLOB_MAXI = 50),EXCIT=(
                             _F(
                CHARGE = CHA), _F(
                CHARGE = CONDLIM)),
                     RECH_LINEAIRE=_F(
                ITER_LINE_MAXI = 3)
              )

CALCNL=CALC_CHAMP(reuse=CALCNL,CONTRAINTE=('SIGM_ELNO'),VARI_INTERNE=('VARI_ELNO'),RESULTAT=CALCNL)

CALCNL=CALC_CHAMP(reuse=CALCNL,RESULTAT=CALCNL,DEFORMATION=('EPSI_ELNO'))

CALCNL=CALC_CHAMP( reuse=CALCNL,           RESULTAT=CALCNL,
                                FORCE='FORC_NODA',
                   )
TEST_RESU(RESU=(_F(NUME_ORDRE=10,
                   RESULTAT=CALCNL,
                   NOM_CHAM='FORC_NODA',
                   NOEUD='NO000007',
                   NOM_CMP='DY',
                   VALE_CALC=-1.51029262E+06,
                   VALE_REFE=-1.511441E6,
                   REFERENCE='ANALYTIQUE',
                   CRITERE='RELATIF',
                   PRECISION=0.05,),
                _F(NUME_ORDRE=20,
                   RESULTAT=CALCNL,
                   NOM_CHAM='FORC_NODA',
                   NOEUD='NO000007',
                   NOM_CMP='DY',
                   VALE_CALC=-2.54392899E+06,
                   VALE_REFE=-2.545584E6,
                   REFERENCE='ANALYTIQUE',
                   CRITERE='RELATIF',
                   PRECISION=0.05,),
                _F(NUME_ORDRE=30,
                   RESULTAT=CALCNL,
                   NOM_CHAM='FORC_NODA',
                   NOEUD='NO000007',
                   NOM_CMP='DY',
                   VALE_CALC=-3.15371643E+06,
                   VALE_REFE=-3.155464E6,
                   REFERENCE='ANALYTIQUE',
                   CRITERE='RELATIF',
                   PRECISION=0.05,),
                _F(NUME_ORDRE=42,
                   RESULTAT=CALCNL,
                   NOM_CHAM='FORC_NODA',
                   NOEUD='NO000007',
                   NOM_CMP='DY',
                   VALE_CALC=-3.40041843E+06,
                   VALE_REFE=-3.401961E6,
                   REFERENCE='ANALYTIQUE',
                   CRITERE='RELATIF',
                   PRECISION=0.05,),
                _F(NUME_ORDRE=60,
                   RESULTAT=CALCNL,
                   NOM_CHAM='FORC_NODA',
                   NOEUD='NO000007',
                   NOM_CMP='DY',
                   VALE_CALC=-2.96884795E+06,
                   VALE_REFE=-2.969848E6,
                   REFERENCE='ANALYTIQUE',
                   CRITERE='RELATIF',
                   PRECISION=0.05,),
                _F(NUME_ORDRE=80,
                   RESULTAT=CALCNL,
                   NOM_CHAM='FORC_NODA',
                   NOEUD='NO000007',
                   NOM_CMP='DY',
                   VALE_CALC=-1.69662143E+06,
                   VALE_REFE=-1.697056E6,
                   REFERENCE='ANALYTIQUE',
                   CRITERE='RELATIF',
                   PRECISION=0.05,),
                _F(NUME_ORDRE=100,
                   RESULTAT=CALCNL,
                   NOM_CHAM='FORC_NODA',
                   NOEUD='NO000007',
                   NOM_CMP='DY',
                   VALE_CALC=-3.3608448575251E-06,
                   VALE_REFE=0.0,
                   REFERENCE='ANALYTIQUE',
                   TOLE_MACHINE=4.E-6,               # TODO TOLE_MACHINE
                   PRECISION=1.E-3,
                   CRITERE='ABSOLU',),
                ),
          )

FIN()
#
