# MODIF  DATE 17/10/2011   AUTEUR ABBAS M.ABBAS 
# TITRE CONTACT EN GRANDS GLISSEMENTS AVEC X-FEM POUR DES FISSURES
# ssnp503a.para = tps_job 60 mem_job 32Mo liste_test S
#            CONFIGURATION MANAGEMENT OF EDF VERSION
# ======================================================================
# COPYRIGHT (C) 1991 - 2011  EDF R&D                  WWW.CODE-ASTER.ORG
# THIS PROGRAM IS FREE SOFTWARE; YOU CAN REDISTRIBUTE IT AND/OR MODIFY  
# IT UNDER THE TERMS OF THE GNU GENERAL PUBLIC LICENSE AS PUBLISHED BY  
# THE FREE SOFTWARE FOUNDATION; EITHER VERSION 2 OF THE LICENSE, OR     
# (AT YOUR OPTION) ANY LATER VERSION.                                                    
#                                                                       
# THIS PROGRAM IS DISTRIBUTED IN THE HOPE THAT IT WILL BE USEFUL, BUT   
# WITHOUT ANY WARRANTY; WITHOUT EVEN THE IMPLIED WARRANTY OF            
# MERCHANTABILITY OR FITNESS FOR A PARTICULAR PURPOSE. SEE THE GNU      
# GENERAL PUBLIC LICENSE FOR MORE DETAILS.                              
#                                                                       
# YOU SHOULD HAVE RECEIVED A COPY OF THE GNU GENERAL PUBLIC LICENSE     
# ALONG WITH THIS PROGRAM; IF NOT, WRITE TO EDF R&D CODE_ASTER,         
#    1 AVENUE DU GENERAL DE GAULLE, 92141 CLAMART CEDEX, FRANCE.        
# ======================================================================
#
# CONTACT-FROTTANT EN GRANDS GLISSEMENTS
# POUR DES FISSURES HORIZONTALES
#
DEBUT(CODE=_F(NOM='SSNP503A',
              NIV_PUB_WEB='INTERNET',),);

PRE_GIBI();

MAILLAG2=LIRE_MAILLAGE(INFO=1,);

MAILLAG2=DEFI_GROUP(reuse =MAILLAG2,
                    MAILLAGE=MAILLAG2,
                    CREA_GROUP_NO =(_F(NOM = 'L13N',
                                       GROUP_MA = ('L13',),),
                                    _F(NOM = 'L21N',
                                       GROUP_MA = ('L21',),),
                                    )
                    );

MODELE=AFFE_MODELE(MAILLAGE=MAILLAG2,
                   AFFE=(_F(TOUT='OUI', 
                            PHENOMENE='MECANIQUE',
                            MODELISATION='D_PLAN',),),);       


CONT = DEFI_CONTACT(MODELE         = MODELE,
                    FORMULATION    = 'CONTINUE',
                    FROTTEMENT     = 'COULOMB',
                    ITER_GEOM_MAXI = 10,
                    ALGO_RESO_CONT = 'NEWTON',
                    ZONE =(
                           _F(
                             GROUP_MA_MAIT = 'L21',
                             GROUP_MA_ESCL = 'L13',
                             COULOMB       = 0.5, 
                             TOLE_PROJ_EXT = 0.0,  
                             CONTACT_INIT  = 'INTERPENETRE',                         
                             ),
                           _F(
                             GROUP_MA_MAIT = 'L23',
                             GROUP_MA_ESCL = 'L31',
                             COULOMB       = 0.5, 
                             TOLE_PROJ_EXT = 0.0,  
                             CONTACT_INIT  = 'INTERPENETRE',                         
                             ),                                                          
                          ),
                   );


E=100.0E6
nu=0.3
ACIER=DEFI_MATERIAU(ELAS=_F(E=E,
                            NU=nu,
                            RHO=7800.0,),);

CHAMPMAT=AFFE_MATERIAU(MAILLAGE=MAILLAG2,
                       MODELE=MODELE,
                       AFFE=_F(TOUT='OUI',
                       MATER=ACIER,
                      ),);

DEPX=2.0
DEPY=1.E-3
ZERO=0.0

CH1=AFFE_CHAR_MECA(MODELE=MODELE,
                   DDL_IMPO=(_F(GROUP_MA='L11',DY=DEPY,),
                             _F(GROUP_MA='L33',DY=-DEPY,),
                             _F(GROUP_NO=('P1','P2','P11','P12',),
                                DX=0.0,),
                             ),
                   INFO=1,);

CH2=AFFE_CHAR_MECA(MODELE=MODELE,
                   DDL_IMPO=_F(GROUP_MA='L24',
                               DX=DEPX,),
                   INFO=1,);

VAR1=DEFI_FONCTION(NOM_PARA='INST',
                    VALE=(0.,0.,1.,1.),
                   );

VAR2=DEFI_FONCTION(NOM_PARA='INST',
                    VALE=(0.,0.,1.,1.),);

L_INST=DEFI_LIST_REEL(DEBUT=0.0,
                      INTERVALLE=_F(JUSQU_A=1.0,
                                    NOMBRE=4,),);

UTOT1=STAT_NON_LINE(MODELE=MODELE,
                   CHAM_MATER=CHAMPMAT,
                   EXCIT=(
                          _F(CHARGE=CH1,FONC_MULT=VAR1),
                          _F(CHARGE=CH2,FONC_MULT=VAR2),
                          ),
                   CONTACT  = CONT,  
                   NEWTON   =_F(REAC_ITER=1,) ,       
                   COMP_ELAS=_F(RELATION='ELAS',),
                   INCREMENT=_F(LIST_INST=L_INST,),
                   CONVERGENCE=(_F(ITER_GLOB_MAXI=8,
                                  RESI_GLOB_MAXI=1E-06)),
                   INFO=1,);

LAG=[None]*5
inst=[0.0,0.25,0.5,0.75,1.0]

vale = [[0.0,-8.1059677419895E+03,-6.4501079962162E+03,-6.4542488547963E+03,-4.1383234820701E+03],
        [0.0,-1.0392387701211E+04,-1.3120233647294E+04,-1.1868000225318E+04,-8.7124511077385E+03],
        [0.0,0.0,-2.1971032705744E+04,-1.8731886517003E+04,-1.1800264974966E+04],
        [0.0,0.0,-1.9159216181349E+04,-2.3596466885199E+04,-1.7951777872766E+04]]

for i in [1,2,3,4]: #Boucle sur les increments
   LAG[i]=POST_RELEVE_T(ACTION=_F(INTITULE='DEPLE',
                                         GROUP_NO=('L13N'),
                                         RESULTAT=UTOT1,
                                         NOM_CHAM='DEPL',
                                         INST=inst[i],
                                         NOM_CMP=('LAGS_C','LAGS_F1',),
                                         OPERATION='EXTRACTION',),);
   IMPR_TABLE(TABLE=LAG[i],
              FORMAT='AGRAF',
              FORMAT_R='1PE12.7',
              FORMAT_C='MODULE_PHASE',
              NOM_PARA=('NOEUD','INST','COOR_X','LAGS_C','LAGS_F1',),
              IMPR_FONCTION='NON',
              TRI=_F(NOM_PARA=('COOR_X',),
                     ORDRE='CROISSANT',),);
   
   for j in [0,1,2,3,4]: #Boucle sur les positions testees
      if (vale[i-1] [j] == 0.0):
        precision = 1.0E-12
        critere = 'ABSOLU'
      else:
        precision = 5.E-2
        critere = 'RELATIF'
      TEST_TABLE(TABLE=LAG[i],
                 NOM_PARA='LAGS_C',
                 VALE=vale[i-1] [j],
                 CRITERE=critere,
                 PRECISION=precision,
                 REFERENCE='AUTRE_ASTER',
                 FILTRE=_F(NOM_PARA='COOR_X',
                           CRIT_COMP='EQ',
                           VALE=j,
                           PRECISION=0.03,
                           CRITERE='ABSOLU',),);


FIN();                  

