# MODIF  DATE 10/08/2010   AUTEUR GENIAUT S.GENIAUT 
# TITRE ZONE COHESIVE CZM_EXP_REG AVEC X-FEM
# ssnp144i.para = tps_job 300 mem_job 128Mo ncpus 1 liste_test S
#            CONFIGURATION MANAGEMENT OF EDF VERSION
# ======================================================================
# COPYRIGHT (C) 1991 - 2006  EDF R&D                  WWW.CODE-ASTER.ORG
# THIS PROGRAM IS FREE SOFTWARE; YOU CAN REDISTRIBUTE IT AND/OR MODIFY
# IT UNDER THE TERMS OF THE GNU GENERAL PUBLIC LICENSE AS PUBLISHED BY
# THE FREE SOFTWARE FOUNDATION; EITHER VERSION 2 OF THE LICENSE, OR
# (AT YOUR OPTION) ANY LATER VERSION.
#
# THIS PROGRAM IS DISTRIBUTED IN THE HOPE THAT IT WILL BE USEFUL, BUT
# WITHOUT ANY WARRANTY; WITHOUT EVEN THE IMPLIED WARRANTY OF
# MERCHANTABILITY OR FITNESS FOR A PARTICULAR PURPOSE. SEE THE GNU
# GENERAL PUBLIC LICENSE FOR MORE DETAILS.
#
# YOU SHOULD HAVE RECEIVED A COPY OF THE GNU GENERAL PUBLIC LICENSE
# ALONG WITH THIS PROGRAM; IF NOT, WRITE TO EDF R&D CODE_ASTER,
#    1 AVENUE DU GENERAL DE GAULLE, 92141 CLAMART CEDEX, FRANCE.
# ======================================================================

DEBUT(CODE=_F(NOM='SSNP144I',NIV_PUB_WEB='INTERNET',),);
#----------------------------------------------
#                MAILLAGE : ssnp144i.mgib
#----------------------------------------------

PRE_GIBI();

MAILLAG1=LIRE_MAILLAGE();

#----------------------------------------------
#                   MODELE ET FISSURE
#----------------------------------------------

MODELEIN=AFFE_MODELE(MAILLAGE=MAILLAG1,
                     AFFE=(_F(GROUP_MA='VOL',
                              PHENOMENE='MECANIQUE',
                              MODELISATION='3D',),
                           _F(GROUP_MA=('SURFINF','SURFSUP',),
                              PHENOMENE='MECANIQUE',
                              MODELISATION='3D',),),);

MAILLAG1=DEFI_GROUP(reuse =MAILLAG1,
                    MAILLAGE=MAILLAG1,
                    CREA_GROUP_NO=(_F(GROUP_MA='VOL',
                                      NOM='VOL',),
                                      
                                   _F(NOM='VOL_SUP',
                                      OPTION = 'PLAN',
                                      NOEUD_CENTRE='N167',
                                      PRECISION=12.49,
                                      VECT_NORMALE=(0.0,0.0,1.0),),
                                   _F(NOM='VOL_INF',
                                      OPTION = 'PLAN',
                                      NOEUD_CENTRE='N168',
                                      PRECISION=12.49,
                                      VECT_NORMALE=(0.0,0.0,1.0),),
                                   _F(NOM='FISS_INF',
                                      OPTION = 'PLAN',
                                      NOEUD_CENTRE='N159',
                                      PRECISION=1.0E-10,
                                      VECT_NORMALE=(0.0,0.0,1.0),),
                                   _F(NOM='FISS_SUP',
                                      OPTION = 'PLAN',
                                      NOEUD_CENTRE='N160',
                                      PRECISION=1.0E-10,
                                      VECT_NORMALE=(0.0,0.0,1.0),),
                                   _F(NOM='GN',
                                      UNION=('FISS_INF','FISS_SUP'),),),);

# FORME ANALYTIQUE POUR LA FISSURE

LN=FORMULE(NOM_PARA=('X','Y','Z'),VALE='Z-12.5 ');

FISS=DEFI_FISS_XFEM(MODELE=MODELEIN,
                    TYPE_DISCONTINUITE='INTERFACE',
                    DEFI_FISS=_F(FONC_LN=LN,),
                    GROUP_MA_ENRI='VOL',
                    INFO=1,);

#-------------------------------------------------
#                  CONTACT
#-------------------------------------------------

MODELEK=MODI_MODELE_XFEM(MODELE_IN=MODELEIN,
                         FISSURE=FISS,
                         CONTACT='P1P1',);

CTXFEM = DEFI_CONTACT(
            MODELE         = MODELEK,
            FORMULATION    = 'XFEM',
            FROTTEMENT     = 'COULOMB',
            ITER_CONT_MAXI=4,
            ITER_FROT_MAXI=6,
            ZONE=(
                  _F(  INTEGRATION='GAUSS',                                    
                       COULOMB=1.0, 
                       CONTACT_INIT='NON',
                       COEF_FROT=1000.,                                     
                       COEF_CONT=100.,   
                       COEF_ECHELLE=1.,
                       FISS_MAIT = FISS,
                       ALGO_LAGR='VERSION2',
                       RELATION='CZM_XFEM',  
                      ),
                       ), ),


CHXFEM=AFFE_CHAR_MECA(MODELE=MODELEK,
                      LIAISON_XFEM='OUI',
                      CONTACT_XFEM=CTXFEM,);

#----------------------------------------------
#                   MATERIAU
#----------------------------------------------
nu = 0.0;
E = 500000.0;

MATE=DEFI_MATERIAU(ELAS=_F(E=E,
                            NU=nu,),
                    RUPT_FRAG=_F(GC=0.9E3,
                                 SIGM_C=1.1E6,
                                 PENA_ADHERENCE=1.0E-3),
                                 );

CHAMPMA=AFFE_MATERIAU(MAILLAGE=MAILLAG1,
                       MODELE=MODELEK,
                      AFFE=_F(GROUP_MA='VOL',
                              MATER=MATE,),);

#----------------------------------------------
#                   CHARGEMENTS
#----------------------------------------------
L_INST=DEFI_LIST_REEL(DEBUT=0.,
                      INTERVALLE=(
                                  _F(JUSQU_A=0.5,
                                    NOMBRE=2,),
                                  _F(JUSQU_A=0.75,
                                     NOMBRE=2,),
                                  _F(JUSQU_A=2,
                                     NOMBRE=2,),
                                  _F(JUSQU_A=3.5,
                                     NOMBRE=10,),
                                  _F(JUSQU_A=4.5,
                                     NOMBRE=2,),
                                  _F(JUSQU_A=5.5,
                                     NOMBRE=2,),
                                  _F(JUSQU_A=7,
                                     NOMBRE=10,),
                                  _F(JUSQU_A=9.5,
                                     NOMBRE=2,),
                                  _F(JUSQU_A=12,
                                     NOMBRE=2,),
                                  _F(JUSQU_A=15,
                                     NOMBRE=10,),
                                    ),);

LINST=[0.5 , 0.75 , 2. , 3.5 , 4.5 , 5.5 , 7. , 9.5 , 12 , 15 ]
nbc=len(LINST)
LCOEF=[3.6667E6 ,-3.6667E6 , 3.6667E6 , 2.00109149453E3 ,
-2000. , 2000. , 2000. , -2000., 2000. , 2000. ]
                                    
#----------------MODE-I------------------------
                                    
DEPZ1 = 1.0;

CH1=AFFE_CHAR_MECA(MODELE=MODELEK,
                   DDL_IMPO=(_F(GROUP_MA='SURFINF',DX=0.0,DY=0.0,DZ=0.0,),
                             _F(GROUP_MA='SURFSUP',DX=0.0,DY=0.0,DZ=DEPZ1,),),
                    INFO=1,);

#----------------MODE-II-----------------------
DEPX2 = 1.0;
DEPZ2 = 1.0E-13;

CH21=AFFE_CHAR_MECA(MODELE=MODELEK,
                   DDL_IMPO=(_F(GROUP_NO='VOL_SUP',
                                DX=DEPX2,),),);
                                
CH22=AFFE_CHAR_MECA(MODELE=MODELEK,
                   DDL_IMPO=(_F(GROUP_NO='VOL_INF',
                                DX=0.0,
                                DY=0.0,
                                DZ=0.0,),
                             _F(GROUP_NO='VOL_SUP',
                                DZ=DEPZ2,
                                DY=0.0,),
                             _F(GROUP_NO=('FISS_SUP','FISS_INF',),
                                H1Y=0.0,H1Z=DEPZ2/2.,),),
                      LIAISON_GROUP=(_F(GROUP_NO_1 = ('FISS_SUP'),
                                        GROUP_NO_2 = ('FISS_SUP'),
                                        DDL_1      = 'DX',
                                        DDL_2      = 'H1X',
                                        COEF_MULT_1=  1.,
                                        COEF_MULT_2=  -1.,
                                        COEF_IMPO= 0.,),
                                     _F(GROUP_NO_1 = ('FISS_INF'),
                                        GROUP_NO_2 = ('FISS_SUP'),
                                        DDL_1      = 'H1X',
                                        DDL_2      = 'H1X',
                                        COEF_MULT_1=  1.,
                                        COEF_MULT_2=  -1.,
                                        COEF_IMPO= 0.,),),);
                                                    
#--------------------------------------------------------
#                       CALCUL - MODE I
#--------------------------------------------------------

UTOT1=STAT_NON_LINE(MODELE=MODELEK,
                    CHAM_MATER=CHAMPMA,
                    EXCIT=(_F(CHARGE=CHXFEM,),
                           _F(CHARGE=CH1,
                              TYPE_CHARGE='FIXE_PILO',),),
                    CONTACT =  CTXFEM,  
                    COMP_ELAS=_F(RELATION='ELAS',
                                 GROUP_MA='VOL',),
                    INCREMENT=_F(LIST_INST=L_INST,
                                 INST_FIN=0.5,),
                    NEWTON=_F(REAC_ITER=1,),
                    PILOTAGE=_F(TYPE='DDL_IMPO',
                                COEF_MULT=3.6667E6,
                                NOEUD='N159',
                                NOM_CMP='H1Z',),
                    CONVERGENCE=_F(RESI_GLOB_RELA=1.E-6,
                                   ITER_GLOB_MAXI=30,
                                   ARRET='OUI',),
                    SOLVEUR=_F(METHODE='MUMPS',),
                    ARCHIVAGE=_F(CHAM_EXCLU='VARI_ELGA',),
                    INFO=1,); 

for i in range(1,nbc) :
  UTOT1=STAT_NON_LINE(reuse =UTOT1,
                    ETAT_INIT=_F(EVOL_NOLI=UTOT1,),
                    MODELE=MODELEK,
                    CHAM_MATER=CHAMPMA,
                    EXCIT=(_F(CHARGE=CHXFEM,),
                           _F(CHARGE=CH1,
                              TYPE_CHARGE='FIXE_PILO',),),
                    CONTACT =  CTXFEM,  
                    COMP_ELAS=_F(RELATION='ELAS',
                                 GROUP_MA='VOL',),
                    INCREMENT=_F(LIST_INST=L_INST,
                                 INST_FIN=LINST[i],),
                    NEWTON=_F(REAC_ITER=1,),
                    PILOTAGE=_F(TYPE='DDL_IMPO',
                                COEF_MULT=LCOEF[i],
                                NOEUD='N159',
                                NOM_CMP='H1Z',),
                    CONVERGENCE=_F(RESI_GLOB_RELA=1.E-6,
                                   ITER_GLOB_MAXI=30,
                                   ARRET='OUI',),
                    SOLVEUR=_F(METHODE='MUMPS',),
                    ARCHIVAGE=_F(CHAM_EXCLU='VARI_ELGA',),
                    INFO=1,);
#--------------------------------------------------------
#                      CALCUL - MODE II
#--------------------------------------------------------

UTOT2=STAT_NON_LINE(MODELE=MODELEK,
                    CHAM_MATER=CHAMPMA,
                    EXCIT=(_F(CHARGE=CHXFEM,),
                           _F(CHARGE=CH22,),
                           _F(CHARGE=CH21,
                              TYPE_CHARGE='FIXE_PILO',),),
                    CONTACT =  CTXFEM,  
                    COMP_ELAS=_F(RELATION='ELAS',
                                 GROUP_MA='VOL',),
                    INCREMENT=_F(LIST_INST=L_INST,
                                 INST_FIN=0.5,),
                    NEWTON=_F(REAC_ITER=1,),
                    PILOTAGE=_F(TYPE='DDL_IMPO',
                                COEF_MULT=3.6667E6,
                                NOEUD='N159',
                                NOM_CMP='H1X',),
                    CONVERGENCE=_F(RESI_GLOB_RELA=1.E-6,
                                   ITER_GLOB_MAXI=30,
                                   ARRET='OUI',),
                    SOLVEUR=_F(METHODE='MUMPS',
                               PCENT_PIVOT=50,),
                    ARCHIVAGE=_F(CHAM_EXCLU='VARI_ELGA',),
                    INFO=1,); 

for i in range(1,nbc) :
   UTOT2=STAT_NON_LINE(
                    reuse =UTOT2,
                    ETAT_INIT=_F(EVOL_NOLI=UTOT2,),
                    MODELE=MODELEK,
                    CHAM_MATER=CHAMPMA,
                    EXCIT=(_F(CHARGE=CHXFEM,),
                           _F(CHARGE=CH22,),
                           _F(CHARGE=CH21,
                              TYPE_CHARGE='FIXE_PILO',),),
                    CONTACT =  CTXFEM,  
                    COMP_ELAS=_F(RELATION='ELAS',
                                 GROUP_MA='VOL',),
                    INCREMENT=_F(LIST_INST=L_INST,
                                 INST_FIN=LINST[i],),
                    NEWTON=_F(REAC_ITER=1,),
                    PILOTAGE=_F(TYPE='DDL_IMPO',
                                COEF_MULT=LCOEF[i],
                                NOEUD='N159',
                                NOM_CMP='H1X',
                               ),
                    CONVERGENCE=_F(RESI_GLOB_RELA=1.E-6,
                                   ITER_GLOB_MAXI=30,
                                   ARRET='OUI',),
                    SOLVEUR=_F(METHODE='MUMPS',
                               PCENT_PIVOT=50,),
                    ARCHIVAGE=_F(CHAM_EXCLU='VARI_ELGA',),
                    INFO=1,);

# -------------------------------------------------------------
#            POST-TRAITEMENT POUR LA VISUALISATION X-FEM
# -------------------------------------------------------------
MA_XFEM=POST_MAIL_XFEM(
                       MODELE        = MODELEK,
                       )

MA_XFEM=DEFI_GROUP(reuse =MA_XFEM,
                    MAILLAGE=MA_XFEM,
                    CREA_GROUP_NO=(_F(GROUP_MA='VOL',),
                                   _F(NOM='INTERF',
                                    OPTION='PLAN',
                                    POINT = (0.0,0.0,12.5),
                                    PRECISION=0.001,
                                    VECT_NORMALE=(0.,0.,1.),),),)

MOD_VISU=AFFE_MODELE(MAILLAGE=MA_XFEM,
                     AFFE=_F(TOUT='OUI',
                              PHENOMENE='MECANIQUE',
                              MODELISATION='3D',),) 

RESXFEM1=POST_CHAM_XFEM(
                        MODELE_VISU   = MOD_VISU,
                        RESULTAT      = UTOT1,
                        
                        )
RESXFEM2=POST_CHAM_XFEM(
                        
                        
                        RESULTAT=UTOT2,
                        MODELE_VISU=MOD_VISU,);
#--------------------------------------------------------
#                  VALIDATION DES RESULTATS
#--------------------------------------------------------
TOLE=1.0E-7 

LLAG=[3.66296853301E+05 ,
 1.8314842665E+05 ,
 1.098890559903E+06 ,
 1.75867720687844E+05 ,
 58622.573562549 ,
 1.75867720687844E+05 ,
 28117.686527187 ,
 4686.28108785798 ,
 28117.686527187 ,
 718.731177854856 ]
 
LDEP=[1.36362396705485E-07 ,
 6.818119835274E-08 ,
 4.0908719011645E-07 ,
 7.49999999999582E-04 ,
 2.49999999999582E-04 ,
 7.49999999999582E-04 ,
 1.49999999999958E-03 ,
 2.49999999999582E-04 ,
 1.49999999999958E-03 ,
 2.99999999999958E-03 ]

TAB1 = [None]*nbc
TAB2 = [None]*nbc
TAB3 = [None]*nbc
TAB4 = [None]*nbc

#--------------------------------------------------------
#                           MODE I    
#--------------------------------------------------------

for i in range(0,nbc) :

   TAB1[i]=POST_RELEVE_T(ACTION=_F(INTITULE='DEPLE',
                                   GROUP_NO=('INTERF',),
                                   RESULTAT=RESXFEM1,
                                   NOM_CHAM='DEPL',
                                   INST=LINST[i],
                                   TOUT_CMP='OUI',
                                   OPERATION='EXTRACTION',),);
   TAB2[i]=POST_RELEVE_T(ACTION=_F(INTITULE='DEPLE',
                                   GROUP_NO=('GN',),
                                   RESULTAT=UTOT1,
                                   NOM_CHAM='DEPL',
                                   INST=LINST[i],
                                   TOUT_CMP='OUI',
                                   OPERATION='EXTRACTION',),);
   TEST_TABLE(TABLE=TAB1[i],
              NOM_PARA='LAGS_C',
              TYPE_TEST='MAX',
              VALE=LLAG[i],
              CRITERE='RELATIF',
              PRECISION=TOLE,
              REFERENCE='ANALYTIQUE',);
           
   TEST_TABLE(TABLE=TAB1[i],
              NOM_PARA='LAGS_C',
              TYPE_TEST='MIN',
              VALE=LLAG[i],
              CRITERE='RELATIF',
              PRECISION=TOLE,
              REFERENCE='ANALYTIQUE',);
           
   TEST_TABLE(TABLE=TAB2[i],
              NOM_PARA='H1Z',
              TYPE_TEST='MAX',
              VALE=LDEP[i],
              CRITERE='RELATIF',
              PRECISION=TOLE,
              REFERENCE='ANALYTIQUE',);
           
   TEST_TABLE(TABLE=TAB2[i],
              NOM_PARA='H1Z',
              TYPE_TEST='MIN',
              VALE=LDEP[i],
              CRITERE='RELATIF',
              PRECISION=TOLE,
              REFERENCE='ANALYTIQUE',);

#--------------------------------------------------------
#                           MODE II   
#--------------------------------------------------------
              
for i in range(0,nbc) :

   TAB3[i]=POST_RELEVE_T(ACTION=_F(INTITULE='DEPLE',
                                   GROUP_NO=('INTERF',),
                                   RESULTAT=RESXFEM2,
                                   NOM_CHAM='DEPL',
                                   INST=LINST[i],
                                   TOUT_CMP='OUI',
                                   OPERATION='EXTRACTION',),);
   TAB4[i]=POST_RELEVE_T(ACTION=_F(INTITULE='DEPLE',
                                   GROUP_NO=('GN',),
                                   RESULTAT=UTOT2,
                                   NOM_CHAM='DEPL',
                                   INST=LINST[i],
                                   TOUT_CMP='OUI',
                                   OPERATION='EXTRACTION',),);
   TEST_TABLE(TABLE=TAB3[i],
              NOM_PARA='LAGS_F1',
              TYPE_TEST='MAX',
              VALE=LLAG[i],
              CRITERE='RELATIF',
              VALE_ABS='OUI',
              PRECISION=TOLE,
              REFERENCE='ANALYTIQUE',);
           
   TEST_TABLE(TABLE=TAB3[i],
              NOM_PARA='LAGS_F1',
              TYPE_TEST='MIN',
              VALE=LLAG[i],
              CRITERE='RELATIF',
              VALE_ABS='OUI',
              PRECISION=TOLE,
              REFERENCE='ANALYTIQUE',);
           
   TEST_TABLE(TABLE=TAB4[i],
              NOM_PARA='H1X',
              TYPE_TEST='MAX',
              VALE=LDEP[i],
              CRITERE='RELATIF',
              PRECISION=TOLE,
              REFERENCE='ANALYTIQUE',);
           
   TEST_TABLE(TABLE=TAB4[i],
              NOM_PARA='H1X',
              TYPE_TEST='MIN',
              VALE=LDEP[i],
              CRITERE='RELATIF',
              PRECISION=TOLE,
              REFERENCE='ANALYTIQUE',);
FIN();
