# MODIF  DATE 10/10/2012   AUTEUR COURTOIS M.COURTOIS 
# TITRE CABLE DE PRECONTRAINTE EXCENTRE DANS UNE POUTRE DROITE EN BETON
# ssnp109a.para = tps_job 60 mem_job 512Mo ncpus 1 liste_test S
#            CONFIGURATION MANAGEMENT OF EDF VERSION
# ======================================================================
# COPYRIGHT (C) 1991 - 2012  EDF R&D                  WWW.CODE-ASTER.ORG
# THIS PROGRAM IS FREE SOFTWARE; YOU CAN REDISTRIBUTE IT AND/OR MODIFY
# IT UNDER THE TERMS OF THE GNU GENERAL PUBLIC LICENSE AS PUBLISHED BY
# THE FREE SOFTWARE FOUNDATION; EITHER VERSION 2 OF THE LICENSE, OR
# (AT YOUR OPTION) ANY LATER VERSION.
#
# THIS PROGRAM IS DISTRIBUTED IN THE HOPE THAT IT WILL BE USEFUL, BUT
# WITHOUT ANY WARRANTY; WITHOUT EVEN THE IMPLIED WARRANTY OF
# MERCHANTABILITY OR FITNESS FOR A PARTICULAR PURPOSE. SEE THE GNU
# GENERAL PUBLIC LICENSE FOR MORE DETAILS.
#
# YOU SHOULD HAVE RECEIVED A COPY OF THE GNU GENERAL PUBLIC LICENSE
# ALONG WITH THIS PROGRAM; IF NOT, WRITE TO EDF R&D CODE_ASTER,
#    1 AVENUE DU GENERAL DE GAULLE, 92141 CLAMART CEDEX, FRANCE.
# ======================================================================
#-----------------------------------------------------------------------
#

DEBUT(   CODE=_F(  NOM = 'SSNP109A',NIV_PUB_WEB='INTERNET'),DEBUG=_F(SDVERI='OUI'))

#

MAILLAGE=LIRE_MAILLAGE(FORMAT='MED',    UNITE=20 )

#

MODELE=AFFE_MODELE(
                 MAILLAGE=MAILLAGE,AFFE=(
                     _F(  GROUP_MA = ('POUTRE_1','POUTRE_2','POUTRE_3'),
                            PHENOMENE = 'MECANIQUE',
                            MODELISATION = 'DKT'),
                     _F(  GROUP_MA = 'CABLE001',
                            PHENOMENE = 'MECANIQUE',
                            MODELISATION = 'BARRE')) )

#

CARAELEM=AFFE_CARA_ELEM(
                      MODELE=MODELE,
                       COQUE=_F(  GROUP_MA =('POUTRE_1','POUTRE_2','POUTRE_3'),
                                  COQUE_NCOU=5,
                                  EPAIS = 2.0E-1),
                       BARRE=_F(  GROUP_MA = 'CABLE001',
                               SECTION = 'GENERALE',
                               CARA = ( 'A', ),
                               VALE = ( 1.5E-4, )) )

#

# DEFINITION DE MATERIAUX QUASI IDENTIQUES POUR VERIFIER L ACCEPTATION
# D UNE LISTE DE MAILLE CONTENANT DIFFERENT MATERIAUX PAR DEFI_CABLE_BP

BETON_1=DEFI_MATERIAU(
                       ELAS=_F(  E = 3.0E+10,
                              NU = 0.),
                 BPEL_BETON=_F() )

BETON_2=DEFI_MATERIAU(
                       ELAS=_F(  E = 2.999999999E+10,
                              NU = 0.),
                 BPEL_BETON=_F() )

BETON_3=DEFI_MATERIAU(
                       ELAS=_F(  E = 3.E+10,
                              NU = 0.),
                 BPEL_BETON=_F() )
#

ACIER=DEFI_MATERIAU(
                       ELAS=_F(  E = 2.1E+11,
                              NU = 0.),
                 BPEL_ACIER=_F(  F_PRG = 1.77E+9,
                              FROT_COURB = 0.,
                              FROT_LINE = 0.) )

#

CHMATER=AFFE_MATERIAU(
                   MAILLAGE=MAILLAGE,AFFE=(
                       _F(  GROUP_MA = 'POUTRE_1',
                              MATER = BETON_1),
                       _F(  GROUP_MA = 'POUTRE_2',
                              MATER = BETON_2),
                       _F(  GROUP_MA = 'POUTRE_3',
                              MATER = BETON_3),
                       _F(  GROUP_MA = 'CABLE001',
                              MATER = ACIER)) )

#

CABLEPR=DEFI_CABLE_BP(            MODELE=MODELE,
                                  CHAM_MATER=CHMATER,
                                   CARA_ELEM=CARAELEM,
                              GROUP_MA_BETON=('POUTRE_1','POUTRE_2','POUTRE_3'),
                                  DEFI_CABLE=_F(
                               GROUP_MA = 'CABLE001',
                               NOEUD_ANCRAGE = ( 'NC001001',  'NC001021', ),),
                               TYPE_ANCRAGE = ( 'PASSIF',  'ACTIF',  ),
                                TENSION_INIT=2.0E+5,
                               RECUL_ANCRAGE=0. )

#

CHARMECA=AFFE_CHAR_MECA(
                      MODELE=MODELE,DDL_IMPO=(
                    _F(  NOEUD = 'NC001001',
                               DX = 0.,
                               DY = 0.,
                               DZ = 0.),
                    _F(  NOEUD = 'NB001001',
                               DX = 0.,
                               DY = 0.,
                               DZ = 0.,
                               DRY = 0.)),
                RELA_CINE_BP=_F(  CABLE_BP = CABLEPR,
                               SIGM_BPEL = 'OUI',
                               RELA_CINE = 'OUI'),
                        INFO=2 )

#

LINST=DEFI_LIST_REEL(    VALE=( 0.0,  1.0, ) )

#

EVOLNOLI=STAT_NON_LINE(
                MODELE=MODELE,
                CHAM_MATER=CHMATER,
                CARA_ELEM=CARAELEM,
                EXCIT=      _F(
                                 CHARGE = CHARMECA),
                COMP_INCR=  _F(
                                 RELATION = 'ELAS',
                                 DEFORMATION = 'PETIT',
                                 TOUT = 'OUI'),
                INCREMENT=  _F(  LIST_INST = LINST),
                SOLVEUR=    _F(  METHODE = 'MULT_FRONT',),
                CONVERGENCE=_F(
                                 ITER_GLOB_MAXI = 10,
                                 RESI_GLOB_MAXI = 1.E-5),
                INFO=2
              )

EVOLNOLI=CALC_CHAMP( reuse=EVOLNOLI,
                     CONTRAINTE=('EFGE_ELNO'),
                    RESULTAT=EVOLNOLI,
              )

#
########################################################################
# TESTS SUR LES DEPLACEMENTS DES NOEUDS DE LA POUTRE
########################################################################
#

TEST_RESU(RESU=_F(NUME_ORDRE=1,
                  REFERENCE='ANALYTIQUE',
                  RESULTAT=EVOLNOLI,
                  NOM_CHAM='DEPL',
                  NOEUD='NB001006',
                  NOM_CMP='DX',
                  VALE_CALC=-2.03655618E-04,
                  VALE_REFE=-2.036552E-4,
                  CRITERE='RELATIF',
                  PRECISION=1.E-3,),
          )

#

TEST_RESU(RESU=_F(NUME_ORDRE=1,
                  REFERENCE='ANALYTIQUE',
                  RESULTAT=EVOLNOLI,
                  NOM_CHAM='DEPL',
                  NOEUD='NB001006',
                  NOM_CMP='DZ',
                  VALE_CALC= 3.81854284E-03,
                  VALE_REFE=3.8185350000000001E-3,
                  CRITERE='RELATIF',
                  PRECISION=1.E-3,),
          )

#

TEST_RESU(RESU=_F(NUME_ORDRE=1,
                  REFERENCE='ANALYTIQUE',
                  RESULTAT=EVOLNOLI,
                  NOM_CHAM='DEPL',
                  NOEUD='NB002006',
                  NOM_CMP='DX',
                  VALE_CALC=-2.03655618E-04,
                  VALE_REFE=-2.036552E-4,
                  CRITERE='RELATIF',
                  PRECISION=1.E-3,),
          )

#

TEST_RESU(RESU=_F(NUME_ORDRE=1,
                  REFERENCE='ANALYTIQUE',
                  RESULTAT=EVOLNOLI,
                  NOM_CHAM='DEPL',
                  NOEUD='NB002006',
                  NOM_CMP='DZ',
                  VALE_CALC= 3.81854284E-03,
                  VALE_REFE=3.8185350000000001E-3,
                  CRITERE='RELATIF',
                  PRECISION=1.E-3,),
          )

#

TEST_RESU(RESU=_F(NUME_ORDRE=1,
                  REFERENCE='ANALYTIQUE',
                  RESULTAT=EVOLNOLI,
                  NOM_CHAM='DEPL',
                  NOEUD='NB001011',
                  NOM_CMP='DX',
                  VALE_CALC=-4.07311237E-04,
                  VALE_REFE=-4.073104E-4,
                  CRITERE='RELATIF',
                  PRECISION=1.E-3,),
          )

#

TEST_RESU(RESU=_F(NUME_ORDRE=1,
                  REFERENCE='ANALYTIQUE',
                  RESULTAT=EVOLNOLI,
                  NOM_CHAM='DEPL',
                  NOEUD='NB001011',
                  NOM_CMP='DZ',
                  VALE_CALC=0.015274171,
                  VALE_REFE=0.01527414,
                  CRITERE='RELATIF',
                  PRECISION=1.E-3,),
          )

#

TEST_RESU(RESU=_F(NUME_ORDRE=1,
                  REFERENCE='ANALYTIQUE',
                  RESULTAT=EVOLNOLI,
                  NOM_CHAM='DEPL',
                  NOEUD='NB002011',
                  NOM_CMP='DX',
                  VALE_CALC=-4.07311237E-04,
                  VALE_REFE=-4.073104E-4,
                  CRITERE='RELATIF',
                  PRECISION=1.E-3,),
          )

#

TEST_RESU(RESU=_F(NUME_ORDRE=1,
                  REFERENCE='ANALYTIQUE',
                  RESULTAT=EVOLNOLI,
                  NOM_CHAM='DEPL',
                  NOEUD='NB002011',
                  NOM_CMP='DZ',
                  VALE_CALC=0.015274171,
                  VALE_REFE=0.01527414,
                  CRITERE='RELATIF',
                  PRECISION=1.E-3,),
          )

#

TEST_RESU(RESU=_F(NUME_ORDRE=1,
                  REFERENCE='ANALYTIQUE',
                  RESULTAT=EVOLNOLI,
                  NOM_CHAM='DEPL',
                  NOEUD='NB001016',
                  NOM_CMP='DX',
                  VALE_CALC=-6.10966855E-04,
                  VALE_REFE=-6.1096559999999998E-4,
                  CRITERE='RELATIF',
                  PRECISION=1.E-3,),
          )

#

TEST_RESU(RESU=_F(NUME_ORDRE=1,
                  REFERENCE='ANALYTIQUE',
                  RESULTAT=EVOLNOLI,
                  NOM_CHAM='DEPL',
                  NOEUD='NB001016',
                  NOM_CMP='DZ',
                  VALE_CALC=0.034366886,
                  VALE_REFE=0.034366819999999999,
                  CRITERE='RELATIF',
                  PRECISION=1.E-3,),
          )

#

TEST_RESU(RESU=_F(NUME_ORDRE=1,
                  REFERENCE='ANALYTIQUE',
                  RESULTAT=EVOLNOLI,
                  NOM_CHAM='DEPL',
                  NOEUD='NB002016',
                  NOM_CMP='DX',
                  VALE_CALC=-6.10966855E-04,
                  VALE_REFE=-6.1096559999999998E-4,
                  CRITERE='RELATIF',
                  PRECISION=1.E-3,),
          )

#

TEST_RESU(RESU=_F(NUME_ORDRE=1,
                  REFERENCE='ANALYTIQUE',
                  RESULTAT=EVOLNOLI,
                  NOM_CHAM='DEPL',
                  NOEUD='NB002016',
                  NOM_CMP='DZ',
                  VALE_CALC=0.034366886,
                  VALE_REFE=0.034366819999999999,
                  CRITERE='RELATIF',
                  PRECISION=1.E-3,),
          )

#

TEST_RESU(RESU=_F(NUME_ORDRE=1,
                  REFERENCE='ANALYTIQUE',
                  RESULTAT=EVOLNOLI,
                  NOM_CHAM='DEPL',
                  NOEUD='NB001021',
                  NOM_CMP='DX',
                  VALE_CALC=-8.14622473E-04,
                  VALE_REFE=-8.1462080000000001E-4,
                  CRITERE='RELATIF',
                  PRECISION=1.E-3,),
          )

#

TEST_RESU(RESU=_F(NUME_ORDRE=1,
                  REFERENCE='ANALYTIQUE',
                  RESULTAT=EVOLNOLI,
                  NOM_CHAM='DEPL',
                  NOEUD='NB001021',
                  NOM_CMP='DZ',
                  VALE_CALC=0.061096686,
                  VALE_REFE=0.061096560000000001,
                  CRITERE='RELATIF',
                  PRECISION=1.E-3,),
          )

#

TEST_RESU(RESU=_F(NUME_ORDRE=1,
                  REFERENCE='ANALYTIQUE',
                  RESULTAT=EVOLNOLI,
                  NOM_CHAM='DEPL',
                  NOEUD='NB002021',
                  NOM_CMP='DX',
                  VALE_CALC=-8.14622473E-04,
                  VALE_REFE=-8.1462080000000001E-4,
                  CRITERE='RELATIF',
                  PRECISION=1.E-3,),
          )

#

TEST_RESU(RESU=_F(NUME_ORDRE=1,
                  REFERENCE='ANALYTIQUE',
                  RESULTAT=EVOLNOLI,
                  NOM_CHAM='DEPL',
                  NOEUD='NB002021',
                  NOM_CMP='DZ',
                  VALE_CALC=0.061096686,
                  VALE_REFE=0.061096560000000001,
                  CRITERE='RELATIF',
                  PRECISION=1.E-3,),
          )

#
########################################################################
# TESTS SUR LA CONTRAINTE NORMALE DANS LE PLAN MOYEN DE LA POUTRE
########################################################################
#

TEST_RESU(RESU=_F(NUME_ORDRE=1,
                  REFERENCE='ANALYTIQUE',
                  RESULTAT=EVOLNOLI,
                  NOM_CHAM='EFGE_ELNO',
                  NOEUD='NB001001',
                  NOM_CMP='NXX',
                  VALE_CALC=-4.88773484E+05,
                  VALE_REFE=-4.887725E5,
                  CRITERE='RELATIF',
                  PRECISION=1.E-3,
                  MAILLE='QD001001',),
          )

#

TEST_RESU(RESU=_F(NUME_ORDRE=1,
                  REFERENCE='ANALYTIQUE',
                  RESULTAT=EVOLNOLI,
                  NOM_CHAM='EFGE_ELNO',
                  NOEUD='NB002001',
                  NOM_CMP='NXX',
                  VALE_CALC=-4.88773484E+05,
                  VALE_REFE=-4.887725E5,
                  CRITERE='RELATIF',
                  PRECISION=1.E-3,
                  MAILLE='QD001001',),
          )

#

TEST_RESU(RESU=_F(NUME_ORDRE=1,
                  REFERENCE='ANALYTIQUE',
                  RESULTAT=EVOLNOLI,
                  NOM_CHAM='EFGE_ELNO',
                  NOEUD='NB001011',
                  NOM_CMP='NXX',
                  VALE_CALC=-4.88773484E+05,
                  VALE_REFE=-4.887725E5,
                  CRITERE='RELATIF',
                  PRECISION=1.E-3,
                  MAILLE='QD001011',),
          )

#

TEST_RESU(RESU=_F(NUME_ORDRE=1,
                  REFERENCE='ANALYTIQUE',
                  RESULTAT=EVOLNOLI,
                  NOM_CHAM='EFGE_ELNO',
                  NOEUD='NB002011',
                  NOM_CMP='NXX',
                  VALE_CALC=-4.88773484E+05,
                  VALE_REFE=-4.887725E5,
                  CRITERE='RELATIF',
                  PRECISION=1.E-3,
                  MAILLE='QD001011',),
          )

#

TEST_RESU(RESU=_F(NUME_ORDRE=1,
                  REFERENCE='ANALYTIQUE',
                  RESULTAT=EVOLNOLI,
                  NOM_CHAM='EFGE_ELNO',
                  NOEUD='NB001021',
                  NOM_CMP='NXX',
                  VALE_CALC=-4.88773484E+05,
                  VALE_REFE=-4.887725E5,
                  CRITERE='RELATIF',
                  PRECISION=1.E-3,
                  MAILLE='QD001020',),
          )

#

TEST_RESU(RESU=_F(NUME_ORDRE=1,
                  REFERENCE='ANALYTIQUE',
                  RESULTAT=EVOLNOLI,
                  NOM_CHAM='EFGE_ELNO',
                  NOEUD='NB002021',
                  NOM_CMP='NXX',
                  VALE_CALC=-4.88773484E+05,
                  VALE_REFE=-4.887725E5,
                  CRITERE='RELATIF',
                  PRECISION=1.E-3,
                  MAILLE='QD001020',),
          )

#

FIN( )
