# MODIF  DATE 05/03/2012   AUTEUR PELLET J.PELLET 
# TITRE ESSAI DE TRACTION-CISAILLEMENT (MISES ECROUISSAGE CINEMATIQUE)
# ssnp14a.para = tps_job 120 mem_job 128Mo ncpus 1 liste_test R
#            CONFIGURATION MANAGEMENT OF EDF VERSION
# ======================================================================
# COPYRIGHT (C) 1991 - 2012  EDF R&D                  WWW.CODE-ASTER.ORG
# THIS PROGRAM IS FREE SOFTWARE; YOU CAN REDISTRIBUTE IT AND/OR MODIFY
# IT UNDER THE TERMS OF THE GNU GENERAL PUBLIC LICENSE AS PUBLISHED BY
# THE FREE SOFTWARE FOUNDATION; EITHER VERSION 2 OF THE LICENSE, OR
# (AT YOUR OPTION) ANY LATER VERSION.
#
# THIS PROGRAM IS DISTRIBUTED IN THE HOPE THAT IT WILL BE USEFUL, BUT
# WITHOUT ANY WARRANTY; WITHOUT EVEN THE IMPLIED WARRANTY OF
# MERCHANTABILITY OR FITNESS FOR A PARTICULAR PURPOSE. SEE THE GNU
# GENERAL PUBLIC LICENSE FOR MORE DETAILS.
#
# YOU SHOULD HAVE RECEIVED A COPY OF THE GNU GENERAL PUBLIC LICENSE
# ALONG WITH THIS PROGRAM; IF NOT, WRITE TO EDF R&D CODE_ASTER,
#    1 AVENUE DU GENERAL DE GAULLE, 92141 CLAMART CEDEX, FRANCE.
# ======================================================================
#......................................................................
# PLAQUE CARREE EN TRACTION CISAILLEMENT CALCUL 3D
# ELASTOPLASTICITE  CINEMATIQUE VON MISES
#......................................................................

DEBUT(CODE=_F(NOM='SSNP14A',
              NIV_PUB_WEB='INTERNET',),
DEBUG=_F(SDVERI='NON'))
# SDVERI='NON' car la verification est trop couteuse en CPU

MA=LIRE_MAILLAGE();

MO=AFFE_MODELE(MAILLAGE=MA,
               VERIF='MAILLE',
               AFFE=_F(TOUT='OUI',
                       PHENOMENE='MECANIQUE',
                       MODELISATION='3D',),);

ACIER=DEFI_MATERIAU(ELAS=_F(E=195000.,
                            NU=0.3,),
                    ECRO_LINE=_F(D_SIGM_EPSI=1930.,
                                 SY=181.,),
                    PRAGER=_F(C=2./3.*195000.*1930./(195000.-1930.),),
                             CIN1_CHAB=_F(
                                 R_0 = 181.,
                                 R_I = 181.,
                                 B = 0.,
                                 C_I = 1930.,
                                 G_0 = 0.,
                                    ),
                             CIN2_CHAB=_F(
                                 R_0 = 181.,
                                 R_I = 181.,
                                 B = 0.,
                                 C1_I = 1930.*0.5,
                                 C2_I = 1930.*0.5,
                                 G1_0 = 0.,
                                 G2_0 = 0.,
                                    ),
                    );

CM=AFFE_MATERIAU(MAILLAGE=MA,
                 AFFE=_F(TOUT='OUI',
                         MATER=ACIER,),);

SIGMA_F=DEFI_FONCTION(NOM_PARA='INST',VALE=(0.0,0.0,
                            1.0,151.2,
                            2.0,257.2,
                            3.0,259.3,
                            4.0,0.0,
                            ),PROL_DROITE='EXCLU',PROL_GAUCHE='EXCLU',);

TAU_F=DEFI_FONCTION(NOM_PARA='INST',VALE=(0.0,0.0,
                          1.0,93.1,
                          2.0,33.1,
                          3.0,0.0,
                          4.0,0.0,
                          ),PROL_DROITE='EXCLU',PROL_GAUCHE='EXCLU',);

TRACTION=AFFE_CHAR_MECA(MODELE=MO,
                        FORCE_FACE=_F(MAILLE='GAUCHE',
                                      FX=-1.,),);

CISAIL=AFFE_CHAR_MECA(MODELE=MO,
                      FORCE_FACE=(_F(MAILLE='GAUCHE',
                                     FY=-1.,),
                                  _F(MAILLE='DROITE',
                                     FY=1.,),
                                  _F(MAILLE='HAUT',
                                     FX=1.,),
                                  _F(MAILLE='BAS',
                                     FX=-1.,),),);

LIAISON=AFFE_CHAR_MECA(MODELE=MO,
                       DDL_IMPO=(_F(NOEUD='NO4',
                                    DX=0.,
                                    DY=0.,),
                                 _F(NOEUD='NO8',
                                    DX=0.,
                                    DY=0.,
                                    DZ=0.,),
                                 _F(NOEUD='NO2',
                                    DX=0.,),
                                 _F(NOEUD='NO6',
                                    DX=0.,),),);

L_INST=DEFI_LIST_REEL(DEBUT=0.0,
                      INTERVALLE=(_F(JUSQU_A=0.1,
                                     NOMBRE=1,),
                                  _F(JUSQU_A=0.9,
                                     NOMBRE=1,),
                                  _F(JUSQU_A=1.0,
                                     NOMBRE=1,),
                                  _F(JUSQU_A=2.0,
                                     NOMBRE=30,),
                                  _F(JUSQU_A=3.0,
                                     NOMBRE=30,),
                                  _F(JUSQU_A=4.0,
                                     NOMBRE=1,),),);


U=STAT_NON_LINE(MODELE=MO,
                CHAM_MATER=CM,
                EXCIT=(_F(CHARGE=LIAISON,),
                       _F(CHARGE=TRACTION,
                          FONC_MULT=SIGMA_F,),
                       _F(CHARGE=CISAIL,
                          FONC_MULT=TAU_F,),),
                COMP_INCR=_F(RELATION='VMIS_CINE_LINE',),
                INCREMENT=_F(LIST_INST=L_INST,),
                NEWTON=_F(MATRICE='TANGENTE',REAC_ITER=3,),
                RECH_LINEAIRE=_F(ITER_LINE_MAXI=5,),
                CONVERGENCE=_F(ITER_GLOB_MAXI=20,),
                  SUIVI_DDL=(
                              _F(NOM_CMP    ='SIXX',
                                 NOM_CHAM   ='SIEF_ELGA',
                                 TOUT       = 'OUI',
                                 EVAL_ELGA  ='MAX',
                                 EVAL_CHAM ='MAX',),
                              _F(NOM_CMP    ='SIXY',
                                 NOM_CHAM   ='SIEF_ELGA',
                                 TOUT       = 'OUI',
                                 EVAL_ELGA  ='MAX',
                                 EVAL_CHAM ='MAX',),
                              _F(NOM_CMP    ='V1',
                                 NOM_CHAM   ='VARI_ELGA',
                                 TOUT       = 'OUI',
                                 EVAL_ELGA  ='MAX',
                                 EVAL_CHAM ='MAX',),
                              _F(NOM_CMP    ='V4',
                                 NOM_CHAM   ='VARI_ELGA',
                                 TOUT       = 'OUI',
                                 EVAL_ELGA  ='MAX',
                                 EVAL_CHAM ='MAX',),
                                 ),
                );


U=CALC_ELEM(reuse =U,
            RESULTAT=U,
            OPTION=('VARI_ELNO','EPSI_ELNO','DERA_ELNO',),);


U=CALC_CHAMP(reuse =U,
          RESULTAT=U,
          INST=1.,
          VARI_INTERNE='VARI_NOEU',);

U=CALC_ELEM(reuse =U,
            RESULTAT=U,
            OPTION=('DERA_ELGA',),);

VARI=CREA_CHAMP(TYPE_CHAM='ELNO_VARI_R',
                OPERATION='EXTR',
                RESULTAT=U,
                NOM_CHAM='VARI_ELNO',
                INST=1.,);

VARI_N=CREA_CHAMP(TYPE_CHAM='NOEU_VAR2_R',
                  OPERATION='EXTR',
                  RESULTAT=U,
                  NOM_CHAM='VARI_NOEU',
                  INST=1.,);

TEST_RESU(CHAM_ELEM=_F(CHAM_GD=VARI,
                       REFERENCE='NON_REGRESSION',
                       MAILLE='CUBE',
                       NOEUD='NO2',
                       NOM_CMP='V2',
                       VALE=-9.132,),)


TEST_RESU(RESU=(
                _F(RESULTAT=U,
                   REFERENCE='NON_REGRESSION',
                   INST=1.0,
                   NOM_CHAM='EPSI_ELNO',
                   NOM_CMP='EPXX',
                   MAILLE='CUBE',
                   NOEUD='NO2',
                   VALE=0.0148297,),
                _F(RESULTAT=U,
                   REFERENCE='NON_REGRESSION',
                   INST=1.0,
                   NOM_CHAM='EPSI_ELNO',
                   NOM_CMP='EPXY',
                   MAILLE='CUBE',
                   NOEUD='NO2',
                   VALE=0.0136014,),

                _F(RESULTAT=U,
                   REFERENCE='NON_REGRESSION',
                   INST=1.0,
                   NOM_CHAM='VARI_ELNO',
                   NOM_CMP='V1',
                   MAILLE='CUBE',
                   NOEUD='NO2',
                   VALE=18.264,),
                _F(RESULTAT=U,
                   REFERENCE='NON_REGRESSION',
                   INST=1.0,
                   NOM_CHAM='VARI_ELNO',
                   NOM_CMP='V4',
                   MAILLE='CUBE',
                   NOEUD='NO2',
                   VALE=16.8688,),

                _F(RESULTAT=U,
                   REFERENCE='NON_REGRESSION',
                   INST=2.0,
                   NOM_CHAM='EPSI_ELNO',
                   NOM_CMP='EPXX',
                   MAILLE='CUBE',
                   NOEUD='NO2',
                   VALE=0.0406613,),
                _F(RESULTAT=U,
                   REFERENCE='NON_REGRESSION',
                   INST=2.0,
                   NOM_CHAM='EPSI_ELNO',
                   NOM_CMP='EPXY',
                   MAILLE='CUBE',
                   NOEUD='NO2',
                   VALE=0.01978,),

                _F(RESULTAT=U,
                   REFERENCE='NON_REGRESSION',
                   INST=3.0,
                   NOM_CHAM='EPSI_ELNO',
                   NOM_CMP='EPXX',
                   MAILLE='CUBE',
                   NOEUD='NO2',
                   VALE=0.044151,),
                _F(RESULTAT=U,
                   REFERENCE='NON_REGRESSION',
                   INST=3.0,
                   NOM_CHAM='EPSI_ELNO',
                   NOM_CMP='EPXY',
                   MAILLE='CUBE',
                   NOEUD='NO2',
                   VALE=0.0190853,),

# test de DERA
                   _F(RESULTAT=U,
                   INST=0.1,
                   NOM_CHAM='DERA_ELGA',
                   NOM_CMP='DCHA_V',
                   MAILLE='CUBE',
                   POINT=1,
                   VALE=0.877871,
                   CRITERE='RELATIF',
                   PRECISION=0.001,
                   REFERENCE='NON_REGRESSION',),

                _F(RESULTAT=U,
                   INST=0.1,
                   NOM_CHAM='DERA_ELNO',
                   NOM_CMP='DCHA_V',
                   MAILLE='CUBE',
                   NOEUD='NO2',
                   VALE=0.877871,
                   CRITERE='RELATIF',
                   PRECISION=0.001,
                   REFERENCE='NON_REGRESSION',),

                _F(RESULTAT=U,
                   REFERENCE='NON_REGRESSION',
                   INST=1.5,
                   NOM_CHAM='DERA_ELNO',
                   NOM_CMP='RADI_V',
                   MAILLE='CUBE',
                   NOEUD='NO2',
                   VALE=0.0,),

                _F(RESULTAT=U,
                   REFERENCE='NON_REGRESSION',
                   INST=1.5,
                   NOM_CHAM='DERA_ELNO',
                   NOM_CMP='ERR_RADI',
                   MAILLE='CUBE',
                   NOEUD='NO2',
                   VALE=0.0125766,),


               ),);


#=========================================
#  test de ERR_RADI
#=========================================

nbincr=2

L_INST2=DEFI_LIST_REEL(DEBUT=0.0,
                      INTERVALLE=(_F(JUSQU_A=0.1,
                                     NOMBRE=1,),
                                  _F(JUSQU_A=0.9,
                                     NOMBRE=1,),
                                  _F(JUSQU_A=1.0,
                                     NOMBRE=1,),
                                  _F(JUSQU_A=2.0,
                                     NOMBRE=nbincr,),
                                  _F(JUSQU_A=3.0,
                                     NOMBRE=nbincr,),
                                  _F(JUSQU_A=4.0,
                                     NOMBRE=1,),),);

DEFLIST2=DEFI_LIST_INST(DEFI_LIST=_F(METHODE='MANUEL',
                                    LIST_INST=L_INST2,),
                       ECHEC=_F(SUBD_NIVEAU=10,SUBD_PAS=4),
                       );

# VMIS_CINE_LINE
# --------------

U2=STAT_NON_LINE(MODELE=MO,
                CHAM_MATER=CM,
                EXCIT=(_F(CHARGE=LIAISON,),
                       _F(CHARGE=TRACTION,
                          FONC_MULT=SIGMA_F,),
                       _F(CHARGE=CISAIL,
                          FONC_MULT=TAU_F,),),
                COMP_INCR=_F(RELATION='VMIS_CINE_LINE', RESI_RADI_RELA=0.02),
                INCREMENT=_F(LIST_INST=DEFLIST2,),
                NEWTON=_F(MATRICE='TANGENTE',REAC_ITER=3,),
                RECH_LINEAIRE=_F(ITER_LINE_MAXI=5,),
                CONVERGENCE=_F(ITER_GLOB_MAXI=20,),
                  SUIVI_DDL=(
                              _F(NOM_CMP    ='SIXX',
                                 NOM_CHAM   ='SIEF_ELGA',
                                 TOUT       = 'OUI',
                                 EVAL_ELGA  ='MAX',
                                 EVAL_CHAM ='MAX',),
                              _F(NOM_CMP    ='SIXY',
                                 NOM_CHAM   ='SIEF_ELGA',
                                 TOUT       = 'OUI',
                                 EVAL_ELGA  ='MAX',
                                 EVAL_CHAM ='MAX',),
                              _F(NOM_CMP    ='V1',
                                 NOM_CHAM   ='VARI_ELGA',
                                 TOUT       = 'OUI',
                                 EVAL_ELGA  ='MAX',
                                 EVAL_CHAM ='MAX',),
                              _F(NOM_CMP    ='V4',
                                 NOM_CHAM   ='VARI_ELGA',
                                 TOUT       = 'OUI',
                                 EVAL_ELGA  ='MAX',
                                 EVAL_CHAM ='MAX',),
                                 ),
                );

U2=CALC_ELEM(reuse =U2,
            RESULTAT=U2,
            OPTION=('VARI_ELNO','EPSI_ELNO','DERA_ELNO',),);


# VMIS_ECMI_LINE
# --------------

U3=STAT_NON_LINE(MODELE=MO,
                CHAM_MATER=CM,
                EXCIT=(_F(CHARGE=LIAISON,),
                       _F(CHARGE=TRACTION,
                          FONC_MULT=SIGMA_F,),
                       _F(CHARGE=CISAIL,
                          FONC_MULT=TAU_F,),),
                COMP_INCR=_F(RELATION='VMIS_ECMI_LINE',
                             RESI_RADI_RELA=0.02
                             ),
                INCREMENT=_F(LIST_INST=DEFLIST2,),
                NEWTON=_F(MATRICE='TANGENTE',REAC_ITER=3,),
                RECH_LINEAIRE=_F(ITER_LINE_MAXI=5,),
                CONVERGENCE=_F(ITER_GLOB_MAXI=20,),
                  SUIVI_DDL=(
                              _F(NOM_CMP    ='SIXX',
                                 NOM_CHAM   ='SIEF_ELGA',
                                 TOUT       = 'OUI',
                                 EVAL_ELGA  ='MAX',
                                 EVAL_CHAM ='MAX',),
                              _F(NOM_CMP    ='SIXY',
                                 NOM_CHAM   ='SIEF_ELGA',
                                 TOUT       = 'OUI',
                                 EVAL_ELGA  ='MAX',
                                 EVAL_CHAM ='MAX',),
                              _F(NOM_CMP    ='V3',
                                 NOM_CHAM   ='VARI_ELGA',
                                 TOUT       = 'OUI',
                                 EVAL_ELGA  ='MAX',
                                 EVAL_CHAM ='MAX',),
                              _F(NOM_CMP    ='V6',
                                 NOM_CHAM   ='VARI_ELGA',
                                 TOUT       = 'OUI',
                                 EVAL_ELGA  ='MAX',
                                 EVAL_CHAM ='MAX',),
                                 ),
                );

U3=CALC_ELEM(reuse =U3,
            RESULTAT=U3,
            OPTION=('VARI_ELNO','EPSI_ELNO','DERA_ELNO',),);


# VMIS_CIN1_CHAB
# --------------



U4=STAT_NON_LINE(MODELE=MO,
                CHAM_MATER=CM,
                EXCIT=(_F(CHARGE=LIAISON,),
                       _F(CHARGE=TRACTION,
                          FONC_MULT=SIGMA_F,),
                       _F(CHARGE=CISAIL,
                          FONC_MULT=TAU_F,),),
                COMP_INCR=_F(RELATION='VMIS_CIN1_CHAB',
                             RESI_RADI_RELA=0.02,
                            # RESI_INTE_RELA=1.E-8,
                             ITER_INTE_MAXI=100,
                             ),
                INCREMENT=_F(LIST_INST=DEFLIST2,),
                NEWTON=_F(MATRICE='TANGENTE',REAC_ITER=3,),
                RECH_LINEAIRE=_F(ITER_LINE_MAXI=5,),
                CONVERGENCE=_F(ITER_GLOB_MAXI=20,),
                  SUIVI_DDL=(
                              _F(NOM_CMP    ='SIXX',
                                 NOM_CHAM   ='SIEF_ELGA',
                                 TOUT       = 'OUI',
                                 EVAL_ELGA  ='MAX',
                                 EVAL_CHAM ='MAX',),
                              _F(NOM_CMP    ='SIXY',
                                 NOM_CHAM   ='SIEF_ELGA',
                                 TOUT       = 'OUI',
                                 EVAL_ELGA  ='MAX',
                                 EVAL_CHAM ='MAX',),
                              _F(NOM_CMP    ='V3',
                                 NOM_CHAM   ='VARI_ELGA',
                                 TOUT       = 'OUI',
                                 EVAL_ELGA  ='MAX',
                                 EVAL_CHAM ='MAX',),
                              _F(NOM_CMP    ='V6',
                                 NOM_CHAM   ='VARI_ELGA',
                                 TOUT       = 'OUI',
                                 EVAL_ELGA  ='MAX',
                                 EVAL_CHAM ='MAX',),
                                 ),
                );

U4=CALC_ELEM(reuse =U4,
            RESULTAT=U4,
            OPTION=('VARI_ELNO','EPSI_ELNO','DERA_ELNO',),);

TEST_RESU(RESU=(
                _F(RESULTAT=U2,INST=1.0,NOM_CHAM='EPSI_ELNO',NOM_CMP='EPXX',MAILLE='CUBE',NOEUD='NO2',
                   REFERENCE='AUTRE_ASTER',VALE=0.0148297,),

                _F(RESULTAT=U3,INST=1.0,NOM_CHAM='EPSI_ELNO',NOM_CMP='EPXX',MAILLE='CUBE',NOEUD='NO2',
                   REFERENCE='AUTRE_ASTER',VALE=0.0148297,),

                _F(RESULTAT=U4,INST=1.0,NOM_CHAM='EPSI_ELNO',NOM_CMP='EPXX',MAILLE='CUBE',NOEUD='NO2',
                   REFERENCE='AUTRE_ASTER',VALE=0.0148297,PRECISION=0.01),


                _F(RESULTAT=U2,INST=1.0,NOM_CHAM='EPSI_ELNO',NOM_CMP='EPXY',MAILLE='CUBE',NOEUD='NO2',
                   REFERENCE='AUTRE_ASTER',VALE=0.0136014,),

                _F(RESULTAT=U3,INST=1.0,NOM_CHAM='EPSI_ELNO',NOM_CMP='EPXY',MAILLE='CUBE',NOEUD='NO2',
                   REFERENCE='AUTRE_ASTER',VALE=0.0136014,),

                _F(RESULTAT=U4,INST=1.0,NOM_CHAM='EPSI_ELNO',NOM_CMP='EPXY',MAILLE='CUBE',NOEUD='NO2',
                   REFERENCE='AUTRE_ASTER',VALE=0.0136014,PRECISION=0.01),


                _F(RESULTAT=U2,INST=1.0,NOM_CHAM='VARI_ELNO',NOM_CMP='V1',  MAILLE='CUBE',NOEUD='NO2',
                   REFERENCE='AUTRE_ASTER',VALE=18.264,),

                _F(RESULTAT=U2,INST=1.0,NOM_CHAM='VARI_ELNO',NOM_CMP='V4',  MAILLE='CUBE',NOEUD='NO2',
                   REFERENCE='AUTRE_ASTER',VALE=16.8688,),


                _F(RESULTAT=U2,INST=2.0,NOM_CHAM='EPSI_ELNO',NOM_CMP='EPXX',MAILLE='CUBE',NOEUD='NO2',
                   REFERENCE='AUTRE_ASTER',VALE=0.0406612,),

                _F(RESULTAT=U3,INST=2.0,NOM_CHAM='EPSI_ELNO',NOM_CMP='EPXX',MAILLE='CUBE',NOEUD='NO2',
                   REFERENCE='AUTRE_ASTER',VALE=0.0406612,),

                _F(RESULTAT=U4,INST=2.0,NOM_CHAM='EPSI_ELNO',NOM_CMP='EPXX',MAILLE='CUBE',NOEUD='NO2',
                   REFERENCE='AUTRE_ASTER',VALE=0.0406612,PRECISION=0.01,),


                _F(RESULTAT=U2,INST=2.0,NOM_CHAM='EPSI_ELNO',NOM_CMP='EPXY',MAILLE='CUBE',NOEUD='NO2',
                   REFERENCE='AUTRE_ASTER',VALE=0.01978,PRECISION=0.01),

                _F(RESULTAT=U3,INST=2.0,NOM_CHAM='EPSI_ELNO',NOM_CMP='EPXY',MAILLE='CUBE',NOEUD='NO2',
                   REFERENCE='AUTRE_ASTER',VALE=0.01978,PRECISION=0.01),

                _F(RESULTAT=U4,INST=2.0,NOM_CHAM='EPSI_ELNO',NOM_CMP='EPXY',MAILLE='CUBE',NOEUD='NO2',
                   REFERENCE='AUTRE_ASTER',VALE=0.01978,PRECISION=(0.02,0.0001),),


                _F(RESULTAT=U2,INST=3.0,NOM_CHAM='EPSI_ELNO',NOM_CMP='EPXX',MAILLE='CUBE',NOEUD='NO2',
                   REFERENCE='AUTRE_ASTER',VALE=0.044151,),

                _F(RESULTAT=U3,INST=3.0,NOM_CHAM='EPSI_ELNO',NOM_CMP='EPXX',MAILLE='CUBE',NOEUD='NO2',
                   REFERENCE='AUTRE_ASTER',VALE=0.044151,),

                _F(RESULTAT=U4,INST=3.0,NOM_CHAM='EPSI_ELNO',NOM_CMP='EPXX',MAILLE='CUBE',NOEUD='NO2',
                   REFERENCE='AUTRE_ASTER',VALE=0.0441518,PRECISION=0.02,),


                _F(RESULTAT=U2,INST=3.0,NOM_CHAM='EPSI_ELNO',NOM_CMP='EPXY',MAILLE='CUBE',NOEUD='NO2',
                   REFERENCE='AUTRE_ASTER',VALE=0.0190853,PRECISION=0.01),

                _F(RESULTAT=U3,INST=3.0,NOM_CHAM='EPSI_ELNO',NOM_CMP='EPXY',MAILLE='CUBE',NOEUD='NO2',
                   REFERENCE='AUTRE_ASTER',VALE=0.0190853,PRECISION=0.01),

                _F(RESULTAT=U4,INST=3.0,NOM_CHAM='EPSI_ELNO',NOM_CMP='EPXY',MAILLE='CUBE',NOEUD='NO2',
                   REFERENCE='AUTRE_ASTER',VALE=0.0190853,PRECISION=0.02),


# test de DERA_ELNO / ERR_RADI

                _F(RESULTAT=U2,INST=1.5,NOM_CHAM='DERA_ELNO',NOM_CMP='ERR_RADI',MAILLE='CUBE',NOEUD='NO2',
                   REFERENCE='NON_REGRESSION',VALE=0.011798,),

                _F(RESULTAT=U3,INST=1.5,NOM_CHAM='DERA_ELNO',NOM_CMP='ERR_RADI',MAILLE='CUBE',NOEUD='NO2',
                   REFERENCE='NON_REGRESSION',VALE=0.011798,),

                _F(RESULTAT=U4,INST=1.5,NOM_CHAM='DERA_ELNO',NOM_CMP='ERR_RADI',MAILLE='CUBE',NOEUD='NO2',
                   REFERENCE='NON_REGRESSION',VALE=0.011798,),


                _F(RESULTAT=U2,INST=2.5,NOM_CHAM='DERA_ELNO',NOM_CMP='ERR_RADI',MAILLE='CUBE',NOEUD='NO4',
                   REFERENCE='NON_REGRESSION',VALE=0.01956,),

                _F(RESULTAT=U3,INST=2.5,NOM_CHAM='DERA_ELNO',NOM_CMP='ERR_RADI',MAILLE='CUBE',NOEUD='NO4',
                   REFERENCE='NON_REGRESSION',VALE=0.01956,),

                _F(RESULTAT=U4,INST=2.5,NOM_CHAM='DERA_ELNO',NOM_CMP='ERR_RADI',MAILLE='CUBE',NOEUD='NO4',
                   REFERENCE='NON_REGRESSION',VALE=0.01956,),

               ),);









# l'erreur est || dn || / 2 = sin (alpha / 2;)

RADI1=RECU_FONCTION(RESULTAT=U,
                   NOM_CHAM='DERA_ELNO',
                   NOM_CMP='ERR_RADI',
                   MAILLE='CUBE',
                   NOEUD='NO2',
                   NOM_RESU='X',
                  );

RADI2=RECU_FONCTION(RESULTAT=U2,
                   NOM_CHAM='DERA_ELNO',
                   NOM_CMP='ERR_RADI',
                   MAILLE='CUBE',
                   NOEUD='NO2',
                   NOM_RESU='X',
                  );

RADI3=RECU_FONCTION(RESULTAT=U3,
                   NOM_CHAM='DERA_ELNO',
                   NOM_CMP='ERR_RADI',
                   MAILLE='CUBE',
                   NOEUD='NO2',
                   NOM_RESU='X',
                  );

RADI4=RECU_FONCTION(RESULTAT=U4,
                   NOM_CHAM='DERA_ELNO',
                   NOM_CMP='ERR_RADI',
                   MAILLE='CUBE',
                   NOEUD='NO2',
                   NOM_RESU='X',
                  );


IMPR_FONCTION(FORMAT='XMGRACE',
              UNITE=38,
              COURBE=(
              _F(FONCTION=RADI1,LEGENDE='radi=sin(alpha/2) ref : 30 increments, VMIS_CINE_LINE',),
              _F(FONCTION=RADI2,LEGENDE='radi=sin(alpha/2) RESI_RADI_RELA=0.02, VMIS_CINE_LINE',),
              _F(FONCTION=RADI3,LEGENDE='radi=sin(alpha/2) RESI_RADI_RELA=0.02, VMIS_ECMI_LINE',),
              _F(FONCTION=RADI4,LEGENDE='radi=sin(alpha/2) RESI_RADI_RELA=0.02, VMIS_CIN1_CHAB',),
                        ),
              TITRE='Radi et iso-erreur',
              LEGENDE_X='Inst',
              LEGENDE_Y='crit erreur',);


FIN();

