# MODIF  DATE 10/10/2012   AUTEUR COURTOIS M.COURTOIS 
# TITRE VALIDATION DU CRITERE DE FLAMBEMENT PAR RECHERCHE SELECTIVE DES VALEURS PROPRES
# ssnp306a.para = tps_job 60 mem_job 512Mo ncpus 1 liste_test R
#            CONFIGURATION MANAGEMENT OF EDF VERSION
# ======================================================================
# COPYRIGHT (C) 1991 - 2012  EDF R&D                  WWW.CODE-ASTER.ORG
# THIS PROGRAM IS FREE SOFTWARE; YOU CAN REDISTRIBUTE IT AND/OR MODIFY
# IT UNDER THE TERMS OF THE GNU GENERAL PUBLIC LICENSE AS PUBLISHED BY
# THE FREE SOFTWARE FOUNDATION; EITHER VERSION 2 OF THE LICENSE, OR
# (AT YOUR OPTION) ANY LATER VERSION.
#
# THIS PROGRAM IS DISTRIBUTED IN THE HOPE THAT IT WILL BE USEFUL, BUT
# WITHOUT ANY WARRANTY; WITHOUT EVEN THE IMPLIED WARRANTY OF
# MERCHANTABILITY OR FITNESS FOR A PARTICULAR PURPOSE. SEE THE GNU
# GENERAL PUBLIC LICENSE FOR MORE DETAILS.
#
# YOU SHOULD HAVE RECEIVED A COPY OF THE GNU GENERAL PUBLIC LICENSE
# ALONG WITH THIS PROGRAM; IF NOT, WRITE TO EDF R&D CODE_ASTER,
#    1 AVENUE DU GENERAL DE GAULLE, 92141 CLAMART CEDEX, FRANCE.
# ======================================================================


DEBUT(CODE=_F(NOM='SSNP306A',
              NIV_PUB_WEB='INTERNET',),
              DEBUG=_F(JXVERI='OUI',SDVERI='OUI'))


MAILLAGE =  LIRE_MAILLAGE()


TEMPS1   = DEFI_LIST_REEL( DEBUT=0.0,
                           INTERVALLE=_F(JUSQU_A=100.00,
                           NOMBRE=100,)
                          )

MATER    = DEFI_MATERIAU( ELAS = _F(E  = 3.E4,
                                    NU = 0.25,
                                    ),
                          BETON_ECRO_LINE = _F(SYT = 3.0,
                                               D_SIGM_EPSI = -1.95E3),
                          NON_LOCAL  = _F(C_GRAD_VARI = 8.667E-05,
                                          PENA_LAGR=8.667E-03)
                         )

CHMAT    = AFFE_MATERIAU(MAILLAGE=MAILLAGE,
                         AFFE=_F(TOUT='OUI',
                                 MATER=MATER),);

COEF1    = DEFI_FONCTION( NOM_PARA    = 'INST',
                          PROL_DROITE = 'LINEAIRE',
                          VALE=( 0.0,  0.0,
                                 1.0,  2.0E-6,)
                         )


#***********************************************************************
#    CALCUL NON-LOCAL AVEC SUIVI DES MODES PROPRES
#***********************************************************************


MO     = AFFE_MODELE(MAILLAGE=MAILLAGE,
                     AFFE=_F(TOUT='OUI',
                             PHENOMENE='MECANIQUE',
                             MODELISATION='D_PLAN_GRAD_VARI',
                            ),
                     );

CH_U1  = AFFE_CHAR_CINE( MODELE   = MO,
                         MECA_IMPO= ( _F( MAILLE = 'M7', DY = 1.,),),
                        )

CH_U2  = AFFE_CHAR_CINE( MODELE   = MO,
                         MECA_IMPO= ( _F(GROUP_NO ='DEMI_Y', DY = 0.5,),),
                        )

CH_U3  = AFFE_CHAR_CINE( MODELE   = MO,
                         MECA_IMPO= ( _F( MAILLE = 'M3', DY = 0.,),),
                        )

CH_U4  = AFFE_CHAR_CINE( MODELE   = MO,
                         MECA_IMPO= ( _F(NOEUD ='N1', DX = 0.,),),
                        )


EVOL   = STAT_NON_LINE( MODELE     = MO,INFO=2,
                        CHAM_MATER = CHMAT,
                        EXCIT      = (_F( CHARGE       = CH_U1,
                                          FONC_MULT    = COEF1),
                                      _F( CHARGE       = CH_U2,
                                          FONC_MULT    = COEF1),
                                      _F( CHARGE       = CH_U3),
                                      _F( CHARGE       = CH_U4),
                                      ),
                        CRIT_STAB  = _F( RIGI_GEOM  = 'NON',
                                         DDL_EXCLUS = ('VARI','LAG_GV'),
                                         NB_FREQ    = 1 ,
                                         ),
                        COMP_INCR  = _F( TOUT           = 'OUI',
                                         RELATION       = 'ENDO_ISOT_BETON',
                                        ),
                        NEWTON     = _F( MATRICE        = 'TANGENTE',
                                         REAC_ITER      = 1,),
                        CONVERGENCE= _F( RESI_GLOB_MAXI = 1.E-8,
                                         ITER_GLOB_MAXI = 50,),
                        INCREMENT  = _F( LIST_INST      = TEMPS1,
                                        ),
                      )


#***********************************************************************
#    TEST COMPARAISON AVEC D_PLAN
#***********************************************************************


TEST_RESU(RESU=_F(NUME_ORDRE=1,
                  PARA='CHAR_CRIT',
                  RESULTAT=EVOL,
                  VALE_CALC= 1.64167787E+03,
                  VALE_REFE=1641.6778658487899,
                  REFERENCE='NON_DEFINI',
                  PRECISION=2.E-3,),
          )

TEST_RESU(RESU=_F(NUME_ORDRE=40,
                  PARA='CHAR_CRIT',
                  RESULTAT=EVOL,
                  VALE_CALC= 1.64167787E+03,
                  VALE_REFE=1641.6778658487899,
                  REFERENCE='NON_DEFINI',
                  PRECISION=2.E-3,),
          )

TEST_RESU(RESU=_F(NUME_ORDRE=50,
                  PARA='CHAR_CRIT',
                  RESULTAT=EVOL,
                  VALE_CALC= 1.55452334E+03,
                  VALE_REFE=1553.5002649999999,
                  REFERENCE='NON_DEFINI',
                  PRECISION=2.E-3,),
          )

TEST_RESU(RESU=_F(NUME_ORDRE=60,
                  PARA='CHAR_CRIT',
                  RESULTAT=EVOL,
                  VALE_CALC= 1.38174422E+03,
                  VALE_REFE=1380.694904,
                  REFERENCE='NON_DEFINI',
                  PRECISION=2.E-3,),
          )

TEST_RESU(RESU=_F(NUME_ORDRE=70,
                  PARA='CHAR_CRIT',
                  RESULTAT=EVOL,
                  VALE_CALC= 1.24978973E+03,
                  VALE_REFE=1248.744197,
                  REFERENCE='NON_DEFINI',
                  PRECISION=2.E-3,),
          )

TEST_RESU(RESU=_F(NUME_ORDRE=80,
                  PARA='CHAR_CRIT',
                  RESULTAT=EVOL,
                  VALE_CALC= 1.14395221E+03,
                  VALE_REFE=1142.931769,
                  REFERENCE='NON_DEFINI',
                  PRECISION=2.E-3,),
          )

TEST_RESU(RESU=_F(NUME_ORDRE=90,
                  PARA='CHAR_CRIT',
                  RESULTAT=EVOL,
                  VALE_CALC= 1.05602642E+03,
                  VALE_REFE=1055.044717,
                  REFERENCE='NON_DEFINI',
                  PRECISION=2.E-3,),
          )

TEST_RESU(RESU=_F(NUME_ORDRE=100,
                  PARA='CHAR_CRIT',
                  RESULTAT=EVOL,
                  VALE_CALC=981.054848906,
                  VALE_REFE=980.12021500000003,
                  REFERENCE='NON_DEFINI',
                  PRECISION=2.E-3,),
          )

FIN();
