# MODIF  DATE 06/09/2004   AUTEUR CIBHHLV L.VIVAN 
# TITRE CONTACT DE DEUX BLOCS
#            CONFIGURATION MANAGEMENT OF EDF VERSION
# ======================================================================
# COPYRIGHT (C) 1991 - 2003  EDF R&D                  WWW.CODE-ASTER.ORG
# THIS PROGRAM IS FREE SOFTWARE; YOU CAN REDISTRIBUTE IT AND/OR MODIFY  
# IT UNDER THE TERMS OF THE GNU GENERAL PUBLIC LICENSE AS PUBLISHED BY  
# THE FREE SOFTWARE FOUNDATION; EITHER VERSION 2 OF THE LICENSE, OR     
# (AT YOUR OPTION) ANY LATER VERSION.                                                    
#                                                                       
# THIS PROGRAM IS DISTRIBUTED IN THE HOPE THAT IT WILL BE USEFUL, BUT   
# WITHOUT ANY WARRANTY; WITHOUT EVEN THE IMPLIED WARRANTY OF            
# MERCHANTABILITY OR FITNESS FOR A PARTICULAR PURPOSE. SEE THE GNU      
# GENERAL PUBLIC LICENSE FOR MORE DETAILS.                              
#                                                                       
# YOU SHOULD HAVE RECEIVED A COPY OF THE GNU GENERAL PUBLIC LICENSE     
# ALONG WITH THIS PROGRAM; IF NOT, WRITE TO EDF R&D CODE_ASTER,         
#    1 AVENUE DU GENERAL DE GAULLE, 92141 CLAMART CEDEX, FRANCE.        
# ======================================================================
# CAS_TEST__:SSNP121D
# ON TEST LE CONTACT QUADRATIQUE
# MODELISATION 3D ELEMENTS QUADRATIQUES
#

DEBUT(CODE=_F( NOM = 'SSNP121D',NIV_PUB_WEB='INTERNET'));
PRE_GIBI();
MA=LIRE_MAILLAGE();
MA=DEFI_GROUP( reuse=MA,MAILLAGE=MA,CREA_GROUP_NO=(
_F(  GROUP_MA = 'SURESC',),
_F(  GROUP_MA = 'SURMAI',),
_F(  GROUP_MA = 'SURCHA',),
_F(  GROUP_MA = 'ENCAST',),
),
);

#---------------------------------------------------
MO=AFFE_MODELE(MAILLAGE=MA,
               AFFE=(_F(GROUP_MA=('V1','V2'),
                       PHENOMENE='MECANIQUE',
                    MODELISATION='3D',),),);
#--------------------------------------------------
MA=MODI_MAILLAGE(reuse =MA,
               MAILLAGE=MA,
           ORIE_PEAU_3D=_F(GROUP_MA='SURESC',),
                 MODELE=MO,);

MA=MODI_MAILLAGE(reuse =MA,
               MAILLAGE=MA,
           ORIE_PEAU_3D=_F(GROUP_MA='SURMAI',),
                 MODELE=MO,);

MA=MODI_MAILLAGE(reuse =MA,
               MAILLAGE=MA,
           ORIE_PEAU_3D=_F(GROUP_MA='SURCHA',),
                 MODELE=MO,);

MA=MODI_MAILLAGE(reuse =MA,
               MAILLAGE=MA,
           ORIE_PEAU_3D=_F(GROUP_MA='ENCAST',),
                 MODELE=MO,);
#--------------------------------------------------

MAT2=DEFI_MATERIAU(ELAS=_F(E = 20.0E+05,NU = 0.,));
#
MAT1=DEFI_MATERIAU(ELAS=_F( E = 20.0E+05,NU = 0.,),);

CHMAT=AFFE_MATERIAU(MAILLAGE=MA,
                        AFFE=(_F(GROUP_MA = ('V1'),
                                    MATER = MAT2,),
                              _F(GROUP_MA = ('V2'),
                                    MATER = MAT1,),),)
#--------------------------------------------------------
CHA1=AFFE_CHAR_MECA(MODELE=MO,
   DDL_IMPO=(_F(GROUP_NO = 'SURCHA',  DX = 0.0, DY = -0.00, DZ = -.10,),
             _F(GROUP_NO = 'ENCAST',  DX = 0.0, DY = -0.00, DZ = 0.0,),),);

#PRESSION=AFFE_CHAR_MECA(
#        MODELE=MO,
#        PRES_REP=_F(GROUP_MA='CD',PRES=10.0,),

CHA2=AFFE_CHAR_MECA(MODELE=MO,
                      INFO=2,
                   CONTACT=(_F(GROUP_MA_ESCL = 'SURESC',
                               GROUP_MA_MAIT = 'SURMAI',
                               INTEGRATION = 'NOEUD',
                            COEF_REGU_CONT = 1000.,
                                    LISSAGE='NON',
                                 MODL_AXIS = 'NON',
                            ITER_CONT_MAXI = 30,
                            ITER_GEOM_MAXI = 4,
                                   METHODE = 'CONTINUE',),),);

#-----------------------------------------------------------
L_INST=DEFI_LIST_REEL(DEBUT=0.0,
                 INTERVALLE=_F(JUSQU_A=1., NOMBRE=1,));

FONC=DEFI_FONCTION(NOM_PARA='INST',
                       VALE=(0., 0.0,1., 1.0,));
#-----------------------------------------------
RESU=STAT_NON_LINE (MODELE     = MO,
                    CHAM_MATER = CHMAT,
                    INCREMENT  =_F(LIST_INST=L_INST,
                               NUME_INST_FIN=1,),
                    EXCIT      =(_F(CHARGE=CHA1,
                                 FONC_MULT=FONC,),
                                _F(CHARGE=CHA2,),),
#                               _F(CHARGE=PRESSION),),
                    COMP_ELAS  =_F(RELATION='ELAS'),
                         NEWTON=_F(MATRICE='ELASTIQUE'),
                    CONVERGENCE=_F(ARRET='OUI',
                          ITER_GLOB_MAXI=30,
                          RESI_GLOB_MAXI=1.E-8,),);


RESU=CALC_ELEM( reuse=RESU,
             RESULTAT=RESU,
               MODELE=MO,
           CHAM_MATER=CHMAT,
               OPTION=('SIEF_ELNO_ELGA','EQUI_ELNO_SIGM'));

RESU=CALC_NO( reuse=RESU,
           RESULTAT=RESU,
         CHAM_MATER=CHMAT,
             OPTION=('SIEF_NOEU_ELGA','EQUI_NOEU_SIGM'));

SIELNO=CREA_CHAMP(  OPERATION='EXTR',
                    TYPE_CHAM='ELNO_SIEF_R',
                     NOM_CHAM='SIEF_ELNO_ELGA',
                     RESULTAT=RESU,
                   NUME_ORDRE=1);

IMPR_RESU(MODELE=MO,FORMAT='RESULTAT',
            RESU=(_F( MAILLAGE=MA,
                      GROUP_NO=('SURESC','SURMAI'),
                      RESULTAT=RESU,
                      NOM_CHAM='DEPL',
                      NOM_CMP=('LAGS_C','DX','DY','DZ'),),),);

TEST_RESU(   RESU=_F(  RESULTAT = RESU,
                     NUME_ORDRE = 1,
                      GROUP_NO = 'A21',
                      NOM_CHAM = 'DEPL',
                      CRITERE = 'RELATIF',
                      REFERENCE = 'ANALYTIQUE',
                      PRECISION = 1.E-3,
                      NOM_CMP = 'LAGS_C',
                      VALE = -1.E+5),
            );

TEST_RESU(   RESU=_F(  RESULTAT = RESU,
                     NUME_ORDRE = 1,
                      GROUP_NO = 'A22',
                      NOM_CHAM = 'DEPL',
                      CRITERE = 'RELATIF',
                      REFERENCE = 'ANALYTIQUE',
                      PRECISION = 1.E-3,
                      NOM_CMP = 'LAGS_C',
                      VALE = -1.E+5),
            );

TEST_RESU(   RESU=_F(  RESULTAT = RESU,
                     NUME_ORDRE = 1,
                      GROUP_NO = 'A23',
                      NOM_CHAM = 'DEPL',
                      CRITERE = 'RELATIF',
                      REFERENCE = 'ANALYTIQUE',
                      PRECISION = 1.E-3,
                      NOM_CMP = 'LAGS_C',
                      VALE = -1.E+5),
            );

TEST_RESU(   RESU=_F(  RESULTAT = RESU,
                     NUME_ORDRE = 1,
                      GROUP_NO = 'A24',
                      NOM_CHAM = 'DEPL',
                      CRITERE = 'RELATIF',
                      REFERENCE = 'ANALYTIQUE',
                      PRECISION = 1.E-3,
                      NOM_CMP = 'LAGS_C',
                      VALE = -1.E+5),
            );


TEST_RESU(RESU=_F(RESULTAT=RESU,
                  NUME_ORDRE=1,
                  NOM_CHAM='DEPL',
                  NOM_CMP='LAGS_C',
                  TYPE_TEST='MAX',
                  VALE=-100000.0,
                  CRITERE='RELATIF',
                  PRECISION=0.001,
                  REFERENCE='ANALYTIQUE',),);
                  
TEST_RESU(RESU=_F(RESULTAT=RESU,
                  NUME_ORDRE=1,
                  NOM_CHAM='DEPL',
                  NOM_CMP='LAGS_C',
                  TYPE_TEST='MIN',
                  VALE=-100000.0,
                  CRITERE='RELATIF',
                  PRECISION=0.001,
                  REFERENCE='ANALYTIQUE',),);

TEST_RESU(RESU=_F(RESULTAT=RESU,
                  NUME_ORDRE=1,
                  NOM_CHAM='DEPL',
                  NOM_CMP='DZ',
                  GROUP_NO='A21',
                  VALE=-0.05,
                  CRITERE='RELATIF',
                  PRECISION=0.001,
                  REFERENCE='ANALYTIQUE',),);

TEST_RESU(RESU=_F(RESULTAT=RESU,
                  NUME_ORDRE=1,
                  NOM_CHAM='DEPL',
                  NOM_CMP='DZ',
                  GROUP_NO='A22',
                  VALE=-0.05,
                  CRITERE='RELATIF',
                  PRECISION=0.001,
                  REFERENCE='ANALYTIQUE',),);

TEST_RESU(RESU=_F(RESULTAT=RESU,
                  NUME_ORDRE=1,
                  NOM_CHAM='DEPL',
                  NOM_CMP='DZ',
                  GROUP_NO='A23',
                  VALE=-0.05,
                  CRITERE='RELATIF',
                  PRECISION=0.001,
                  REFERENCE='ANALYTIQUE',),);

TEST_RESU(RESU=_F(RESULTAT=RESU,
                  NUME_ORDRE=1,
                  NOM_CHAM='DEPL',
                  NOM_CMP='DZ',
                  GROUP_NO='A24',
                  VALE=-0.05,
                  CRITERE='RELATIF',
                  PRECISION=0.001,
                  REFERENCE='ANALYTIQUE',),);
#;
FIN( );
#
