# MODIF  DATE 17/10/2011   AUTEUR ABBAS M.ABBAS 
# TITRE CONTACT DE DEUX BLOCS
# ssnp121o.para = tps_job 60 mem_job 100Mo ncpus 1 liste_test R
#            CONFIGURATION MANAGEMENT OF EDF VERSION
# ======================================================================
# COPYRIGHT (C) 1991 - 2011  EDF R&D                  WWW.CODE-ASTER.ORG
# THIS PROGRAM IS FREE SOFTWARE; YOU CAN REDISTRIBUTE IT AND/OR MODIFY
# IT UNDER THE TERMS OF THE GNU GENERAL PUBLIC LICENSE AS PUBLISHED BY
# THE FREE SOFTWARE FOUNDATION; EITHER VERSION 2 OF THE LICENSE, OR
# (AT YOUR OPTION) ANY LATER VERSION.
#
# THIS PROGRAM IS DISTRIBUTED IN THE HOPE THAT IT WILL BE USEFUL, BUT
# WITHOUT ANY WARRANTY; WITHOUT EVEN THE IMPLIED WARRANTY OF
# MERCHANTABILITY OR FITNESS FOR A PARTICULAR PURPOSE. SEE THE GNU
# GENERAL PUBLIC LICENSE FOR MORE DETAILS.
#
# YOU SHOULD HAVE RECEIVED A COPY OF THE GNU GENERAL PUBLIC LICENSE
# ALONG WITH THIS PROGRAM; IF NOT, WRITE TO EDF R&D CODE_ASTER,
#    1 AVENUE DU GENERAL DE GAULLE, 92141 CLAMART CEDEX, FRANCE.
# ======================================================================
# CAS_TEST__:SSNP121O
# ON TESTE LE CONTACT CONTINUE AVEC DES ELEMENTS DE BARSOUM
# EN FOND DE FISSURE (3D)
# MODELISATION LINEAIRE QUADRATIQUE
#

DEBUT(CODE=_F(NOM='SSNP121O', NIV_PUB_WEB='INTERNET'), DEBUG=_F(SDVERI='OUI'),IGNORE_ALARM='CONTACT3_16',)
PRE_GIBI();
MA=LIRE_MAILLAGE();
MA=DEFI_GROUP( reuse=MA,MAILLAGE=MA,CREA_GROUP_NO=(
_F(  GROUP_MA = 'SURESC',),
_F(  GROUP_MA = 'SURMAI',),
_F(  GROUP_MA = 'SURCHA',),
_F(  GROUP_MA = 'ENCAST',),
),
);

#---------------------------------------------------
MO=AFFE_MODELE(MAILLAGE=MA,
               AFFE=(_F(GROUP_MA=('V1','V2','SURESC','SURMAI'),
                       PHENOMENE='MECANIQUE',
                    MODELISATION='3D',),),);
#--------------------------------------------------
MA=MODI_MAILLAGE(reuse =MA,
               MAILLAGE=MA,
           ORIE_PEAU_3D=_F(GROUP_MA='SURESC',),
                 );

MA=MODI_MAILLAGE(reuse =MA,
               MAILLAGE=MA,
           ORIE_PEAU_3D=_F(GROUP_MA='SURMAI',),
                 );

MA=MODI_MAILLAGE(reuse =MA,
               MAILLAGE=MA,
           ORIE_PEAU_3D=_F(GROUP_MA='SURCHA',),
                 );

MA=MODI_MAILLAGE(reuse =MA,
               MAILLAGE=MA,
           ORIE_PEAU_3D=_F(GROUP_MA='ENCAST',),
                 );
MA=MODI_MAILLAGE(reuse =MA,
                       MAILLAGE=MA,
                       MODI_MAILLE=_F(OPTION='NOEUD_QUART',
                                      GROUP_MA_FOND='FONFIS',),
                       INFO=2,);
#--------------------------------------------------

MAT2=DEFI_MATERIAU(ELAS=_F(E = 20.0E+05,NU = 0.,));
#
MAT1=DEFI_MATERIAU(ELAS=_F( E = 20.0E+05,NU = 0.,),);

CHMAT=AFFE_MATERIAU(MAILLAGE=MA,
                        AFFE=(_F(GROUP_MA = ('V1'),
                                    MATER = MAT2,),
                              _F(GROUP_MA = ('V2'),
                                    MATER = MAT1,),),)
#--------------------------------------------------------
CHA1=AFFE_CHAR_MECA(MODELE=MO,
   DDL_IMPO=(_F(GROUP_NO = 'SURCHA',  DX = 0.0, DY = -0.00, DZ = -.10,),
             _F(GROUP_NO = 'ENCAST',  DX = 0.0, DY = -0.00, DZ = 0.0,),),);

#PRESSION=AFFE_CHAR_MECA(
#        MODELE=MO,
#        PRES_REP=_F(GROUP_MA='CD',PRES=10.0,),

CHA2 = DEFI_CONTACT(MODELE         = MO,
                    FORMULATION    = 'CONTINUE',
                    ITER_GEOM_MAXI = 4,
                    ALGO_RESO_CONT = 'NEWTON',

                    ZONE =(
                           _F(
                             GROUP_MA_ESCL = 'SURESC',
                             GROUP_MA_MAIT = 'SURMAI',
                             INTEGRATION   = 'SIMPSON',
                             ALGO_CONT     = 'STANDARD',
                             COEF_CONT     = 1000.,
                             FOND_FISSURE  = 'OUI',
                             GROUP_MA_FOND = 'FONFIS',
                             ),

                          ),
                   );

#-----------------------------------------------------------
L_INST=DEFI_LIST_REEL(DEBUT=0.0,
                 INTERVALLE=_F(JUSQU_A=1., NOMBRE=1,));

FONC=DEFI_FONCTION(NOM_PARA='INST',
                       VALE=(0., 0.0,1., 1.0,));
#-----------------------------------------------
RESU=STAT_NON_LINE (MODELE     = MO,
                    CHAM_MATER = CHMAT,
                    INCREMENT  =_F(LIST_INST=L_INST,
                                   NUME_INST_FIN=1,),
                    EXCIT      =(_F(CHARGE=CHA1,
                                 FONC_MULT=FONC,),),
#                               _F(CHARGE=PRESSION),),
                    CONTACT    = CHA2,
                    COMP_ELAS  =_F(
                                RELATION='ELAS'),
                    NEWTON     =_F(MATRICE='TANGENTE',
                                  REAC_ITER=1,
                                  REAC_INCR=1,),
                    CONVERGENCE=_F(ARRET='OUI',
                          ITER_GLOB_MAXI=30,
                          RESI_GLOB_MAXI=2.E-8,),);


RESU=CALC_ELEM( reuse=RESU,
             RESULTAT=RESU,


               OPTION=('SIGM_ELNO','SIEQ_ELNO'));

RESU=CALC_NO( reuse=RESU,
           RESULTAT=RESU,

             OPTION=('SIGM_NOEU','SIEQ_NOEU'));

SIELNO=CREA_CHAMP(  OPERATION='EXTR',
                    TYPE_CHAM='ELNO_SIEF_R',
                     NOM_CHAM='SIGM_ELNO',
                     RESULTAT=RESU,
                   NUME_ORDRE=1);

IMPR_RESU(MODELE=MO,
          FORMAT='CASTEM',
          UNITE=37,
          RESU=_F(RESULTAT=RESU,
                  MAILLAGE=MA,
                  NOM_CHAM='DEPL',
                  TOUT_ORDRE='OUI',
                  ),);

IMPR_RESU(MODELE=MO,FORMAT='RESULTAT',
            RESU=(_F( MAILLAGE=MA,
                      GROUP_NO=('SURESC'),
                      RESULTAT=RESU,
                      NOM_CHAM='DEPL',
                      NOM_CMP=('LAGS_C','DX','DY','DZ'),),),);

TEST_RESU(   RESU=_F( RESULTAT = RESU,
                      NUME_ORDRE = 1,
                      GROUP_NO = 'A21',
                      NOM_CHAM = 'DEPL',
                      CRITERE = 'RELATIF',
                      REFERENCE = 'ANALYTIQUE',
                      PRECISION = 1.E-2,
                      NOM_CMP = 'LAGS_C',
                      VALE = -1.E+5),
            );

TEST_RESU(   RESU=_F( RESULTAT = RESU,
                      NUME_ORDRE = 1,
                      GROUP_NO = 'A21',
                      NOM_CHAM = 'DEPL',
                      CRITERE = 'RELATIF',
                      REFERENCE = 'ANALYTIQUE',
                      PRECISION = 1.E-2,
                      NOM_CMP = 'DZ',
                      VALE = -0.05),
            );
TEST_RESU(   RESU=_F( RESULTAT = RESU,
                      NUME_ORDRE = 1,
                      GROUP_NO = 'A22',
                      NOM_CHAM = 'DEPL',
                      CRITERE = 'RELATIF',
                      REFERENCE = 'ANALYTIQUE',
                      PRECISION = 1.E-2,
                      NOM_CMP = 'LAGS_C',
                      VALE = -1.E+5),
            );

TEST_RESU(   RESU=_F( RESULTAT = RESU,
                      NUME_ORDRE = 1,
                      GROUP_NO = 'A22',
                      NOM_CHAM = 'DEPL',
                      CRITERE = 'RELATIF',
                      REFERENCE = 'ANALYTIQUE',
                      PRECISION = 1.E-2,
                      NOM_CMP = 'DZ',
                      VALE = -0.05),
            );

TEST_RESU(   RESU=_F( RESULTAT = RESU,
                      NUME_ORDRE = 1,
                      NOEUD = 'N129',
                      NOM_CHAM = 'DEPL',
                      CRITERE = 'RELATIF',
                      REFERENCE = 'ANALYTIQUE',
                      PRECISION = 1.E-2,
                      NOM_CMP = 'LAGS_C',
                      VALE = -1.E+5),
            );

TEST_RESU(   RESU=_F( RESULTAT = RESU,
                      NUME_ORDRE = 1,
                      NOEUD = 'N129',
                      NOM_CHAM = 'DEPL',
                      CRITERE = 'RELATIF',
                      REFERENCE = 'ANALYTIQUE',
                      PRECISION = 1.E-2,
                      NOM_CMP = 'DZ',
                      VALE = -0.05),
            );

TEST_RESU(   RESU=_F( RESULTAT = RESU,
                      NUME_ORDRE = 1,
                      NOEUD = 'N131',
                      NOM_CHAM = 'DEPL',
                      CRITERE = 'RELATIF',
                      REFERENCE = 'ANALYTIQUE',
                      PRECISION = 1.E-2,
                      NOM_CMP = 'LAGS_C',
                      VALE = -1.E+5),
            );

TEST_RESU(   RESU=_F( RESULTAT = RESU,
                      NUME_ORDRE = 1,
                      NOEUD = 'N131',
                      NOM_CHAM = 'DEPL',
                      CRITERE = 'RELATIF',
                      REFERENCE = 'ANALYTIQUE',
                      PRECISION = 1.E-2,
                      NOM_CMP = 'DZ',
                      VALE = -0.05),
            );

TEST_RESU(   RESU=_F( RESULTAT = RESU,
                      NUME_ORDRE = 1,
                      NOEUD = 'N136',
                      NOM_CHAM = 'DEPL',
                      CRITERE = 'RELATIF',
                      REFERENCE = 'ANALYTIQUE',
                      PRECISION = 1.E-2,
                      NOM_CMP = 'LAGS_C',
                      VALE = -1.E+5),
            );

TEST_RESU(   RESU=_F( RESULTAT = RESU,
                      NUME_ORDRE = 1,
                      NOEUD = 'N136',
                      NOM_CHAM = 'DEPL',
                      CRITERE = 'RELATIF',
                      REFERENCE = 'ANALYTIQUE',
                      PRECISION = 1.E-2,
                      NOM_CMP = 'DZ',
                      VALE = -0.05),
            );

TEST_RESU(   RESU=_F( RESULTAT = RESU,
                      NUME_ORDRE = 1,
                      NOEUD = 'N134',
                      NOM_CHAM = 'DEPL',
                      CRITERE = 'RELATIF',
                      REFERENCE = 'ANALYTIQUE',
                      PRECISION = 1.E-2,
                      NOM_CMP = 'LAGS_C',
                      VALE = -1.E+5),
            );

TEST_RESU(   RESU=_F( RESULTAT = RESU,
                      NUME_ORDRE = 1,
                      NOEUD = 'N134',
                      NOM_CHAM = 'DEPL',
                      CRITERE = 'RELATIF',
                      REFERENCE = 'ANALYTIQUE',
                      PRECISION = 1.E-2,
                      NOM_CMP = 'DZ',
                      VALE = -0.05),
            );

TEST_RESU(   RESU=_F( RESULTAT = RESU,
                      NUME_ORDRE = 1,
                      NOEUD = 'N31',
                      NOM_CHAM = 'DEPL',
                      CRITERE = 'ABSOLU',
                      REFERENCE = 'ANALYTIQUE',
                      PRECISION = 1.E-15,
                      NOM_CMP = 'LAGS_C',
                      VALE = 0.),
            );

TEST_RESU(   RESU=_F( RESULTAT = RESU,
                      NUME_ORDRE = 1,
                      NOEUD = 'N31',
                      NOM_CHAM = 'DEPL',
                      CRITERE = 'RELATIF',
                      REFERENCE = 'ANALYTIQUE',
                      PRECISION = 1.E-2,
                      NOM_CMP = 'DZ',
                      VALE = -0.05),
            );

TEST_RESU(   RESU=_F( RESULTAT = RESU,
                      NUME_ORDRE = 1,
                      NOEUD = 'N37',
                      NOM_CHAM = 'DEPL',
                      CRITERE = 'ABSOLU',
                      REFERENCE = 'ANALYTIQUE',
                      PRECISION = 1.E-15,
                      NOM_CMP = 'LAGS_C',
                      VALE = 0.),
            );

TEST_RESU(   RESU=_F( RESULTAT = RESU,
                      NUME_ORDRE = 1,
                      NOEUD = 'N37',
                      NOM_CHAM = 'DEPL',
                      CRITERE = 'RELATIF',
                      REFERENCE = 'ANALYTIQUE',
                      PRECISION = 1.E-2,
                      NOM_CMP = 'DZ',
                      VALE = -0.05),
            );

FIN( );
#
