# MODIF  DATE 05/08/2008   AUTEUR MAZET S.MAZET 
# TITRE CONTACT-FROTTANT EN GRANDS GLISSEMENTS
#            CONFIGURATION MANAGEMENT OF EDF VERSION
# ======================================================================
# COPYRIGHT (C) 1991 - 2008  EDF R&D                  WWW.CODE-ASTER.ORG
# THIS PROGRAM IS FREE SOFTWARE; YOU CAN REDISTRIBUTE IT AND/OR MODIFY  
# IT UNDER THE TERMS OF THE GNU GENERAL PUBLIC LICENSE AS PUBLISHED BY  
# THE FREE SOFTWARE FOUNDATION; EITHER VERSION 2 OF THE LICENSE, OR     
# (AT YOUR OPTION) ANY LATER VERSION.                                                    
#                                                                       
# THIS PROGRAM IS DISTRIBUTED IN THE HOPE THAT IT WILL BE USEFUL, BUT   
# WITHOUT ANY WARRANTY; WITHOUT EVEN THE IMPLIED WARRANTY OF            
# MERCHANTABILITY OR FITNESS FOR A PARTICULAR PURPOSE. SEE THE GNU      
# GENERAL PUBLIC LICENSE FOR MORE DETAILS.                              
#                                                                       
# YOU SHOULD HAVE RECEIVED A COPY OF THE GNU GENERAL PUBLIC LICENSE     
# ALONG WITH THIS PROGRAM; IF NOT, WRITE TO EDF R&D CODE_ASTER,         
#    1 AVENUE DU GENERAL DE GAULLE, 92141 CLAMART CEDEX, FRANCE.        
# ======================================================================
#
# CONTACT-FROTTANT EN GRANDS GLISSEMENTS
# POUR DES FISSURES HORIZONTALES
#

DEBUT(CODE=_F(NOM='SSNP503C',
              NIV_PUB_WEB='INTERNET',),);

PRE_GIBI();

MAILLAG2=LIRE_MAILLAGE(INFO=1,);

MAILLAG2=DEFI_GROUP(reuse =MAILLAG2,
                    MAILLAGE=MAILLAG2,
                    CREA_GROUP_NO =(_F(NOM = 'L13N',
                                       GROUP_MA = ('L13',),),
                                    _F(NOM = 'L21N',
                                       GROUP_MA = ('L21',),),
                                    )
                    );

MODELE=AFFE_MODELE(MAILLAGE=MAILLAG2,
                   AFFE=(_F(TOUT='OUI', 
                            PHENOMENE='MECANIQUE',
                            MODELISATION='C_PLAN',),),);       

CONT = AFFE_CHAR_MECA(CONTACT=(_F(METHODE='CONTINUE',
                                  INTEGRATION='NOEUD',
                                  FROTTEMENT='COULOMB',
                                  COULOMB=0.5,
                                  COEF_REGU_FROT=100,
                                  SEUIL_INIT=0.0,
                                  ITER_FROT_MAXI=10,
                                  COEF_REGU_CONT=100, 
                                  ITER_CONT_MAXI=20,
                                  ITER_GEOM_MAXI=10,
                                  TOLE_PROJ_EXT =0.0,   
                                  CONTACT_INIT='OUI',   
                                  GROUP_MA_MAIT = 'L21',
                                  GROUP_MA_ESCL = 'L13',
                                  ),
                               _F(METHODE='CONTINUE',
                                  INTEGRATION='NOEUD',
                                  FROTTEMENT='COULOMB',
                                  COULOMB=0.5,
                                  COEF_REGU_FROT=100,
                                  SEUIL_INIT=0.0,
                                  ITER_FROT_MAXI=10,
                                  COEF_REGU_CONT=100, 
                                  ITER_CONT_MAXI=20,
                                  ITER_GEOM_MAXI=10,
                                  TOLE_PROJ_EXT =0.0,   
                                  CONTACT_INIT='OUI',
                                  GROUP_MA_MAIT = 'L23',
                                  GROUP_MA_ESCL = 'L31',
                                  ),
                               ),
                      MODELE=MODELE,
                      );

E=100.0E6
nu=0.3
ACIER=DEFI_MATERIAU(ELAS=_F(E=E,
                            NU=nu,
                            RHO=7800.0,),);

CHAMPMAT=AFFE_MATERIAU(MAILLAGE=MAILLAG2,
                       MODELE=MODELE,
                       AFFE=_F(TOUT='OUI',
                       MATER=ACIER,
                      ),);

DEPX=2.0
DEPY=1.E-3
ZERO=0.0

CH1=AFFE_CHAR_MECA(MODELE=MODELE,
                   DDL_IMPO=(_F(GROUP_MA='L11',DY=DEPY,),
                             _F(GROUP_MA='L33',DY=-DEPY,),
                             _F(GROUP_NO=('P1','P2','P11','P12',),
                                DX=0.0,),
                             ),
                   INFO=1,);

CH2=AFFE_CHAR_MECA(MODELE=MODELE,
                   DDL_IMPO=_F(GROUP_MA='L24',
                               DX=DEPX,),
                   INFO=1,);

VAR1=DEFI_FONCTION(NOM_PARA='INST',
                    VALE=(0.,0.,1.,1.),
                   );

VAR2=DEFI_FONCTION(NOM_PARA='INST',
                    VALE=(0.,0.,1.,1.),);

L_INST=DEFI_LIST_REEL(DEBUT=0.0,
                      INTERVALLE=_F(JUSQU_A=1.0,
                                    NOMBRE=8,),);

UTOT1=STAT_NON_LINE(MODELE=MODELE,
                   CHAM_MATER=CHAMPMAT,              
                   EXCIT=(_F(CHARGE=CONT,),
                          _F(CHARGE=CH1,FONC_MULT=VAR1),
                          _F(CHARGE=CH2,FONC_MULT=VAR2),
                          ),  
                   COMP_ELAS=_F(RELATION='ELAS',),
                   INCREMENT=_F(LIST_INST=L_INST,),
                   CONVERGENCE=(_F(ITER_GLOB_MAXI=8,
                                  RESI_GLOB_MAXI=1E-06)),
                   INFO=1,);

# INST=0.25

LAGINF_1=POST_RELEVE_T(ACTION=_F(INTITULE='DEPLE',
                            GROUP_NO=('L13N'),
                            RESULTAT=UTOT1,
                            NOM_CHAM='DEPL',
                            INST=0.25,
                            NOM_CMP=('LAGS_C','LAGS_F1',),
                            OPERATION='EXTRACTION',),);

IMPR_TABLE(TABLE=LAGINF_1,
           FORMAT='AGRAF',
           FORMAT_R='1PE12.7',
           FORMAT_C='MODULE_PHASE',
           IMPR_FONCTION='NON',);

LAGINF_2=POST_RELEVE_T(ACTION=_F(INTITULE='DEPLE',
                            GROUP_NO=('L13N'),
                            RESULTAT=UTOT1,
                            NOM_CHAM='DEPL',
                            INST=0.5,
                            NOM_CMP=('LAGS_C','LAGS_F1',),
                            OPERATION='EXTRACTION',),);

IMPR_TABLE(TABLE=LAGINF_2,
           FORMAT='AGRAF',
           FORMAT_R='1PE12.7',
           FORMAT_C='MODULE_PHASE',
           IMPR_FONCTION='NON',);

LAGINF_3=POST_RELEVE_T(ACTION=_F(INTITULE='DEPLE',
                                 GROUP_NO=('L13N'),
                                 RESULTAT=UTOT1,
                                 NOM_CHAM='DEPL',
                                 INST=0.75,
                                 NOM_CMP=('LAGS_C','LAGS_F1',),
                                 OPERATION='EXTRACTION',),);

IMPR_TABLE(TABLE=LAGINF_3,
           FORMAT='AGRAF',
           FORMAT_R='1PE12.7',
           FORMAT_C='MODULE_PHASE',
           IMPR_FONCTION='NON',);

LAGINF_4=POST_RELEVE_T(ACTION=_F(INTITULE='DEPLE',
                            GROUP_NO=('L13N'),
                            RESULTAT=UTOT1,
                            NOM_CHAM='DEPL',
                            INST=1.0,
                            NOM_CMP=('LAGS_C','LAGS_F1',),
                            OPERATION='EXTRACTION',),);

IMPR_TABLE(TABLE=LAGINF_4,
           FORMAT='AGRAF',
           FORMAT_R='1PE12.7',
           FORMAT_C='MODULE_PHASE',
           IMPR_FONCTION='NON',);

# INST=0.25

TEST_TABLE(TABLE=LAGINF_1,
           NOM_PARA='LAGS_C',
           FILTRE=_F(NOM_PARA='COOR_X',
                     CRIT_COMP='EQ',
                     VALE=0.0,
                     PRECISION=1E-3,
                     CRITERE='ABSOLU',),
           VALE=0.0,
           CRITERE='ABSOLU',
           PRECISION=1.0E-15,
           REFERENCE='NON_REGRESSION',);

TEST_TABLE(TABLE=LAGINF_1,
           NOM_PARA='LAGS_C',
           FILTRE=_F(NOM_PARA='COOR_X',
                     CRIT_COMP='EQ',
                     VALE=1.0,
                     PRECISION=1E-3,
                     CRITERE='ABSOLU',),
           VALE=-7.2382340968065E+03,
           CRITERE='RELATIF',
           PRECISION=5.0E-2,
           REFERENCE='NON_REGRESSION',);       

TEST_TABLE(TABLE=LAGINF_1,
           NOM_PARA='LAGS_C',
           FILTRE=_F(NOM_PARA='COOR_X',
                     CRIT_COMP='EQ',
                     VALE=2.0,
                     PRECISION=1E-3,
                     CRITERE='ABSOLU',),
           VALE=-5.4928343100896E+03,
           CRITERE='RELATIF',
           PRECISION=5.0E-2,
           REFERENCE='NON_REGRESSION',);

TEST_TABLE(TABLE=LAGINF_1,
           NOM_PARA='LAGS_C',
           FILTRE=_F(NOM_PARA='COOR_X',
                     CRIT_COMP='EQ',
                     VALE=3.0,
                     PRECISION=1E-3,
                     CRITERE='ABSOLU',),
           VALE=-5.5946986878787E+03,
           CRITERE='RELATIF',
           PRECISION=5.0E-2,
           REFERENCE='NON_REGRESSION',);
 
TEST_TABLE(TABLE=LAGINF_1,
           NOM_PARA='LAGS_C',
           FILTRE=_F(NOM_PARA='COOR_X',
                     CRIT_COMP='EQ',
                     VALE=4.0,
                     PRECISION=1E-3,
                     CRITERE='ABSOLU',),
           VALE=-3.6379184762398E+03,
           CRITERE='RELATIF',
           PRECISION=5.0E-2,
           REFERENCE='NON_REGRESSION',);

# INST=0.5

TEST_TABLE(TABLE=LAGINF_2,
           NOM_PARA='LAGS_C',
           FILTRE=_F(NOM_PARA='COOR_X',
                     CRIT_COMP='EQ',
                     VALE=0.0,
                     PRECISION=1E-3,
                     CRITERE='ABSOLU',),
           VALE=0.0,
           CRITERE='ABSOLU',
           PRECISION=1.0E-15,
           REFERENCE='NON_REGRESSION',);

TEST_TABLE(TABLE=LAGINF_2,
           NOM_PARA='LAGS_C',
           FILTRE=_F(NOM_PARA='COOR_X',
                     CRIT_COMP='EQ',
                     VALE=1.0,
                     PRECISION=1E-3,
                     CRITERE='ABSOLU',),
           VALE=-9.3915322215029E+03,
           CRITERE='RELATIF',
           PRECISION=5.0E-2,
           REFERENCE='NON_REGRESSION',);       

TEST_TABLE(TABLE=LAGINF_2,
           NOM_PARA='LAGS_C',
           FILTRE=_F(NOM_PARA='COOR_X',
                     CRIT_COMP='EQ',
                     VALE=2.0,
                     PRECISION=1E-3,
                     CRITERE='ABSOLU',),
           VALE=-1.1352639210079E+04,
           CRITERE='RELATIF',
           PRECISION=5.0E-2,
           REFERENCE='NON_REGRESSION',);

TEST_TABLE(TABLE=LAGINF_2,
           NOM_PARA='LAGS_C',
           FILTRE=_F(NOM_PARA='COOR_X',
                     CRIT_COMP='EQ',
                     VALE=3.0,
                     PRECISION=1E-3,
                     CRITERE='ABSOLU',),
           VALE=-1.0339967179421E+04,
           CRITERE='RELATIF',
           PRECISION=5.0E-2,
           REFERENCE='NON_REGRESSION',);
 
TEST_TABLE(TABLE=LAGINF_2,
           NOM_PARA='LAGS_C',
           FILTRE=_F(NOM_PARA='COOR_X',
                     CRIT_COMP='EQ',
                     VALE=4.0,
                     PRECISION=1E-3,
                     CRITERE='ABSOLU',),
           VALE=-7.6451651491588E+03,
           CRITERE='RELATIF',
           PRECISION=5.0E-2,
           REFERENCE='NON_REGRESSION',);

# INST=0.75

TEST_TABLE(TABLE=LAGINF_3,
           NOM_PARA='LAGS_C',
           FILTRE=_F(NOM_PARA='COOR_X',
                     CRIT_COMP='EQ',
                     VALE=0.0,
                     PRECISION=1E-3,
                     CRITERE='ABSOLU',),
           VALE=0.0,
           CRITERE='ABSOLU',
           PRECISION=1.0E-15,
           REFERENCE='NON_REGRESSION',);

TEST_TABLE(TABLE=LAGINF_3,
           NOM_PARA='LAGS_C',
           FILTRE=_F(NOM_PARA='COOR_X',
                     CRIT_COMP='EQ',
                     VALE=1.0,
                     PRECISION=1E-3,
                     CRITERE='ABSOLU',),
           VALE=0.0,
           CRITERE='ABSOLU',
           PRECISION=1.0E-15,
           REFERENCE='NON_REGRESSION',);

TEST_TABLE(TABLE=LAGINF_3,
           NOM_PARA='LAGS_C',
           FILTRE=_F(NOM_PARA='COOR_X',
                     CRIT_COMP='EQ',
                     VALE=2.0,
                     PRECISION=1E-3,
                     CRITERE='ABSOLU',),
           VALE=-1.9701363547357E+04,
           CRITERE='RELATIF',
           PRECISION=5.0E-2,
           REFERENCE='NON_REGRESSION',);

TEST_TABLE(TABLE=LAGINF_3,
           NOM_PARA='LAGS_C',
           FILTRE=_F(NOM_PARA='COOR_X',
                     CRIT_COMP='EQ',
                     VALE=3.0,
                     PRECISION=1E-3,
                     CRITERE='ABSOLU',),
           VALE=-1.6378549091827E+04,
           CRITERE='RELATIF',
           PRECISION=5.0E-2,
           REFERENCE='NON_REGRESSION',);
 
TEST_TABLE(TABLE=LAGINF_3,
           NOM_PARA='LAGS_C',
           FILTRE=_F(NOM_PARA='COOR_X',
                     CRIT_COMP='EQ',
                     VALE=4.0,
                     PRECISION=1E-3,
                     CRITERE='ABSOLU',),
           VALE=-1.0278301720189E+04,
           CRITERE='RELATIF',
           PRECISION=5.0E-2,
           REFERENCE='NON_REGRESSION',);

# INST=1.0

TEST_TABLE(TABLE=LAGINF_4,
           NOM_PARA='LAGS_C',
           FILTRE=_F(NOM_PARA='COOR_X',
                     CRIT_COMP='EQ',
                     VALE=0.0,
                     PRECISION=1E-3,
                     CRITERE='ABSOLU',),
           VALE=0.0,
           CRITERE='ABSOLU',
           PRECISION=1.0E-15,
           REFERENCE='NON_REGRESSION',);

TEST_TABLE(TABLE=LAGINF_4,
           NOM_PARA='LAGS_C',
           FILTRE=_F(NOM_PARA='COOR_X',
                     CRIT_COMP='EQ',
                     VALE=1.0,
                     PRECISION=1E-3,
                     CRITERE='ABSOLU',),
           VALE=0.0,
           CRITERE='ABSOLU',
           PRECISION=1.0E-15,
           REFERENCE='NON_REGRESSION',);

TEST_TABLE(TABLE=LAGINF_4,
           NOM_PARA='LAGS_C',
           FILTRE=_F(NOM_PARA='COOR_X',
                     CRIT_COMP='EQ',
                     VALE=2.0,
                     PRECISION=1E-3,
                     CRITERE='ABSOLU',),
           VALE=-1.7447257112760E+04,
           CRITERE='RELATIF',
           PRECISION=5.0E-2,
           REFERENCE='NON_REGRESSION',);

TEST_TABLE(TABLE=LAGINF_4,
           NOM_PARA='LAGS_C',
           FILTRE=_F(NOM_PARA='COOR_X',
                     CRIT_COMP='EQ',
                     VALE=3.0,
                     PRECISION=1E-3,
                     CRITERE='ABSOLU',),
           VALE=-2.0847281382984E+04,
           CRITERE='RELATIF',
           PRECISION=5.0E-2,
           REFERENCE='NON_REGRESSION',);
 
TEST_TABLE(TABLE=LAGINF_4,
           NOM_PARA='LAGS_C',
           FILTRE=_F(NOM_PARA='COOR_X',
                     CRIT_COMP='EQ',
                     VALE=4.0,
                     PRECISION=1E-3,
                     CRITERE='ABSOLU',),
           VALE=-1.5702951002356E+04,
           CRITERE='RELATIF',
           PRECISION=5.0E-2,
           REFERENCE='NON_REGRESSION',);


FIN();
