# TITRE ESSAI DE TRACTION-CISAILLEMENT (MISES ECR. ISOT. DKT)
# ======================================================================
# COPYRIGHT (C) 1991 - 2012  EDF R&D                  WWW.CODE-ASTER.ORG
# THIS PROGRAM IS FREE SOFTWARE; YOU CAN REDISTRIBUTE IT AND/OR MODIFY
# IT UNDER THE TERMS OF THE GNU GENERAL PUBLIC LICENSE AS PUBLISHED BY
# THE FREE SOFTWARE FOUNDATION; EITHER VERSION 2 OF THE LICENSE, OR
# (AT YOUR OPTION) ANY LATER VERSION.
#
# THIS PROGRAM IS DISTRIBUTED IN THE HOPE THAT IT WILL BE USEFUL, BUT
# WITHOUT ANY WARRANTY; WITHOUT EVEN THE IMPLIED WARRANTY OF
# MERCHANTABILITY OR FITNESS FOR A PARTICULAR PURPOSE. SEE THE GNU
# GENERAL PUBLIC LICENSE FOR MORE DETAILS.
#
# YOU SHOULD HAVE RECEIVED A COPY OF THE GNU GENERAL PUBLIC LICENSE
# ALONG WITH THIS PROGRAM; IF NOT, WRITE TO EDF R&D CODE_ASTER,
#    1 AVENUE DU GENERAL DE GAULLE, 92141 CLAMART CEDEX, FRANCE.
# ======================================================================

DEBUT(CODE=_F(NIV_PUB_WEB='INTERNET'), DEBUG=_F(SDVERI='OUI'))
#......................................................................
# PLAQUE CARREE EN TRACTION CISAILLEMENT CALCUL DKT EN MEMBRANE
# ELASTOPLASTICITE ISOTROPE VON MISES   (2 TRIA3 ET 1 QUAD4)
#......................................................................

M=LIRE_MAILLAGE();

M=DEFI_GROUP(reuse =M,
             MAILLAGE=M,
             CREA_GROUP_MA=_F(NOM='TOUT',
                              TOUT='OUI',),);

MO=AFFE_MODELE(MAILLAGE=M,
               
               AFFE=_F(TOUT='OUI',
                       PHENOMENE='MECANIQUE',
                       MODELISATION='DKT',),);

CARAC=AFFE_CARA_ELEM(MODELE=MO,
                     COQUE=_F(GROUP_MA='TOUT',
                     ANGL_REP=(10.0,43.0,),
                              EPAIS=2.0,
                              COQUE_NCOU=2,),);

ACIER=DEFI_MATERIAU(ELAS=_F(E=195000.0,
                            NU=0.3,),
                    ECRO_LINE=_F(D_SIGM_EPSI=1930.0,
                                 SY=181.0,),);

CM=AFFE_MATERIAU(MAILLAGE=M,
                 AFFE=_F(TOUT='OUI',
                         MATER=ACIER,),);

SIGMA_F=DEFI_FONCTION(NOM_PARA='INST',
                      VALE=(0.0,0.0,1.0,151.2,),
                      PROL_DROITE='EXCLU',
                      PROL_GAUCHE='EXCLU',);

TAU_F=DEFI_FONCTION(NOM_PARA='INST',
                    VALE=(0.0,0.0,1.0,93.1,),
                    PROL_DROITE='EXCLU',
                    PROL_GAUCHE='EXCLU',);

TRACTION=AFFE_CHAR_MECA(MODELE=MO,
                        FORCE_ARETE=_F(MAILLE='GAUCHE',
                                       FY=-1.2,
                                       FZ=-1.6,),);

CISAIL=AFFE_CHAR_MECA(MODELE=MO,
                      FORCE_ARETE=(_F(MAILLE='GAUCHE',
                                      FY=1.6,
                                      FZ=-1.2,),
                                   _F(MAILLE='DROITE',
                                      FY=-1.6,
                                      FZ=1.2,),
                                   _F(GROUP_MA='HAUT',
                                      FY=1.2,
                                      FZ=1.6,),
                                   _F(GROUP_MA='BAS',
                                      FY=-1.2,
                                      FZ=-1.6,),),);

LIAISON=AFFE_CHAR_MECA(MODELE=MO,
                       DDL_IMPO=(_F(NOEUD='NO4',
                                    DY=0.0,
                                    DZ=0.0,),
                                 _F(TOUT='OUI',
                                    DX=0.0,),),
                       LIAISON_DDL=_F(NOEUD=('NO2','NO2',),
                                      DDL=('DY','DZ',),
                                      COEF_MULT=(0.75,1.0,),
                                      COEF_IMPO=0.0,),);

RAMPE=DEFI_FONCTION(NOM_PARA='INST',
                    VALE=(0.0,0.0,1.0,1.0,),
                    PROL_DROITE='LINEAIRE',
                    PROL_GAUCHE='LINEAIRE',);

L_INST=DEFI_LIST_REEL(DEBUT=0.0,
                      INTERVALLE=_F(JUSQU_A=1.0,
                                    NOMBRE=1,),);
# STAT_NON_LINE 'VMIS_ISOT_LINE'
#-------------------------------

U=STAT_NON_LINE(MODELE=MO,
                CHAM_MATER=CM,
                CARA_ELEM=CARAC,
                EXCIT=(_F(CHARGE=LIAISON,),
                       _F(CHARGE=TRACTION,
                          FONC_MULT=SIGMA_F,),
                       _F(CHARGE=CISAIL,
                          FONC_MULT=TAU_F,),),
                COMPORTEMENT=_F(RELATION='VMIS_ISOT_LINE',
                             RESI_INTE_RELA=1e-08,
                             ITER_INTE_MAXI=30
                             ),
                INCREMENT=_F(LIST_INST=L_INST,),
                NEWTON=_F(MATRICE='TANGENTE',
                          REAC_ITER=3),
                RECH_LINEAIRE=_F(RHO_MAX=150),
                )

U=CALC_CHAMP(reuse=U,
             RESULTAT=U,
             CONTRAINTE =('SIGM_ELNO','EFGE_ELNO'),
             DEFORMATION=('EPSI_ELNO','DEGE_ELNO'),
             VARI_INTERNE ='VARI_ELNO',);

USUP=POST_CHAMP(RESULTAT=U,
                EXTR_COQUE=_F(NOM_CHAM=('SIGM_ELNO','EPSI_ELNO','VARI_ELNO'),
                              NUME_COUCHE=1,
                              NIVE_COUCHE='SUP',),);

UINF=POST_CHAMP(RESULTAT=U,
                TOUT_ORDRE='OUI',
                GROUP_MA='TOUT',
                EXTR_COQUE=_F(NOM_CHAM='VARI_ELNO',
                              NUME_COUCHE=1,
                              NIVE_COUCHE='INF',),);
UMOY=POST_CHAMP(RESULTAT=U,
                TOUT_ORDRE='OUI',
                GROUP_MA='TOUT',
                EXTR_COQUE=_F(NOM_CHAM=('EPSI_ELNO','VARI_ELNO',),
                              NUME_COUCHE=1,
                              NIVE_COUCHE='MOY',),);


SIGM=MODI_REPERE(RESULTAT=USUP,
                 MODI_CHAM=_F(TYPE_CHAM='TENS_3D',
                              NOM_CHAM='SIGM_ELNO',
                              NOM_CMP=('SIXX','SIYY','SIZZ','SIXY','SIXZ','SIYZ',),),
                 REPERE='COQUE',
                 AFFE=_F(ANGL_REP=(90.0,-53.13,),),);

EPSI=MODI_REPERE(RESULTAT=USUP,
                 MODI_CHAM=_F(TYPE_CHAM='TENS_3D',
                              NOM_CHAM='EPSI_ELNO',
                              NOM_CMP=('EPXX','EPYY','EPZZ','EPXY','EPXZ','EPYZ',),),
                 REPERE='COQUE',
                 AFFE=_F(ANGL_REP=(90.0,-53.13,),),);

EFGE=MODI_REPERE(RESULTAT=U,
                 MODI_CHAM=_F(TYPE_CHAM='COQUE_GENE',
                              NOM_CHAM='EFGE_ELNO',
                              NOM_CMP=('NXX','NYY','NXY','MXX','MYY','MXY','QX','QY',),),
                 REPERE='COQUE',
                 AFFE=_F(ANGL_REP=(90.0,-53.13,),),);

DEGE=MODI_REPERE(RESULTAT=U,
                 MODI_CHAM=_F(TYPE_CHAM='COQUE_GENE',
                              NOM_CHAM='DEGE_ELNO',
                              NOM_CMP=('EXX','EYY','EXY','KXX','KYY','KXY','GAX','GAY',),),
                 REPERE='COQUE',
                 AFFE=_F(ANGL_REP=(90.0,-53.13,),),);

TEST_RESU(RESU=(_F(INST=1.0,
                   REFERENCE='ANALYTIQUE',
                   RESULTAT=U,
                   NOM_CHAM='DEPL',
                   NOEUD='NO1',
                   NOM_CMP='DY',
                   VALE_CALC=0.018672236,
                   VALE_REFE=0.018672237000000001,
                   PRECISION=9.9999999999999995E-07,),
                _F(INST=1.0,
                   REFERENCE='ANALYTIQUE',
                   RESULTAT=U,
                   NOM_CHAM='DEPL',
                   NOEUD='NO1',
                   NOM_CMP='DZ',
                   VALE_CALC=-0.032541319,
                   VALE_REFE=-0.032541318999999999,
                   PRECISION=9.9999999999999995E-07,),
                _F(INST=1.0,
                   REFERENCE='ANALYTIQUE',
                   RESULTAT=U,
                   NOM_CHAM='DEPL',
                   NOEUD='NO6',
                   NOM_CMP='DY',
                   VALE_CALC=0.012240029,
                   VALE_REFE=0.012240028999999999,
                   PRECISION=9.9999999999999995E-07,),
                _F(INST=1.0,
                   REFERENCE='ANALYTIQUE',
                   RESULTAT=U,
                   NOM_CHAM='DEPL',
                   NOEUD='NO6',
                   NOM_CMP='DZ',
                   VALE_CALC=-0.018448593,
                   VALE_REFE=-0.018448592999999999,
                   PRECISION=9.9999999999999995E-07,),
                _F(INST=1.0,
                   REFERENCE='ANALYTIQUE',
                   RESULTAT=U,
                   NOM_CHAM='DEPL',
                   NOEUD='NO2',
                   NOM_CMP='DY',
                   VALE_CALC= 5.80782298E-03,
                   VALE_REFE=5.807823904E-3,
                   PRECISION=9.9999999999999995E-07,),
                _F(INST=1.0,
                   REFERENCE='ANALYTIQUE',
                   RESULTAT=U,
                   NOM_CHAM='DEPL',
                   NOEUD='NO2',
                   NOM_CMP='DZ',
                   VALE_CALC=-4.35586723E-03,
                   VALE_REFE=-4.355867928E-3,
                   PRECISION=9.9999999999999995E-07,),
                ),
          )

TEST_RESU(RESU=(_F(INST=1.0,
                   REFERENCE='ANALYTIQUE',
                   RESULTAT=SIGM,
                   NOM_CHAM='SIGM_ELNO',
                   NOEUD='NO1',
                   NOM_CMP='SIXX',
                   VALE_CALC=151.199681597,
                   VALE_REFE=151.19999999999999,
                   PRECISION=1.E-2,
                   MAILLE='MA2',),
                _F(INST=1.0,
                   REFERENCE='ANALYTIQUE',
                   RESULTAT=SIGM,
                   NOM_CHAM='SIGM_ELNO',
                   NOEUD='NO1',
                   NOM_CMP='SIXY',
                   VALE_CALC=93.100267388,
                   VALE_REFE=93.099999999999994,
                   PRECISION=1.E-2,
                   MAILLE='MA2',),
                _F(INST=1.0,
                   REFERENCE='ANALYTIQUE',
                   RESULTAT=SIGM,
                   NOM_CHAM='SIGM_ELNO',
                   NOEUD='NO3',
                   NOM_CMP='SIXX',
                   VALE_CALC=151.199681597,
                   VALE_REFE=151.19999999999999,
                   PRECISION=1.E-2,
                   MAILLE='MA1',),
                _F(INST=1.0,
                   REFERENCE='ANALYTIQUE',
                   RESULTAT=SIGM,
                   NOM_CHAM='SIGM_ELNO',
                   NOEUD='NO3',
                   NOM_CMP='SIXY',
                   VALE_CALC=93.100267388,
                   VALE_REFE=93.099999999999994,
                   PRECISION=1.E-2,
                   MAILLE='MA1',),
                _F(INST=1.0,
                   RESULTAT=SIGM,
                   NOM_CHAM='SIGM_ELNO',
                   NOEUD='NO3',
                   NOM_CMP='SIXX',
                   VALE_CALC=151.199681597,
                   VALE_REFE=151.19999999999999,
                   REFERENCE='ANALYTIQUE',
                   PRECISION=1.E-2,
                   MAILLE='MA2',),
                _F(INST=1.0,
                   REFERENCE='ANALYTIQUE',
                   RESULTAT=SIGM,
                   NOM_CHAM='SIGM_ELNO',
                   NOEUD='NO3',
                   NOM_CMP='SIXY',
                   VALE_CALC=93.100267388,
                   VALE_REFE=93.099999999999994,
                   PRECISION=1.E-2,
                   MAILLE='MA2',),
                _F(INST=1.0,
                   REFERENCE='ANALYTIQUE',
                   RESULTAT=SIGM,
                   NOM_CHAM='SIGM_ELNO',
                   NOEUD='NO2',
                   NOM_CMP='SIXX',
                   VALE_CALC=151.199681597,
                   VALE_REFE=151.19999999999999,
                   PRECISION=1.E-2,
                   MAILLE='MA3',),
                _F(INST=1.0,
                   REFERENCE='ANALYTIQUE',
                   RESULTAT=SIGM,
                   NOM_CHAM='SIGM_ELNO',
                   NOEUD='NO2',
                   NOM_CMP='SIXY',
                   VALE_CALC=93.100267388,
                   VALE_REFE=93.099999999999994,
                   PRECISION=1.E-2,
                   MAILLE='MA3',),
                _F(INST=1.0,
                   REFERENCE='ANALYTIQUE',
                   RESULTAT=SIGM,
                   NOM_CHAM='SIGM_ELNO',
                   NOEUD='NO4',
                   NOM_CMP='SIXX',
                   VALE_CALC=151.199681597,
                   VALE_REFE=151.19999999999999,
                   PRECISION=1.E-2,
                   MAILLE='MA3',),
                _F(INST=1.0,
                   REFERENCE='ANALYTIQUE',
                   RESULTAT=SIGM,
                   NOM_CHAM='SIGM_ELNO',
                   NOEUD='NO4',
                   NOM_CMP='SIXY',
                   VALE_CALC=93.100267388,
                   VALE_REFE=93.099999999999994,
                   PRECISION=1.E-2,
                   MAILLE='MA3',),
                ),
          )

TEST_RESU(RESU=(_F(INST=1.0,
                   REFERENCE='ANALYTIQUE',
                   RESULTAT=EPSI,
                   NOM_CHAM='EPSI_ELNO',
                   NOEUD='NO1',
                   NOM_CMP='EPXX',
                   VALE_CALC=0.014829665,
                   VALE_REFE=0.014829713,
                   PRECISION=1.E-4,
                   MAILLE='MA2',),
                _F(INST=1.0,
                   REFERENCE='ANALYTIQUE',
                   RESULTAT=EPSI,
                   NOM_CHAM='EPSI_ELNO',
                   NOEUD='NO1',
                   NOM_CMP='EPYY',
                   VALE_CALC=-7.25973013E-03,
                   VALE_REFE=-7.25977988E-3,
                   PRECISION=1.E-4,
                   MAILLE='MA2',),
                _F(INST=1.0,
                   REFERENCE='ANALYTIQUE',
                   RESULTAT=EPSI,
                   NOM_CHAM='EPSI_ELNO',
                   NOEUD='NO1',
                   NOM_CMP='EPXY',
                   VALE_CALC=0.013601440,
                   VALE_REFE=0.013601401000000001,
                   PRECISION=1.E-4,
                   MAILLE='MA2',),
                _F(INST=1.0,
                   REFERENCE='ANALYTIQUE',
                   RESULTAT=EPSI,
                   NOM_CHAM='EPSI_ELNO',
                   NOEUD='NO3',
                   NOM_CMP='EPXX',
                   VALE_CALC=0.014829665,
                   VALE_REFE=0.014829713,
                   PRECISION=1.E-4,
                   MAILLE='MA1',),
                _F(INST=1.0,
                   REFERENCE='ANALYTIQUE',
                   RESULTAT=EPSI,
                   NOM_CHAM='EPSI_ELNO',
                   NOEUD='NO3',
                   NOM_CMP='EPYY',
                   VALE_CALC=-7.25973013E-03,
                   VALE_REFE=-7.25977988E-3,
                   PRECISION=1.E-4,
                   MAILLE='MA1',),
                _F(INST=1.0,
                   REFERENCE='ANALYTIQUE',
                   RESULTAT=EPSI,
                   NOM_CHAM='EPSI_ELNO',
                   NOEUD='NO3',
                   NOM_CMP='EPXY',
                   VALE_CALC=0.013601440,
                   VALE_REFE=0.013601401000000001,
                   PRECISION=1.E-4,
                   MAILLE='MA1',),
                _F(INST=1.0,
                   REFERENCE='ANALYTIQUE',
                   RESULTAT=EPSI,
                   NOM_CHAM='EPSI_ELNO',
                   NOEUD='NO3',
                   NOM_CMP='EPXX',
                   VALE_CALC=0.014829665,
                   VALE_REFE=0.014829713,
                   PRECISION=1.E-4,
                   MAILLE='MA2',),
                _F(INST=1.0,
                   REFERENCE='ANALYTIQUE',
                   RESULTAT=EPSI,
                   NOM_CHAM='EPSI_ELNO',
                   NOEUD='NO3',
                   NOM_CMP='EPYY',
                   VALE_CALC=-7.25973013E-03,
                   VALE_REFE=-7.25977988E-3,
                   PRECISION=1.E-4,
                   MAILLE='MA2',),
                _F(INST=1.0,
                   REFERENCE='ANALYTIQUE',
                   RESULTAT=EPSI,
                   NOM_CHAM='EPSI_ELNO',
                   NOEUD='NO3',
                   NOM_CMP='EPXY',
                   VALE_CALC=0.013601440,
                   VALE_REFE=0.013601401000000001,
                   PRECISION=1.E-4,
                   MAILLE='MA2',),
                _F(INST=1.0,
                   REFERENCE='ANALYTIQUE',
                   RESULTAT=EPSI,
                   NOM_CHAM='EPSI_ELNO',
                   NOEUD='NO2',
                   NOM_CMP='EPXX',
                   VALE_CALC=0.014829665,
                   VALE_REFE=0.014829713,
                   PRECISION=1.E-4,
                   MAILLE='MA3',),
                _F(INST=1.0,
                   REFERENCE='ANALYTIQUE',
                   RESULTAT=EPSI,
                   NOM_CHAM='EPSI_ELNO',
                   NOEUD='NO2',
                   NOM_CMP='EPYY',
                   VALE_CALC=-7.25973013E-03,
                   VALE_REFE=-7.25977988E-3,
                   PRECISION=1.E-4,
                   MAILLE='MA3',),
                _F(INST=1.0,
                   REFERENCE='ANALYTIQUE',
                   RESULTAT=EPSI,
                   NOM_CHAM='EPSI_ELNO',
                   NOEUD='NO2',
                   NOM_CMP='EPXY',
                   VALE_CALC=0.013601440,
                   VALE_REFE=0.013601401000000001,
                   PRECISION=1.E-4,
                   MAILLE='MA3',),
                _F(INST=1.0,
                   REFERENCE='ANALYTIQUE',
                   RESULTAT=EPSI,
                   NOM_CHAM='EPSI_ELNO',
                   NOEUD='NO4',
                   NOM_CMP='EPXX',
                   VALE_CALC=0.014829665,
                   VALE_REFE=0.014829713,
                   PRECISION=1.E-4,
                   MAILLE='MA3',),
                _F(INST=1.0,
                   REFERENCE='ANALYTIQUE',
                   RESULTAT=EPSI,
                   NOM_CHAM='EPSI_ELNO',
                   NOEUD='NO4',
                   NOM_CMP='EPYY',
                   VALE_CALC=-7.25973013E-03,
                   VALE_REFE=-7.25977988E-3,
                   PRECISION=1.E-4,
                   MAILLE='MA3',),
                _F(INST=1.0,
                   REFERENCE='ANALYTIQUE',
                   RESULTAT=EPSI,
                   NOM_CHAM='EPSI_ELNO',
                   NOEUD='NO4',
                   NOM_CMP='EPXY',
                   VALE_CALC=0.013601440,
                   VALE_REFE=0.013601401000000001,
                   PRECISION=1.E-4,
                   MAILLE='MA3',),
                ),
          )

TEST_RESU(RESU=(_F(INST=1.0,
                   REFERENCE='ANALYTIQUE',
                   RESULTAT=EFGE,
                   NOM_CHAM='EFGE_ELNO',
                   NOEUD='NO1',
                   NOM_CMP='NXX',
                   VALE_CALC=302.399363195,
                   VALE_REFE=302.39999999999998,
                   PRECISION=1.E-2,
                   MAILLE='MA2',),
                _F(INST=1.0,
                   REFERENCE='ANALYTIQUE',
                   RESULTAT=EFGE,
                   NOM_CHAM='EFGE_ELNO',
                   NOEUD='NO1',
                   NOM_CMP='NXY',
                   VALE_CALC=186.200534776,
                   VALE_REFE=186.19999999999999,
                   PRECISION=1.E-2,
                   MAILLE='MA2',),
                _F(INST=1.0,
                   REFERENCE='ANALYTIQUE',
                   RESULTAT=EFGE,
                   NOM_CHAM='EFGE_ELNO',
                   NOEUD='NO3',
                   NOM_CMP='NXX',
                   VALE_CALC=302.399363195,
                   VALE_REFE=302.39999999999998,
                   PRECISION=1.E-2,
                   MAILLE='MA1',),
                _F(INST=1.0,
                   REFERENCE='ANALYTIQUE',
                   RESULTAT=EFGE,
                   NOM_CHAM='EFGE_ELNO',
                   NOEUD='NO3',
                   NOM_CMP='NXY',
                   VALE_CALC=186.200534776,
                   VALE_REFE=186.19999999999999,
                   PRECISION=1.E-2,
                   MAILLE='MA1',),
                _F(INST=1.0,
                   REFERENCE='ANALYTIQUE',
                   RESULTAT=EFGE,
                   NOM_CHAM='EFGE_ELNO',
                   NOEUD='NO3',
                   NOM_CMP='NXX',
                   VALE_CALC=302.399363195,
                   VALE_REFE=302.39999999999998,
                   PRECISION=1.E-2,
                   MAILLE='MA2',),
                _F(INST=1.0,
                   REFERENCE='ANALYTIQUE',
                   RESULTAT=EFGE,
                   NOM_CHAM='EFGE_ELNO',
                   NOEUD='NO3',
                   NOM_CMP='NXY',
                   VALE_CALC=186.200534776,
                   VALE_REFE=186.19999999999999,
                   PRECISION=1.E-2,
                   MAILLE='MA2',),
                _F(INST=1.0,
                   REFERENCE='ANALYTIQUE',
                   RESULTAT=EFGE,
                   NOM_CHAM='EFGE_ELNO',
                   NOEUD='NO2',
                   NOM_CMP='NXX',
                   VALE_CALC=302.399363195,
                   VALE_REFE=302.39999999999998,
                   PRECISION=1.E-2,
                   MAILLE='MA3',),
                _F(INST=1.0,
                   REFERENCE='ANALYTIQUE',
                   RESULTAT=EFGE,
                   NOM_CHAM='EFGE_ELNO',
                   NOEUD='NO2',
                   NOM_CMP='NXY',
                   VALE_CALC=186.200534776,
                   VALE_REFE=186.19999999999999,
                   PRECISION=1.E-2,
                   MAILLE='MA3',),
                _F(INST=1.0,
                   REFERENCE='ANALYTIQUE',
                   RESULTAT=EFGE,
                   NOM_CHAM='EFGE_ELNO',
                   NOEUD='NO4',
                   NOM_CMP='NXX',
                   VALE_CALC=302.399363195,
                   VALE_REFE=302.39999999999998,
                   PRECISION=1.E-2,
                   MAILLE='MA3',),
                _F(INST=1.0,
                   REFERENCE='ANALYTIQUE',
                   RESULTAT=EFGE,
                   NOM_CHAM='EFGE_ELNO',
                   NOEUD='NO4',
                   NOM_CMP='NXY',
                   VALE_CALC=186.200534776,
                   VALE_REFE=186.19999999999999,
                   PRECISION=1.E-2,
                   MAILLE='MA3',),
                ),
          )

TEST_RESU(RESU=(_F(INST=1.0,
                   REFERENCE='ANALYTIQUE',
                   TYPE_TEST='MIN',
                   RESULTAT=UINF,
                   NOM_CHAM='VARI_ELNO',
                   NOM_CMP='V1',
                   VALE_CALC=0.020547265,
                   VALE_REFE=0.020547300000000001,
                   CRITERE='ABSOLU',
                   PRECISION=1.E-4,),
                _F(INST=1.0,
                   REFERENCE='ANALYTIQUE',
                   TYPE_TEST='MAX',
                   RESULTAT=UINF,
                   NOM_CHAM='VARI_ELNO',
                   NOM_CMP='V1',
                   VALE_CALC=0.020547265,
                   VALE_REFE=0.020547300000000001,
                   CRITERE='ABSOLU',
                   PRECISION=1.E-4,),
                _F(INST=1.0,
                   REFERENCE='ANALYTIQUE',
                   TYPE_TEST='MIN',
                   RESULTAT=UINF,
                   NOM_CHAM='VARI_ELNO',
                   NOM_CMP='V2',
                   VALE_CALC=1.000000000,
                   VALE_REFE=1.0,
                   CRITERE='ABSOLU',
                   PRECISION=1.E-4,),
                _F(INST=1.0,
                   REFERENCE='ANALYTIQUE',
                   TYPE_TEST='MAX',
                   RESULTAT=UINF,
                   NOM_CHAM='VARI_ELNO',
                   NOM_CMP='V2',
                   VALE_CALC=1.000000000,
                   VALE_REFE=1.0,
                   CRITERE='ABSOLU',
                   PRECISION=1.E-4,),
                ),
          )

TEST_RESU(RESU=(_F(INST=1.0,
                   REFERENCE='ANALYTIQUE',
                   TYPE_TEST='MIN',
                   RESULTAT=UMOY,
                   NOM_CHAM='VARI_ELNO',
                   NOM_CMP='V1',
                   VALE_CALC=0.020547265,
                   VALE_REFE=0.020547300000000001,
                   CRITERE='ABSOLU',
                   PRECISION=1.E-4,),
                _F(INST=1.0,
                   REFERENCE='ANALYTIQUE',
                   TYPE_TEST='MAX',
                   RESULTAT=UMOY,
                   NOM_CHAM='VARI_ELNO',
                   NOM_CMP='V1',
                   VALE_CALC=0.020547265,
                   VALE_REFE=0.020547300000000001,
                   CRITERE='ABSOLU',
                   PRECISION=1.E-4,),
                _F(INST=1.0,
                   REFERENCE='ANALYTIQUE',
                   TYPE_TEST='MIN',
                   RESULTAT=UMOY,
                   NOM_CHAM='VARI_ELNO',
                   NOM_CMP='V2',
                   VALE_CALC=1.000000000,
                   VALE_REFE=1.0,
                   CRITERE='ABSOLU',
                   PRECISION=1.E-4,),
                _F(INST=1.0,
                   REFERENCE='ANALYTIQUE',
                   TYPE_TEST='MAX',
                   RESULTAT=UMOY,
                   NOM_CHAM='VARI_ELNO',
                   NOM_CMP='V2',
                   VALE_CALC=1.000000000,
                   VALE_REFE=1.0,
                   CRITERE='ABSOLU',
                   PRECISION=1.E-4,),
                ),
          )

TEST_RESU(RESU=(_F(INST=1.0,
                   TYPE_TEST='MIN',
                   RESULTAT=USUP,
                   NOM_CHAM='VARI_ELNO',
                   NOM_CMP='V1',
                   VALE_CALC=0.020547300000000001,
                   CRITERE='ABSOLU',
                   ),
                _F(INST=1.0,
                   TYPE_TEST='MAX',
                   RESULTAT=USUP,
                   NOM_CHAM='VARI_ELNO',
                   NOM_CMP='V1',
                   VALE_CALC=0.020547300000000001,
                   CRITERE='ABSOLU',
                   ),
                _F(INST=1.0,
                   TYPE_TEST='MIN',
                   RESULTAT=USUP,
                   NOM_CHAM='VARI_ELNO',
                   NOM_CMP='V2',
                   VALE_CALC=1.0,
                   CRITERE='ABSOLU',
                   ),
                _F(INST=1.0,
                   TYPE_TEST='MAX',
                   RESULTAT=USUP,
                   NOM_CHAM='VARI_ELNO',
                   NOM_CMP='V2',
                   VALE_CALC=1.0,
                   CRITERE='ABSOLU',
                   ),
                ),
          )

TEST_RESU(RESU=(_F(INST=1.0,
                   REFERENCE='ANALYTIQUE',
                   RESULTAT=DEGE,
                   NOM_CHAM='DEGE_ELNO',
                   NOEUD='NO3',
                   NOM_CMP='EXX',
                   VALE_CALC=0.014829665,
                   VALE_REFE=0.014800000000000001,
                   PRECISION=1.E-2,
                   MAILLE='MA1',),
                _F(INST=1.0,
                   REFERENCE='ANALYTIQUE',
                   RESULTAT=DEGE,
                   NOM_CHAM='DEGE_ELNO',
                   NOEUD='NO3',
                   NOM_CMP='EYY',
                   VALE_CALC=-7.25973013E-03,
                   VALE_REFE=-7.2500000000000004E-3,
                   PRECISION=1.E-2,
                   MAILLE='MA1',),
                _F(INST=1.0,
                   REFERENCE='ANALYTIQUE',
                   RESULTAT=DEGE,
                   NOM_CHAM='DEGE_ELNO',
                   NOEUD='NO3',
                   NOM_CMP='EXY',
                   VALE_CALC=0.013601440,
                   VALE_REFE=0.013601,
                   PRECISION=1.E-4,
                   MAILLE='MA1',),
                ),
          )

FIN();
