# MODIF  DATE 10/10/2012   AUTEUR COURTOIS M.COURTOIS 
# TITRE ESSAI DE TRACTION-CISAILLEMENT (MISES ECR. ISOT. C_PLAN)
# ssnp15b.para = tps_job 60 mem_job 256Mo ncpus 1 liste_test R
#            CONFIGURATION MANAGEMENT OF EDF VERSION
# ======================================================================
# COPYRIGHT (C) 1991 - 2012  EDF R&D                  WWW.CODE-ASTER.ORG
# THIS PROGRAM IS FREE SOFTWARE; YOU CAN REDISTRIBUTE IT AND/OR MODIFY
# IT UNDER THE TERMS OF THE GNU GENERAL PUBLIC LICENSE AS PUBLISHED BY
# THE FREE SOFTWARE FOUNDATION; EITHER VERSION 2 OF THE LICENSE, OR
# (AT YOUR OPTION) ANY LATER VERSION.
#
# THIS PROGRAM IS DISTRIBUTED IN THE HOPE THAT IT WILL BE USEFUL, BUT
# WITHOUT ANY WARRANTY; WITHOUT EVEN THE IMPLIED WARRANTY OF
# MERCHANTABILITY OR FITNESS FOR A PARTICULAR PURPOSE. SEE THE GNU
# GENERAL PUBLIC LICENSE FOR MORE DETAILS.
#
# YOU SHOULD HAVE RECEIVED A COPY OF THE GNU GENERAL PUBLIC LICENSE
# ALONG WITH THIS PROGRAM; IF NOT, WRITE TO EDF R&D CODE_ASTER,
#    1 AVENUE DU GENERAL DE GAULLE, 92141 CLAMART CEDEX, FRANCE.
# ======================================================================

DEBUT(CODE=_F(NOM='SSNP15B',
NIV_PUB_WEB='INTERNET',),DEBUG=_F(SDVERI='NON'))
# SDVERI='NON' car la verification est trop couteuse en CPU

#......................................................................
# PLAQUE CARREE EN TRACTION CISAILLEMENT CALCUL 2D CONTRAINTES PLANES
# ELASTOPLASTICITE ISOTROPE VON MISES   (1 QUAD4)
#......................................................................

MA=LIRE_MAILLAGE();

MO=AFFE_MODELE(MAILLAGE=MA,
               VERIF='MAILLE',
               AFFE=_F(TOUT='OUI',
                       PHENOMENE='MECANIQUE',
                       MODELISATION='C_PLAN',),);

ACIER=DEFI_MATERIAU(ELAS=_F(E=195000.,
                            NU=0.3,),
                    ECRO_LINE=_F(D_SIGM_EPSI=1930.,
                                 SY=181.,),
                    PRAGER=_F(C=0.,),);

CM=AFFE_MATERIAU(MAILLAGE=MA,
                 AFFE=_F(TOUT='OUI',
                         MATER=ACIER,),);

SIGMA_F=DEFI_FONCTION(NOM_PARA='INST',VALE=(0.0,0.0,
                            1.0,151.2,
                            2.0,257.2,
                            3.0,0.0,
                            ),PROL_DROITE='EXCLU',PROL_GAUCHE='EXCLU',);

TAU_F=DEFI_FONCTION(NOM_PARA='INST',VALE=(0.0,0.0,
                          1.0,93.1,
                          2.0,33.1,
                          3.0,0.0,
                          ),PROL_DROITE='EXCLU',PROL_GAUCHE='EXCLU',);

TRACTION=AFFE_CHAR_MECA(MODELE=MO,
                        FORCE_CONTOUR=_F(MAILLE='GAUCHE',
                                         FX=-1.,),);

CISAIL=AFFE_CHAR_MECA(MODELE=MO,
                      FORCE_CONTOUR=(_F(MAILLE='GAUCHE',
                                        FY=-1.,),
                                     _F(MAILLE='DROITE',
                                        FY=1.,),
                                     _F(MAILLE='HAUT',
                                        FX=1.,),
                                     _F(MAILLE='BAS',
                                        FX=-1.,),),);

LIAISON=AFFE_CHAR_MECA(MODELE=MO,
                       DDL_IMPO=(_F(NOEUD='NO4',
                                    DX=0.,
                                    DY=0.,),
                                 _F(NOEUD='NO2',
                                    DX=0.,),),);

L_INST=DEFI_LIST_REEL(DEBUT=0.0,
                      INTERVALLE=(_F(JUSQU_A=0.1,
                                     NOMBRE=1,),
                                  _F(JUSQU_A=0.9,
                                     NOMBRE=10,),
                                  _F(JUSQU_A=1.0,
                                     NOMBRE=1,),
                                  _F(JUSQU_A=2.0,
                                     NOMBRE=40,),
                                  _F(JUSQU_A=3.0,
                                     NOMBRE=1,),),);

U=STAT_NON_LINE(MODELE=MO,
                CHAM_MATER=CM,
                EXCIT=(_F(CHARGE=LIAISON,),
                       _F(CHARGE=TRACTION,
                          FONC_MULT=SIGMA_F,),
                       _F(CHARGE=CISAIL,
                          FONC_MULT=TAU_F,),),
                COMP_INCR=_F(RELATION='VMIS_ISOT_LINE',),
                INCREMENT=_F(LIST_INST=L_INST,),
                NEWTON=_F(MATRICE='TANGENTE',
                          REAC_ITER=3,),
                RECH_LINEAIRE=_F(RHO_MAX=150),
                )

U=CALC_CHAMP(reuse=U,RESULTAT=U,CRITERES=('SIEQ_ELGA'),VARI_INTERNE=('VARI_ELNO'),DEFORMATION=('EPSI_ELGA'),CONTRAINTE=('SIGM_ELNO'))



U=CALC_CHAMP(reuse=U,RESULTAT=U,DEFORMATION=('EPSP_ELGA','EPSI_ELNO'))


U2=STAT_NON_LINE(MODELE=MO,
                 CHAM_MATER=CM,
                 EXCIT=(_F(CHARGE=LIAISON,),
                        _F(CHARGE=TRACTION,
                           FONC_MULT=SIGMA_F,),
                        _F(CHARGE=CISAIL,
                           FONC_MULT=TAU_F,),),
                 COMP_INCR=_F(RELATION='VMIS_ECMI_LINE',),
                 INCREMENT=_F(LIST_INST=L_INST,),
                 NEWTON=_F(MATRICE='TANGENTE',
                           REAC_ITER=3,),
                 RECH_LINEAIRE=_F(RHO_MAX=150),
                 )

U2=CALC_CHAMP(reuse=U2,RESULTAT=U2,CONTRAINTE=('SIGM_ELNO'),VARI_INTERNE=('VARI_ELNO'),DEFORMATION=('EPSI_ELGA'))


U2=CALC_CHAMP(reuse=U2,RESULTAT=U2,DEFORMATION=('EPSP_ELGA','EPSI_ELNO'))


U2=CALC_CHAMP(reuse=U2,RESULTAT=U2,ENERGIE=('ETOT_ELGA'))


U2=CALC_CHAMP(reuse=U2,RESULTAT=U2,ENERGIE=('ETOT_ELNO'))


U2=CALC_CHAMP(reuse=U2,RESULTAT=U2,ENERGIE=('ETOT_ELEM'))


VARI=CREA_CHAMP(TYPE_CHAM='ELNO_VARI_R',
                OPERATION='EXTR',
                RESULTAT=U,
                NOM_CHAM='VARI_ELNO',
                INST=1.,);

TEST_RESU(CHAM_ELEM=_F(NOEUD='NO2',
                       NOM_CMP='V1',
                       MAILLE='CUBE',
                       CHAM_GD=VARI,
                       VALE_CALC=0.020547300000000001,
                       TOLE_MACHINE=1.E-3,),
          RESU=(_F(INST=1.0,
                   RESULTAT=U,
                   NOM_CHAM='SIGM_ELNO',
                   NOEUD='NO2',
                   NOM_CMP='SIXX',
                   VALE_CALC=151.19999999999999,
                   TOLE_MACHINE=1.E-3,
                   MAILLE='CUBE',),
                _F(INST=1.0,
                   RESULTAT=U,
                   NOM_CHAM='SIGM_ELNO',
                   NOEUD='NO2',
                   NOM_CMP='SIXY',
                   VALE_CALC=93.099999999999994,
                   TOLE_MACHINE=1.E-3,
                   MAILLE='CUBE',),
                _F(INST=1.0,
                   RESULTAT=U,
                   NOM_CHAM='EPSI_ELNO',
                   NOEUD='NO2',
                   NOM_CMP='EPXX',
                   VALE_CALC=0.014829699999999999,
                   TOLE_MACHINE=1.E-3,
                   MAILLE='CUBE',),
                _F(INST=1.0,
                   RESULTAT=U,
                   NOM_CHAM='EPSI_ELNO',
                   NOEUD='NO2',
                   NOM_CMP='EPXY',
                   VALE_CALC=0.0136014,
                   TOLE_MACHINE=1.E-3,
                   MAILLE='CUBE',),
                _F(INST=1.0,
                   RESULTAT=U,
                   NOM_CHAM='VARI_ELNO',
                   NOEUD='NO2',
                   NOM_CMP='V1',
                   VALE_CALC=0.020547300000000001,
                   TOLE_MACHINE=1.E-3,
                   MAILLE='CUBE',),
                _F(INST=1.0,
                   RESULTAT=U,
                   NOM_CHAM='VARI_ELNO',
                   NOEUD='NO2',
                   NOM_CMP='V2',
                   VALE_CALC=1.0,
                   TOLE_MACHINE=1.E-3,
                   MAILLE='CUBE',),
                _F(INST=2.0,
                   RESULTAT=U,
                   NOM_CHAM='EPSI_ELNO',
                   NOEUD='NO2',
                   NOM_CMP='EPXX',
                   VALE_CALC=0.035324715,
                   VALE_REFE=0.035264999999999998,
                   REFERENCE='NON_DEFINI',
                   PRECISION=1.E-2,
                   MAILLE='CUBE',),
                _F(INST=2.0,
                   RESULTAT=U,
                   NOM_CHAM='EPSI_ELNO',
                   NOEUD='NO2',
                   NOM_CMP='EPXY',
                   VALE_CALC=0.020351413,
                   VALE_REFE=0.020471,
                   REFERENCE='NON_DEFINI',
                   PRECISION=1.E-2,
                   MAILLE='CUBE',),
                _F(INST=2.0,
                   POINT=1,
                   RESULTAT=U,
                   NOM_CHAM='EPSP_ELGA',
                   NOM_CMP='EPXX',
                   VALE_CALC=0.034005740,
                   VALE_REFE=0.033945999999999997,
                   REFERENCE='NON_DEFINI',
                   PRECISION=1.E-2,
                   MAILLE='CUBE',),
                _F(INST=2.0,
                   POINT=1,
                   RESULTAT=U,
                   NOM_CHAM='EPSP_ELGA',
                   NOM_CMP='EPXY',
                   VALE_CALC=0.020130747,
                   VALE_REFE=0.020250000000000001,
                   REFERENCE='NON_DEFINI',
                   PRECISION=1.E-2,
                   MAILLE='CUBE',),
                _F(INST=2.0,
                   RESULTAT=U,
                   NOM_CHAM='VARI_ELNO',
                   NOEUD='NO2',
                   NOM_CMP='V1',
                   VALE_CALC=0.042329286,
                   VALE_REFE=0.042328999999999999,
                   REFERENCE='NON_DEFINI',
                   PRECISION=1.E-2,
                   MAILLE='CUBE',),
                _F(INST=1.0,
                   REFERENCE='ANALYTIQUE',
                   POINT=1,
                   RESULTAT=U,
                   NOM_CHAM='SIEQ_ELGA',
                   NOM_CMP='TRIAX',
                   VALE_CALC=0.227999990,
                   VALE_REFE=0.22800000000000001,
                   MAILLE='CUBE',),
                _F(INST=2.0,
                   REFERENCE='ANALYTIQUE',
                   POINT=4,
                   RESULTAT=U,
                   NOM_CHAM='SIEQ_ELGA',
                   NOM_CMP='TRIAX',
                   VALE_CALC=0.325348653,
                   VALE_REFE=0.325349,
                   MAILLE='CUBE',),
                ),
          )

ENER_TOT=POST_ELEM(ENER_TOTALE=_F(MAILLE='CUBE',),
                   RESULTAT=U,
                   );

ENER_TO2=POST_ELEM(ENER_TOTALE=_F(MAILLE='CUBE',),
                   RESULTAT=U2,
                   );

ENER_TO3=POST_ELEM(ENER_TOTALE=_F(GROUP_MA='CUBE_G',),
                   RESULTAT=U2,
                   );

ENER_TO4=POST_ELEM(ENER_TOTALE=_F(TOUT='OUI',),
                   RESULTAT=U2,
                   );

TEST_RESU(RESU=(_F(INST=0.10000000000000001,
                   REFERENCE='AUTRE_ASTER',
                   POINT=1,
                   RESULTAT=U2,
                   NOM_CHAM='ETOT_ELGA',
                   NOM_CMP='TOTALE',
                   VALE_CALC= 1.16403144E-03,
                   VALE_REFE=1.1640299999999999E-3,
                   CRITERE='RELATIF',
                   MAILLE='CUBE',),
                _F(INST=0.90000000000000002,
                   REFERENCE='AUTRE_ASTER',
                   POINT=1,
                   RESULTAT=U2,
                   NOM_CHAM='ETOT_ELGA',
                   NOM_CMP='TOTALE',
                   VALE_CALC=1.842222380,
                   VALE_REFE=1.8433999999999999,
                   CRITERE='RELATIF',
                   MAILLE='CUBE',),
                _F(INST=2.0,
                   REFERENCE='AUTRE_ASTER',
                   POINT=1,
                   RESULTAT=U2,
                   NOM_CHAM='ETOT_ELGA',
                   NOM_CMP='TOTALE',
                   VALE_CALC=9.583429296,
                   VALE_REFE=9.5848700000000004,
                   CRITERE='RELATIF',
                   MAILLE='CUBE',),
                _F(INST=3.0,
                   REFERENCE='AUTRE_ASTER',
                   POINT=1,
                   RESULTAT=U2,
                   NOM_CHAM='ETOT_ELGA',
                   NOM_CMP='TOTALE',
                   VALE_CALC=9.406505127,
                   VALE_REFE=9.40794,
                   CRITERE='RELATIF',
                   MAILLE='CUBE',),
                _F(INST=0.10000000000000001,
                   REFERENCE='AUTRE_ASTER',
                   RESULTAT=U2,
                   NOM_CHAM='ETOT_ELNO',
                   NOEUD='NO2',
                   NOM_CMP='TOTALE',
                   VALE_CALC= 1.16403144E-03,
                   VALE_REFE=1.1640299999999999E-3,
                   CRITERE='RELATIF',
                   MAILLE='CUBE',),
                _F(INST=0.90000000000000002,
                   REFERENCE='AUTRE_ASTER',
                   RESULTAT=U2,
                   NOM_CHAM='ETOT_ELNO',
                   NOEUD='NO2',
                   NOM_CMP='TOTALE',
                   VALE_CALC=1.842222380,
                   VALE_REFE=1.8433999999999999,
                   CRITERE='RELATIF',
                   MAILLE='CUBE',),
                _F(INST=2.0,
                   REFERENCE='AUTRE_ASTER',
                   RESULTAT=U2,
                   NOM_CHAM='ETOT_ELNO',
                   NOEUD='NO2',
                   NOM_CMP='TOTALE',
                   VALE_CALC=9.583429296,
                   VALE_REFE=9.5848700000000004,
                   CRITERE='RELATIF',
                   MAILLE='CUBE',),
                _F(INST=3.0,
                   REFERENCE='AUTRE_ASTER',
                   RESULTAT=U2,
                   NOM_CHAM='ETOT_ELNO',
                   NOEUD='NO2',
                   NOM_CMP='TOTALE',
                   VALE_CALC=9.406505127,
                   VALE_REFE=9.40794,
                   CRITERE='RELATIF',
                   MAILLE='CUBE',),
                _F(INST=0.10000000000000001,
                   REFERENCE='AUTRE_ASTER',
                   POINT=1,
                   RESULTAT=U2,
                   NOM_CHAM='ETOT_ELEM',
                   NOM_CMP='TOTALE',
                   VALE_CALC= 1.16403144E-03,
                   VALE_REFE=1.1640299999999999E-3,
                   CRITERE='RELATIF',
                   MAILLE='CUBE',),
                _F(INST=0.90000000000000002,
                   REFERENCE='AUTRE_ASTER',
                   POINT=1,
                   RESULTAT=U2,
                   NOM_CHAM='ETOT_ELEM',
                   NOM_CMP='TOTALE',
                   VALE_CALC=1.842222380,
                   VALE_REFE=1.8433999999999999,
                   CRITERE='RELATIF',
                   MAILLE='CUBE',),
                _F(INST=2.0,
                   REFERENCE='AUTRE_ASTER',
                   POINT=1,
                   RESULTAT=U2,
                   NOM_CHAM='ETOT_ELEM',
                   NOM_CMP='TOTALE',
                   VALE_CALC=9.583429296,
                   VALE_REFE=9.5848700000000004,
                   CRITERE='RELATIF',
                   MAILLE='CUBE',),
                _F(INST=3.0,
                   REFERENCE='AUTRE_ASTER',
                   POINT=1,
                   RESULTAT=U2,
                   NOM_CHAM='ETOT_ELEM',
                   NOM_CMP='TOTALE',
                   VALE_CALC=9.406505127,
                   VALE_REFE=9.40794,
                   CRITERE='RELATIF',
                   MAILLE='CUBE',),
                ),
          )

#
# SI ENERGIE CALCULEE SUR UNE MAILLE

TEST_TABLE(CRITERE='RELATIF',
           REFERENCE='AUTRE_ASTER',
           VALE_CALC= 1.16403144E-03,
           VALE_REFE=1.1640299999999999E-3,
           NOM_PARA='TOTALE',
           TABLE=ENER_TO2,
           FILTRE=_F(NOM_PARA='INST',
                     VALE=0.10000000000000001,),
           )

TEST_TABLE(CRITERE='RELATIF',
           REFERENCE='AUTRE_ASTER',
           VALE_CALC=1.842222380,
           VALE_REFE=1.8433999999999999,
           NOM_PARA='TOTALE',
           TABLE=ENER_TO2,
           FILTRE=_F(NOM_PARA='INST',
                     VALE=0.90000000000000002,),
           )

TEST_TABLE(CRITERE='RELATIF',
           REFERENCE='AUTRE_ASTER',
           VALE_CALC=9.583429296,
           VALE_REFE=9.5848700000000004,
           NOM_PARA='TOTALE',
           TABLE=ENER_TO2,
           FILTRE=_F(NOM_PARA='INST',
                     VALE=2.0,),
           )

TEST_TABLE(CRITERE='RELATIF',
           REFERENCE='AUTRE_ASTER',
           VALE_CALC=9.406505127,
           VALE_REFE=9.40794,
           NOM_PARA='TOTALE',
           TABLE=ENER_TO2,
           FILTRE=_F(NOM_PARA='INST',
                     VALE=3.0,),
           )

#
# SI ENERGIE CALCULEE SUR UN GROUPE DE MAILLE

TEST_TABLE(CRITERE='RELATIF',
           REFERENCE='AUTRE_ASTER',
           VALE_CALC= 1.16403144E-03,
           VALE_REFE=1.1640299999999999E-3,
           NOM_PARA='TOTALE',
           TABLE=ENER_TO3,
           FILTRE=_F(NOM_PARA='INST',
                     VALE=0.10000000000000001,),
           )

TEST_TABLE(CRITERE='RELATIF',
           REFERENCE='AUTRE_ASTER',
           VALE_CALC=1.842222380,
           VALE_REFE=1.8433999999999999,
           NOM_PARA='TOTALE',
           TABLE=ENER_TO3,
           FILTRE=_F(NOM_PARA='INST',
                     VALE=0.90000000000000002,),
           )

TEST_TABLE(CRITERE='RELATIF',
           REFERENCE='AUTRE_ASTER',
           VALE_CALC=9.583429296,
           VALE_REFE=9.5848700000000004,
           NOM_PARA='TOTALE',
           TABLE=ENER_TO3,
           FILTRE=_F(NOM_PARA='INST',
                     VALE=2.0,),
           )

TEST_TABLE(CRITERE='RELATIF',
           REFERENCE='AUTRE_ASTER',
           VALE_CALC=9.406505127,
           VALE_REFE=9.40794,
           NOM_PARA='TOTALE',
           TABLE=ENER_TO3,
           FILTRE=_F(NOM_PARA='INST',
                     VALE=3.0,),
           )

#
# SI ENERGIE CALCULEE SUR TOUT LE MAILLAGE

TEST_TABLE(CRITERE='RELATIF',
           REFERENCE='AUTRE_ASTER',
           VALE_CALC= 1.16403144E-03,
           VALE_REFE=1.1640299999999999E-3,
           NOM_PARA='TOTALE',
           TABLE=ENER_TO4,
           FILTRE=_F(NOM_PARA='INST',
                     VALE=0.10000000000000001,),
           )

TEST_TABLE(CRITERE='RELATIF',
           REFERENCE='AUTRE_ASTER',
           VALE_CALC=1.842222380,
           VALE_REFE=1.8433999999999999,
           NOM_PARA='TOTALE',
           TABLE=ENER_TO4,
           FILTRE=_F(NOM_PARA='INST',
                     VALE=0.90000000000000002,),
           )

TEST_TABLE(CRITERE='RELATIF',
           REFERENCE='AUTRE_ASTER',
           VALE_CALC=9.583429296,
           VALE_REFE=9.5848700000000004,
           NOM_PARA='TOTALE',
           TABLE=ENER_TO4,
           FILTRE=_F(NOM_PARA='INST',
                     VALE=2.0,),
           )

TEST_TABLE(CRITERE='RELATIF',
           REFERENCE='AUTRE_ASTER',
           VALE_CALC=9.406505127,
           VALE_REFE=9.40794,
           NOM_PARA='TOTALE',
           TABLE=ENER_TO4,
           FILTRE=_F(NOM_PARA='INST',
                     VALE=3.0,),
           )

#
# INDICATEURS DE CHARGE - DECHARGE

IND_ENER=POST_ELEM(INDIC_ENER=_F(TOUT='OUI',),
                   RESULTAT=U,
                   INST=(1.,2.,3.,),);

IND_SEUI=POST_ELEM(INDIC_SEUIL=_F(TOUT='OUI',),
                   RESULTAT=U,
                   NUME_ORDRE=(12,52,53,),);

TEST_TABLE(CRITERE='ABSOLU',
           REFERENCE='ANALYTIQUE',
           VALE_CALC= 0.00000000E+00,
           VALE_REFE=0.0,
           NOM_PARA='INDIC_ENER',
           TABLE=IND_ENER,
           FILTRE=(_F(NOM_PARA='NUME_ORDRE',
                      VALE_I=12,),
                   _F(NOM_PARA='LIEU',
                      VALE_K='MA',),
                   ),
           )

TEST_TABLE(REFERENCE='ANALYTIQUE',
           PRECISION=0.029999999999999999,
           VALE_CALC=0.033376265,
           VALE_REFE=0.032599999999999997,
           NOM_PARA='INDIC_ENER',
           TABLE=IND_ENER,
           FILTRE=(_F(NOM_PARA='NUME_ORDRE',
                      VALE_I=52,),
                   _F(NOM_PARA='LIEU',
                      VALE_K='MA',),
                   ),
           )

TEST_TABLE(REFERENCE='ANALYTIQUE',
           PRECISION=0.029999999999999999,
           VALE_CALC=0.047729905,
           VALE_REFE=0.046899999999999997,
           NOM_PARA='INDIC_ENER',
           TABLE=IND_ENER,
           FILTRE=(_F(NOM_PARA='NUME_ORDRE',
                      VALE_I=53,),
                   _F(NOM_PARA='LIEU',
                      VALE_K='MA',),
                   ),
           )

TEST_TABLE(CRITERE='ABSOLU',
           REFERENCE='ANALYTIQUE',
           VALE_CALC= 0.00000000E+00,
           VALE_REFE=0.0,
           NOM_PARA='INDIC_SEUIL',
           TABLE=IND_SEUI,
           FILTRE=(_F(NOM_PARA='NUME_ORDRE',
                      VALE_I=12,),
                   _F(NOM_PARA='LIEU',
                      VALE_K='MA',),
                   ),
           )

TEST_TABLE(REFERENCE='ANALYTIQUE',
           PRECISION=1.E-2,
           VALE_CALC=0.096406983,
           VALE_REFE=0.097100000000000006,
           NOM_PARA='INDIC_SEUIL',
           TABLE=IND_SEUI,
           FILTRE=(_F(NOM_PARA='NUME_ORDRE',
                      VALE_I=52,),
                   _F(NOM_PARA='LIEU',
                      VALE_K='MA',),
                   ),
           )

TEST_TABLE(REFERENCE='ANALYTIQUE',
           PRECISION=1.E-2,
           VALE_CALC=1.000000000,
           VALE_REFE=1.0,
           NOM_PARA='INDIC_SEUIL',
           TABLE=IND_SEUI,
           FILTRE=(_F(NOM_PARA='NUME_ORDRE',
                      VALE_I=53,),
                   _F(NOM_PARA='LIEU',
                      VALE_K='MA',),
                   ),
           )

FIN();
