# CAS TEST : SSNP152G
# TITRE INCLUSION DE DEUX COURONNES
# ======================================================================
# COPYRIGHT (C) 1991 - 2012  EDF R&D                  WWW.CODE-ASTER.ORG
# THIS PROGRAM IS FREE SOFTWARE; YOU CAN REDISTRIBUTE IT AND/OR MODIFY  
# IT UNDER THE TERMS OF THE GNU GENERAL PUBLIC LICENSE AS PUBLISHED BY  
# THE FREE SOFTWARE FOUNDATION; EITHER VERSION 2 OF THE LICENSE, OR     
# (AT YOUR OPTION) ANY LATER VERSION.                                                    
#                                                                       
# THIS PROGRAM IS DISTRIBUTED IN THE HOPE THAT IT WILL BE USEFUL, BUT   
# WITHOUT ANY WARRANTY; WITHOUT EVEN THE IMPLIED WARRANTY OF            
# MERCHANTABILITY OR FITNESS FOR A PARTICULAR PURPOSE. SEE THE GNU      
# GENERAL PUBLIC LICENSE FOR MORE DETAILS.                              
#                                                                       
# YOU SHOULD HAVE RECEIVED A COPY OF THE GNU GENERAL PUBLIC LICENSE     
# ALONG WITH THIS PROGRAM; IF NOT, WRITE TO EDF R&D CODE_ASTER,         
#    1 AVENUE DU GENERAL DE GAULLE, 92141 CLAMART CEDEX, FRANCE.        
# ======================================================================
# ELEMENTS QUADRATIQUES, GRANDES ROTATIONS, CONTRAINTES PLANES,
# INTEGRATION PAR NOEUD, COURONNE EXTERIEURE MAITRE,
# TOUR COMPLET EN 61 PAS DE TEMPS
# p=1.0E6, E1=1.0E9, E2=1.0E9, nu1=0.2, nu2=0.2, R1 = 1.0, R2 = 0.6, R3 = 0.2

DEBUT(CODE=_F( NOM = 'SSNP152G',NIV_PUB_WEB='INTERNET'))

PRE_GMSH();

MA=LIRE_MAILLAGE(VERI_MAIL=_F(VERIF='OUI'),);

#+----------------------------------------+
#| noms des groupes de noeuds et mailles  |
#+----------------------------------------+

MA=DEFI_GROUP(reuse=MA,MAILLAGE=MA,CREA_GROUP_MA=(_F(GROUP_MA='GM100',NOM='C1'),
                     _F(GROUP_MA='GM101',NOM='C2'),                                          
                     _F(GROUP_MA='GM200',NOM='S1R1'),
                     _F(GROUP_MA='GM300',NOM='S1R2'),
                     _F(GROUP_MA='GM400',NOM='S2R2'),
                     _F(GROUP_MA='GM500',NOM='S2R3'),),
                                   CREA_GROUP_NO=(_F(GROUP_MA='S1R2',NOM='CONT_N_1'),
                      _F(GROUP_MA='S2R2',NOM='CONT_N_2'),),);

MA=MODI_MAILLAGE(reuse=MA,MAILLAGE=MA,ORIE_PEAU_2D=(
            _F(GROUP_MA = 'S1R1',),
            _F(GROUP_MA = 'S1R2',),
            _F(GROUP_MA = 'S2R2',),
            _F(GROUP_MA = 'S2R3',),),);

#+----------------------------------------+
#|               parametres               |
#+----------------------------------------+

elmts   = 40
pas_tmp = 100
tour    = 2*pi/elmts

#+----------------------------------------+
#|        proprietes des materiaux        |
#+----------------------------------------+

E1=1.0E9
E2=1.0E9
nu1=0.2
nu2=0.2

MAT1=DEFI_MATERIAU(ELAS = _F(E=E1,NU = nu1,));
MAT2=DEFI_MATERIAU(ELAS = _F(E=E2,NU = nu2,));

CHMAT=AFFE_MATERIAU(MAILLAGE=MA,AFFE=(_F(GROUP_MA = 'C1',MATER = MAT1,),
                       _F(GROUP_MA = 'C2',MATER = MAT2,),),);
#+----------------------------------------+
#|                modele                  |
#+----------------------------------------+

MO=AFFE_MODELE(MAILLAGE=MA,AFFE=_F(TOUT = 'OUI',PHENOMENE = 'MECANIQUE',MODELISATION = 'C_PLAN'));

#+----------------------------------------+
#|       conditions aux limites           |
#+----------------------------------------+

# pression externe

p=1.0E7;

# geometrie

R1 = 1.0;
R2 = 0.6;
R3 = 0.2;

# calcul analytique de la pression de contact

pres_cont = (2*p*(R1*R1/(R1*R1-R2*R2)))/(((1/(R1*R1-R2*R2))*(R2*R2*(1-nu1)+R1*R1*(1+nu1)))+((E1/E2)*(1/(R2*R2-R3*R3))*(R2*R2*(1-nu2)+R3*R3*(1+nu2))));

#
# calcul des deplacements auxquels les bords des couronnes seront soumises
#

# couronne externe

a1=(pres_cont*R2*R2-p*R1*R1)/(R1*R1-R2*R2);
b1=(pres_cont-p)*(R1*R1*R2*R2)/(R1*R1-R2*R2);

eps_r_1 = (1/E1)*(a1*(1-nu1)*R1+b1*(1+nu1)/R1);

ux1 = FORMULE(NOM_PARA=('X','Y',), VALE='eps_r_1*cos(atan2(Y,X))');

uy1 = FORMULE(NOM_PARA=('X','Y',), VALE='eps_r_1*sin(atan2(Y,X))');


CH1=AFFE_CHAR_MECA_F(MODELE=MO, DDL_IMPO=(_F(GROUP_MA = 'S1R1', DX=ux1,DY=uy1,),),);

# couronne interne

a2=-pres_cont*R2*R2/(R2*R2-R3*R3);
b2=-pres_cont*(R2*R2*R3*R3)/(R2*R2-R3*R3);

eps_r_2 = (1/E2)*(a2*(1-nu2)*R3+b2*(1+nu2)/R3);

ux2 = FORMULE(NOM_PARA=('X','Y','INST',), VALE='(R3+eps_r_2)*cos(atan2(Y,X)+tour*INST)-X');

uy2 = FORMULE(NOM_PARA=('X','Y','INST',), VALE='(R3+eps_r_2)*sin(atan2(Y,X)+tour*INST)-Y');

CH2=AFFE_CHAR_MECA_F(MODELE=MO, DDL_IMPO=(_F(GROUP_MA='S2R3',DX=ux2,DY=uy2,),),);

#+----------------------------------------+
#|               contact                  |
#+----------------------------------------+

CONT_G  = DEFI_CONTACT(MODELE = MO,
                       FORMULATION    = 'CONTINUE',
                       LISSAGE        = 'OUI',
                       ALGO_RESO_CONT = 'NEWTON',
                       ALGO_RESO_GEOM = 'NEWTON',
                       ZONE =(
                           _F(GROUP_MA_ESCL = 'S2R2',
                              GROUP_MA_MAIT = 'S1R2',
                              APPARIEMENT   = 'MAIT_ESCL',
                              NORMALE       = 'MAIT',
                              INTEGRATION   = 'GAUSS',
                              TOLE_PROJ_EXT = 0.0001,
                              ALGO_CONT     = 'STANDARD',
                              COEF_CONT     = E1,
                              CONTACT_INIT  = 'OUI',
                              GLISSIERE     = 'NON',),),);
#+----------------------------------------+
#|               calcul                   |
#+----------------------------------------+

INSTS=DEFI_LIST_REEL(DEBUT       = 0.0,
                      INTERVALLE = _F(JUSQU_A = 1.0,
                                      NOMBRE  = pas_tmp,),);
RESU1=STAT_NON_LINE(MODELE=MO,
                    CHAM_MATER=CHMAT,
                    EXCIT       = (_F(CHARGE = CH1,),
                                   _F(CHARGE = CH2,),),
                    CONTACT     = CONT_G,
                    COMP_INCR   = (_F(RELATION    = 'ELAS',
                                     DEFORMATION = 'GROT_GDEP',),),
                    NEWTON      = _F(REAC_INCR=1,REAC_ITER=1),
                    INCREMENT   = _F(LIST_INST=INSTS,),
                    CONVERGENCE = _F(ITER_GLOB_MAXI = 20,),
                    SOLVEUR     = _F(METHODE     = 'MUMPS',
                                     ),
                    ARCHIVAGE   = _F(CHAM_EXCLU = 'VARI_ELGA',),
                    INFO=1,);

#+----------------------------------------+
#|          tests de validation           |
#+----------------------------------------+
TEST_RESU(RESU=_F(NUME_ORDRE=100,
                  VALE_ABS='OUI',
                  REFERENCE='ANALYTIQUE',
                  RESULTAT=RESU1,
                  NOM_CHAM='DEPL',
                  NOEUD='N10',
                  NOM_CMP='LAGS_C',
                  VALE_CALC= 9.13589268E+06,
                  VALE_REFE=9.2592592592592593E6,
                  PRECISION=0.040000000000000001,),
          )

FIN();
