# person_in_charge: philippe.de-bonnieres at edf.fr
# ======================================================================
# COPYRIGHT (C) 1991 - 2016  EDF R&D                  WWW.CODE-ASTER.ORG
# THIS PROGRAM IS FREE SOFTWARE; YOU CAN REDISTRIBUTE IT AND/OR MODIFY
# IT UNDER THE TERMS OF THE GNU GENERAL PUBLIC LICENSE AS PUBLISHED BY
# THE FREE SOFTWARE FOUNDATION; EITHER VERSION 2 OF THE LICENSE, OR
# (AT YOUR OPTION) ANY LATER VERSION.
#
# THIS PROGRAM IS DISTRIBUTED IN THE HOPE THAT IT WILL BE USEFUL, BUT
# WITHOUT ANY WARRANTY; WITHOUT EVEN THE IMPLIED WARRANTY OF
# MERCHANTABILITY OR FITNESS FOR A PARTICULAR PURPOSE. SEE THE GNU
# GENERAL PUBLIC LICENSE FOR MORE DETAILS.
#
# YOU SHOULD HAVE RECEIVED A COPY OF THE GNU GENERAL PUBLIC LICENSE
# ALONG WITH THIS PROGRAM; IF NOT, WRITE TO EDF R&D CODE_ASTER,
#    1 AVENUE DU GENERAL DE GAULLE, 92141 CLAMART CEDEX, FRANCE.
# ======================================================================

DEBUT(CODE=_F(
              NIV_PUB_WEB='INTERNET',),
      DEBUG=_F(SDVERI='OUI',),);

#......................................................................
# PLAQUE CARREE EN TRACTION CISAILLEMENT CALCUL 3D
# LOI DE LEMAITRE
#......................................................................

M=LIRE_MAILLAGE(FORMAT='MED',);

MO=AFFE_MODELE(MAILLAGE=M,
               
               AFFE=_F(TOUT='OUI',
                       PHENOMENE='MECANIQUE',
                       MODELISATION='3D',),);

ANEL=LIRE_RESU(TYPE_RESU='EVOL_NOLI',
               FORMAT='IDEAS',
               INFO=2,
               MODELE=MO,
               UNITE=19,
               NOM_CHAM='EPSA_ELNO',
               NUME_ORDRE=(1,2,3,4,5,6,7,8,9,10,11,),);

ACIER=DEFI_MATERIAU(ELAS=_F(E=178600.,
                            NU=0.3,),
                    LEMAITRE=_F(N=11.,
                                UN_SUR_K=0.00032840723,
                                UN_SUR_M=0.178571429,),);

CM1=AFFE_MATERIAU(MAILLAGE=M,
                  AFFE=_F(TOUT='OUI',
                          MATER=ACIER,),);

CM2=AFFE_MATERIAU(MAILLAGE=M,
                  AFFE=_F(TOUT='OUI',
                          MATER=ACIER,),
                  AFFE_VARC=_F(TOUT='OUI',
                               EVOL=ANEL,
                               NOM_VARC='EPSA',
                               NOM_CHAM='EPSA_ELNO',),);

P30=DEFI_FONCTION(NOM_PARA='INST',VALE=(0.0,0.0,
                        30.0,30.31088913,
                        3630.0,30.31088913,
                        3660.0,60.62177826,
                        7260.0,60.62177826,
                        ),PROL_DROITE='LINEAIRE',PROL_GAUCHE='LINEAIRE',);

M30=DEFI_FONCTION(NOM_PARA='INST',VALE=(0.0,0.0,
                        30.0,-30.31088913,
                        3630.0,-30.31088913,
                        3660.0,-60.62177826,
                        7260.0,-60.62177826,
                        ),PROL_DROITE='LINEAIRE',PROL_GAUCHE='LINEAIRE',);

M52M30=DEFI_FONCTION(NOM_PARA='INST',VALE=(0.0,0.0,
                           30.0,-82.81088913,
                           3630.0,-82.81088913,
                           3660.0,-60.62177826,
                           7260.0,-60.62177826,
                           ),PROL_DROITE='LINEAIRE',PROL_GAUCHE='LINEAIRE',);

M52P30=DEFI_FONCTION(NOM_PARA='INST',VALE=(0.0,0.0,
                           30.0,-22.18911087,
                           3630.0,-22.18911087,
                           3660.0,60.62177826,
                           7260.0,60.62177826,
                           ),PROL_DROITE='LINEAIRE',PROL_GAUCHE='LINEAIRE',);

INIT0=LIRE_RESU(TYPE_RESU='EVOL_NOLI',
                FORMAT='IDEAS',
                MODELE=MO,
                NB_VARI=2,
                UNITE=19,
                NOM_CHAM=('VARI_ELNO','SIGM_ELNO',),
                INST=15.,);

# POUR TESTER LIRE_RESU /IDEAS/NUME_DATASET:2414 :

INIT=LIRE_RESU(TYPE_RESU='EVOL_NOLI',
               FORMAT='IDEAS',
               INFO=1,
               MODELE=MO,
               NB_VARI=2,
               UNITE=35,
               NOM_CHAM=('VARI_ELNO','SIGM_ELNO',),
               FORMAT_IDEAS=(
               _F(NOM_CHAM='VARI_ELNO',
                  NUME_DATASET=2414,
                  RECORD_3=3,
                  RECORD_9=(1,4,3,96,2,6,),
                  POSI_ORDRE=(10,3,),
                  POSI_INST=(12,1,),
                  NOM_CMP=('V1','V2',),),
               _F(NOM_CHAM='SIGM_ELNO',
                  NUME_DATASET=2414,
                  RECORD_3=3,
                  RECORD_9=(1,4,4,2,2,6,),
                  POSI_ORDRE=(10,3,),
                  POSI_INST=(12,1,),
                  NOM_CMP=('SIXX','SIXY','SIYY','SIXZ','SIYZ','SIZZ',),),),
               INST=15.,);

CHSIG0=CREA_CHAMP(TYPE_CHAM='ELNO_SIEF_R',
                  OPERATION='EXTR',
                  RESULTAT=INIT,
                  NOM_CHAM='SIGM_ELNO',
                  NUME_ORDRE=1,);

CHVAR0=CREA_CHAMP(TYPE_CHAM='ELNO_VARI_R',
                  OPERATION='EXTR',
                  RESULTAT=INIT0,
                  NOM_CHAM='VARI_ELNO',
                  NUME_ORDRE=1,);

CHDEP0=CREA_CHAMP(TYPE_CHAM='NOEU_DEPL_R',
                  OPERATION='AFFE',
                  MAILLAGE=M,
                  AFFE=(
                  _F(TOUT='OUI',
                     NOM_CMP=('DX','DY','DZ',),
                     VALE=(0.,0.,0.,),),
                  _F(NOEUD=('N1','N3','N5','N7',),
                     NOM_CMP='DX',
                     VALE=-6.02608E-04,),
                  _F(NOEUD=('N1','N5',),
                     NOM_CMP='DY',
                     VALE=-1.09170E-03,),
                  _F(NOEUD=('N3','N7',),
                     NOM_CMP='DY',
                     VALE=-9.07977E-04,),
                  _F(NOEUD=('N2','N6',),
                     NOM_CMP='DY',
                     VALE=-1.83723E-04,),
                  _F(NOEUD=('N1','N2','N3','N4',),
                     NOM_CMP='DZ',
                     VALE=1.83723E-04,),),);

CH1=AFFE_CHAR_MECA(MODELE=MO,
                   DDL_IMPO=(_F(NOEUD='N4',
                                DX=0.,
                                DY=0.,),
                             _F(NOEUD='N8',
                                DX=0.,
                                DY=0.,
                                DZ=0.,),
                             _F(NOEUD='N2',
                                DX=0.,),
                             _F(NOEUD='N6',
                                DX=0.,),),);

CH2=AFFE_CHAR_MECA_F(MODELE=MO,
                     FORCE_NODALE=(_F(NOEUD=('N1','N5',),
                                      FX=M52P30,
                                      FY=M30,),
                                   _F(NOEUD=('N2','N6',),
                                      FX=P30,
                                      FY=P30,),
                                   _F(NOEUD=('N3','N7',),
                                      FX=M52M30,
                                      FY=M30,),
                                   _F(NOEUD=('N4','N8',),
                                      FX=M30,
                                      FY=P30,),),);

L_INST=DEFI_LIST_REEL(DEBUT=0.0,
                      INTERVALLE=(_F(JUSQU_A=30.0,
                                     NOMBRE=20,),
                                  _F(JUSQU_A=3630.0,
                                     NOMBRE=15,),
                                  _F(JUSQU_A=3660.0,
                                     NOMBRE=3,),
                                  _F(JUSQU_A=3720.0,
                                     NOMBRE=1,),),);

U=STAT_NON_LINE(MODELE=MO,
                CHAM_MATER=CM1,
                EXCIT=(_F(CHARGE=CH1,),
                       _F(CHARGE=CH2,),),
                COMPORTEMENT=_F(RELATION='LEMAITRE',
                             ITER_INTE_MAXI=1000,
                             PARM_THETA=0.5,),
                INCREMENT=_F(LIST_INST=L_INST,),
                NEWTON=_F(MATRICE='TANGENTE',
                          REAC_ITER=1,),
                CONVERGENCE=_F(RESI_GLOB_MAXI=1.E-6,
                               ITER_GLOB_MAXI=25,),);

U=CALC_CHAMP(reuse=U,RESULTAT=U,CONTRAINTE=('SIGM_ELNO'),VARI_INTERNE=('VARI_ELNO'))


U=CALC_CHAMP(reuse=U,RESULTAT=U,DEFORMATION=('EPSI_ELNO','EPSP_ELNO'))


TEST_RESU(RESU=(_F(NUME_ORDRE=20,
                   REFERENCE='SOURCE_EXTERNE',
                   RESULTAT=U,
                   NOM_CHAM='EPSP_ELNO',
                   NOEUD='N2',
                   NOM_CMP='EPXX',
                   VALE_CALC= 2.45678492E-04,
                   VALE_REFE=2.4649999999999997E-4,
                   PRECISION=5.0E-3,
                   MAILLE='M1',),
                _F(NUME_ORDRE=20,
                   REFERENCE='SOURCE_EXTERNE',
                   RESULTAT=U,
                   NOM_CHAM='EPSP_ELNO',
                   NOEUD='N2',
                   NOM_CMP='EPXY',
                   VALE_CALC= 2.12763815E-04,
                   VALE_REFE=2.1350000000000001E-4,
                   PRECISION=5.0E-3,
                   MAILLE='M1',),
                _F(NUME_ORDRE=35,
                   REFERENCE='SOURCE_EXTERNE',
                   RESULTAT=U,
                   NOM_CHAM='EPSP_ELNO',
                   NOEUD='N2',
                   NOM_CMP='EPXX',
                   VALE_CALC= 2.87605635E-03,
                   VALE_REFE=2.8670000000000002E-3,
                   PRECISION=5.0E-3,
                   MAILLE='M1',),
                _F(NUME_ORDRE=35,
                   REFERENCE='SOURCE_EXTERNE',
                   RESULTAT=U,
                   NOM_CHAM='EPSP_ELNO',
                   NOEUD='N2',
                   NOM_CMP='EPXY',
                   VALE_CALC= 2.49073786E-03,
                   VALE_REFE=2.483E-3,
                   PRECISION=5.0E-3,
                   MAILLE='M1',),
                _F(NUME_ORDRE=38,
                   REFERENCE='SOURCE_EXTERNE',
                   RESULTAT=U,
                   NOM_CHAM='EPSP_ELNO',
                   NOEUD='N2',
                   NOM_CMP='EPXX',
                   VALE_CALC= 2.88871267E-03,
                   VALE_REFE=2.879E-3,
                   PRECISION=5.0E-3,
                   MAILLE='M1',),
                _F(NUME_ORDRE=38,
                   REFERENCE='SOURCE_EXTERNE',
                   RESULTAT=U,
                   NOM_CHAM='EPSP_ELNO',
                   NOEUD='N2',
                   NOM_CMP='EPXY',
                   VALE_CALC= 2.56208102E-03,
                   VALE_REFE=2.565E-3,
                   PRECISION=5.0E-3,
                   MAILLE='M1',),
                _F(NUME_ORDRE=39,
                   REFERENCE='SOURCE_EXTERNE',
                   RESULTAT=U,
                   NOM_CHAM='EPSP_ELNO',
                   NOEUD='N2',
                   NOM_CMP='EPXX',
                   VALE_CALC= 2.88871267E-03,
                   VALE_REFE=2.879E-3,
                   PRECISION=5.0E-3,
                   MAILLE='M1',),
                _F(NUME_ORDRE=39,
                   REFERENCE='SOURCE_EXTERNE',
                   RESULTAT=U,
                   NOM_CHAM='EPSP_ELNO',
                   NOEUD='N2',
                   NOM_CMP='EPXY',
                   VALE_CALC= 3.27056046E-03,
                   VALE_REFE=3.2720000000000002E-3,
                   PRECISION=5.0E-3,
                   MAILLE='M1',),
                ),
          )

U=CALC_CHAMP(reuse=U,RESULTAT=U,DEFORMATION=('EPSP_ELGA','EPME_ELGA','EPMG_ELGA'))


TEST_RESU(RESU=(_F(NUME_ORDRE=39,
                   POINT=1,
                   RESULTAT=U,
                   NOM_CHAM='EPSP_ELGA',
                   NOM_CMP='EPXX',
                   VALE_CALC=2.8887126669634002E-3,
                   MAILLE='M1',),
                _F(NUME_ORDRE=39,
                   POINT=1,
                   RESULTAT=U,
                   NOM_CHAM='EPSP_ELGA',
                   NOM_CMP='EPYY',
                   VALE_CALC=-1.4443563334817001E-3,
                   MAILLE='M1',),
                _F(NUME_ORDRE=39,
                   POINT=1,
                   RESULTAT=U,
                   NOM_CHAM='EPME_ELGA',
                   NOM_CMP='EPXX',
                   VALE_CALC=2.8887126669634002E-3,
                   MAILLE='M1',),
                _F(NUME_ORDRE=39,
                   POINT=1,
                   RESULTAT=U,
                   NOM_CHAM='EPME_ELGA',
                   NOM_CMP='EPYY',
                   VALE_CALC=-1.4443563334817001E-3,
                   MAILLE='M1',),
                _F(NUME_ORDRE=39,
                   POINT=1,
                   RESULTAT=U,
                   NOM_CHAM='EPMG_ELGA',
                   NOM_CMP='EPXX',
                   VALE_CALC=2.9435992147218999E-3,
                   MAILLE='M1',),
                _F(NUME_ORDRE=39,
                   POINT=1,
                   RESULTAT=U,
                   NOM_CHAM='EPMG_ELGA',
                   NOM_CMP='EPYY',
                   VALE_CALC=-1.4433132508727001E-3,
                   MAILLE='M1',),
                ),
          )

U=CALC_CHAMP(reuse=U,RESULTAT=U,DEFORMATION=('EPME_ELNO','EPMG_ELNO'))


TEST_RESU(RESU=(_F(NUME_ORDRE=39,
                   RESULTAT=U,
                   NOM_CHAM='EPME_ELNO',
                   NOEUD='N1',
                   NOM_CMP='EPXX',
                   VALE_CALC=2.8887126669634002E-3,
                   MAILLE='M1',),
                _F(NUME_ORDRE=39,
                   RESULTAT=U,
                   NOM_CHAM='EPME_ELNO',
                   NOEUD='N1',
                   NOM_CMP='EPYY',
                   VALE_CALC=-1.4443563334817001E-3,
                   MAILLE='M1',),
                _F(NUME_ORDRE=39,
                   RESULTAT=U,
                   NOM_CHAM='EPMG_ELNO',
                   NOEUD='N1',
                   NOM_CMP='EPXX',
                   VALE_CALC=2.9435992147218999E-3,
                   MAILLE='M1',),
                _F(NUME_ORDRE=39,
                   RESULTAT=U,
                   NOM_CHAM='EPMG_ELNO',
                   NOEUD='N1',
                   NOM_CMP='EPYY',
                   VALE_CALC=-1.4433132508727001E-3,
                   MAILLE='M1',),
                ),
          )

U2=STAT_NON_LINE(MODELE=MO,
                 CHAM_MATER=CM2,
                 EXCIT=(_F(CHARGE=CH1,),
                        _F(CHARGE=CH2,),),
                 COMPORTEMENT=_F(RELATION='LEMAITRE',
                              ITER_INTE_MAXI=1000,
                              PARM_THETA=0.5,),
                 ETAT_INIT=_F(DEPL=CHDEP0,
                              SIGM=CHSIG0,
                              VARI=CHVAR0,),
                 INCREMENT=_F(LIST_INST=L_INST,
                              NUME_INST_INIT=10,
                              NUME_INST_FIN=20,),
                 NEWTON=_F(MATRICE='TANGENTE',
                           REAC_ITER=1,),
                 CONVERGENCE=_F(RESI_GLOB_MAXI=1.E-6,
                                ITER_GLOB_MAXI=25,),);

U2=CALC_CHAMP(reuse=U2,RESULTAT=U2,CONTRAINTE=('SIGM_ELNO'),VARI_INTERNE=('VARI_ELNO'))


U2=CALC_CHAMP(reuse=U2,RESULTAT=U2,DEFORMATION=('EPSI_ELNO','EPSP_ELNO'))


TEST_RESU(RESU=(_F(INST=16.5,
                   REFERENCE='SOURCE_EXTERNE',
                   RESULTAT=U2,
                   NOM_CHAM='DEPL',
                   NOEUD='N3',
                   NOM_CMP='DX',
                   VALE_CALC=-7.68371369E-04,
                   VALE_REFE=-7.6837100000000001E-4,
                   PRECISION=5.0E-3,),
                _F(INST=16.5,
                   REFERENCE='SOURCE_EXTERNE',
                   RESULTAT=U2,
                   NOM_CHAM='DEPL',
                   NOEUD='N3',
                   NOM_CMP='DY',
                   VALE_CALC=-3.00830508E-03,
                   VALE_REFE=-3.0083100000000002E-3,
                   PRECISION=5.0E-3,),
                _F(INST=16.5,
                   REFERENCE='SOURCE_EXTERNE',
                   RESULTAT=U2,
                   NOM_CHAM='EPSI_ELNO',
                   NOEUD='N3',
                   NOM_CMP='EPXY',
                   VALE_CALC= 1.50415254E-03,
                   VALE_REFE=1.5039999999999999E-3,
                   PRECISION=5.0E-3,
                   MAILLE='M1',),
                _F(INST=30.0,
                   REFERENCE='SOURCE_EXTERNE',
                   RESULTAT=U2,
                   NOM_CHAM='EPSP_ELNO',
                   NOEUD='N2',
                   NOM_CMP='EPXX',
                   VALE_CALC= 2.45678463E-04,
                   VALE_REFE=2.4649999999999997E-4,
                   PRECISION=5.0E-3,
                   MAILLE='M1',),
                _F(INST=30.0,
                   REFERENCE='SOURCE_EXTERNE',
                   RESULTAT=U2,
                   NOM_CHAM='EPSP_ELNO',
                   NOEUD='N2',
                   NOM_CMP='EPXY',
                   VALE_CALC= 2.12763826E-04,
                   VALE_REFE=2.1350000000000001E-4,
                   PRECISION=5.0E-3,
                   MAILLE='M1',),
                ),
          )

U2=CALC_CHAMP(reuse=U2,RESULTAT=U2,DEFORMATION=('EPSP_ELGA','EPME_ELGA','EPMG_ELGA'))


TEST_RESU(RESU=(_F(INST=30.0,
                   POINT=1,
                   RESULTAT=U2,
                   NOM_CHAM='EPSP_ELGA',
                   NOM_CMP='EPXX',
                   VALE_CALC=2.4567846311110002E-4,
                   MAILLE='M1',),
                _F(INST=30.0,
                   POINT=1,
                   RESULTAT=U2,
                   NOM_CHAM='EPSP_ELGA',
                   NOM_CMP='EPYY',
                   VALE_CALC=-1.2283941856557E-4,
                   MAILLE='M1',),
                _F(INST=30.0,
                   POINT=1,
                   RESULTAT=U2,
                   NOM_CHAM='EPME_ELGA',
                   NOM_CMP='EPXX',
                   VALE_CALC=1.4214903332119E-3,
                   MAILLE='M1',),
                _F(INST=30.0,
                   POINT=1,
                   RESULTAT=U2,
                   NOM_CHAM='EPME_ELGA',
                   NOM_CMP='EPYY',
                   VALE_CALC=-4.7558297959579999E-4,
                   MAILLE='M1',),
                _F(INST=30.0,
                   POINT=1,
                   RESULTAT=U2,
                   NOM_CHAM='EPMG_ELGA',
                   NOM_CMP='EPXX',
                   VALE_CALC=1.4314281602812999E-3,
                   MAILLE='M1',),
                _F(INST=30.0,
                   POINT=1,
                   RESULTAT=U2,
                   NOM_CHAM='EPMG_ELGA',
                   NOM_CMP='EPYY',
                   VALE_CALC=-4.7546989001056E-4,
                   MAILLE='M1',),
                ),
          )

U2=CALC_CHAMP(reuse=U2,RESULTAT=U2,DEFORMATION=('EPME_ELNO','EPMG_ELNO'))


TEST_RESU(RESU=(_F(INST=30.0,
                   RESULTAT=U2,
                   NOM_CHAM='EPME_ELNO',
                   NOEUD='N1',
                   NOM_CMP='EPXX',
                   VALE_CALC=1.4214903332119E-3,
                   MAILLE='M1',),
                _F(INST=30.0,
                   RESULTAT=U2,
                   NOM_CHAM='EPME_ELNO',
                   NOEUD='N1',
                   NOM_CMP='EPYY',
                   VALE_CALC=-4.7558297959579999E-4,
                   MAILLE='M1',),
                _F(INST=30.0,
                   RESULTAT=U2,
                   NOM_CHAM='EPMG_ELNO',
                   NOEUD='N1',
                   NOM_CMP='EPXX',
                   VALE_CALC=1.4314281602812999E-3,
                   MAILLE='M1',),
                _F(INST=30.0,
                   RESULTAT=U2,
                   NOM_CHAM='EPMG_ELNO',
                   NOEUD='N1',
                   NOM_CMP='EPYY',
                   VALE_CALC=-4.7546989001055002E-4,
                   MAILLE='M1',),
                ),
          )

FIN();
