# TITRE CONTACT DE DEUX PLAQUES
# ======================================================================
# COPYRIGHT (C) 1991 - 2012  EDF R&D                  WWW.CODE-ASTER.ORG
# THIS PROGRAM IS FREE SOFTWARE; YOU CAN REDISTRIBUTE IT AND/OR MODIFY
# IT UNDER THE TERMS OF THE GNU GENERAL PUBLIC LICENSE AS PUBLISHED BY
# THE FREE SOFTWARE FOUNDATION; EITHER VERSION 2 OF THE LICENSE, OR
# (AT YOUR OPTION) ANY LATER VERSION.
#
# THIS PROGRAM IS DISTRIBUTED IN THE HOPE THAT IT WILL BE USEFUL, BUT
# WITHOUT ANY WARRANTY; WITHOUT EVEN THE IMPLIED WARRANTY OF
# MERCHANTABILITY OR FITNESS FOR A PARTICULAR PURPOSE. SEE THE GNU
# GENERAL PUBLIC LICENSE FOR MORE DETAILS.
#
# YOU SHOULD HAVE RECEIVED A COPY OF THE GNU GENERAL PUBLIC LICENSE
# ALONG WITH THIS PROGRAM; IF NOT, WRITE TO EDF R&D CODE_ASTER,
#    1 AVENUE DU GENERAL DE GAULLE, 92141 CLAMART CEDEX, FRANCE.
# ======================================================================
# CAS_TEST__:SSNP121B
# ECRASEMENT DE DEUX BLOCS
# MODELISATION 2D DP ELEMENTS LINEAIRES
#



DEBUT(CODE=_F(NOM='SSNP121B',NIV_PUB_WEB='INTERNET'),DEBUG=_F(SDVERI='OUI'))

MA=LIRE_MAILLAGE(FORMAT='MED',);

MA=DEFI_GROUP(reuse =MA,
              MAILLAGE=MA,
              CREA_GROUP_NO=(_F(GROUP_MA='AB',),
                             _F(GROUP_MA='CD',),
                             _F(GROUP_MA='EF',),
                             _F(GROUP_MA='FG',),
                             _F(GROUP_MA='GH',),
                             _F(GROUP_MA='HE',),),);

MO=AFFE_MODELE(MAILLAGE=MA,
               AFFE=(_F(TOUT='OUI',
                        PHENOMENE='MECANIQUE',
                        MODELISATION='D_PLAN',),),);

MAT2=DEFI_MATERIAU(ELAS=_F(E=2000000.0,
                           NU=0.0,),);

MAT1=DEFI_MATERIAU(ELAS=_F(E=2000000.0,
                           NU=0.0,),);

CHMAT=AFFE_MATERIAU(MAILLAGE=MA,
                    AFFE=(_F(GROUP_MA='PLAQUE1',
                             MATER=MAT2,),
                          _F(GROUP_MA='PLAQUE2',
                             MATER=MAT1,),),);

CHA1=AFFE_CHAR_MECA(MODELE=MO,
                    DDL_IMPO=(_F(GROUP_NO='CD',
                                 DX=0.0,
                                 DY=-0.1,),
                              _F(GROUP_NO='GH',
                                 DX=0.0,
                                 DY=0.0,),),);


CHA2   = DEFI_CONTACT(MODELE      = MO,
                      FORMULATION = 'DISCRETE',
                      ZONE=_F(
                               GROUP_MA_MAIT = 'AB',
                               GROUP_MA_ESCL = 'EF',
                             ),
                      );

L_INST=DEFI_LIST_REEL(DEBUT=0.0,
                      INTERVALLE=_F(JUSQU_A=1.0,
                                    NOMBRE=1,),);

FONC=DEFI_FONCTION(NOM_PARA='INST',
                   VALE=(0.0,  0.0,
                         1.0,  1.0,),);

RESU=STAT_NON_LINE(SOLVEUR=_F(SYME='OUI',),
                   MODELE=MO,
                   CHAM_MATER=CHMAT,
                   EXCIT=(_F(CHARGE=CHA1,
                             FONC_MULT=FONC,),),
                   CONTACT  = CHA2,
                   COMPORTEMENT=_F(RELATION='ELAS',),
                   INCREMENT=_F(LIST_INST=L_INST),);


RESU=CALC_CHAMP(reuse =RESU,
                CONTRAINTE=('SIGM_ELNO'),
               RESULTAT=RESU,);

RESU=CALC_CHAMP(reuse =RESU,
             RESULTAT=RESU,
             CONTRAINTE='SIGM_NOEU',
             );

TEST_RESU(RESU=_F(NUME_ORDRE=1,
                  REFERENCE='ANALYTIQUE',
                  RESULTAT=RESU,
                  NOM_CHAM='SIGM_NOEU',
                  NOEUD='N14',
                  NOM_CMP='SIYY',
                  VALE_CALC=-9.96244821E+04,
                  VALE_REFE=-1.E5,
                  CRITERE='RELATIF',
                  PRECISION=1.E-2,),
          )

TEST_RESU(RESU=_F(NUME_ORDRE=1,
                  GROUP_NO='A',
                  REFERENCE='ANALYTIQUE',
                  RESULTAT=RESU,
                  NOM_CHAM='SIGM_NOEU',
                  NOM_CMP='SIYY',
                  VALE_CALC=-1.06004273E+05,
                  VALE_REFE=-1.E5,
                  CRITERE='RELATIF',
                  PRECISION=0.060999999999999999,),
          )

TEST_RESU(RESU=_F(NUME_ORDRE=1,
                  GROUP_NO='B',
                  REFERENCE='ANALYTIQUE',
                  RESULTAT=RESU,
                  NOM_CHAM='SIGM_NOEU',
                  NOM_CMP='SIYY',
                  VALE_CALC=-1.06004273E+05,
                  VALE_REFE=-1.E5,
                  CRITERE='RELATIF',
                  PRECISION=0.060999999999999999,),
          )

# -------------------------------------------------------

TEST_RESU(RESU=_F(NUME_ORDRE=1,
                  REFERENCE='ANALYTIQUE',
                  RESULTAT=RESU,
                  NOM_CHAM='DEPL',
                  NOEUD='N14',
                  NOM_CMP='DY',
                  VALE_CALC=-0.050173429,
                  VALE_REFE=-0.050000000000000003,
                  CRITERE='RELATIF',
                  PRECISION=1.E-2,),
          )

TEST_RESU(RESU=_F(NUME_ORDRE=1,
                  GROUP_NO='A',
                  REFERENCE='ANALYTIQUE',
                  RESULTAT=RESU,
                  NOM_CHAM='DEPL',
                  NOM_CMP='DY',
                  VALE_CALC=-0.049166893,
                  VALE_REFE=-0.050000000000000003,
                  CRITERE='RELATIF',
                  PRECISION=0.0167,),
          )

TEST_RESU(RESU=_F(NUME_ORDRE=1,
                  GROUP_NO='B',
                  REFERENCE='ANALYTIQUE',
                  RESULTAT=RESU,
                  NOM_CHAM='DEPL',
                  NOM_CMP='DY',
                  VALE_CALC=-0.049166893,
                  VALE_REFE=-0.050000000000000003,
                  CRITERE='RELATIF',
                  PRECISION=0.0167,),
          )

FIN();
