# MODIF  DATE 11/06/2012   AUTEUR DELMAS J.DELMAS 
# TITRE ESSAI DE TRACTION-CISAILLEMENT (MISES ECR. ISOT. DKT)
#            CONFIGURATION MANAGEMENT OF EDF VERSION
# ======================================================================
# COPYRIGHT (C) 1991 - 2012  EDF R&D                  WWW.CODE-ASTER.ORG
# THIS PROGRAM IS FREE SOFTWARE; YOU CAN REDISTRIBUTE IT AND/OR MODIFY
# IT UNDER THE TERMS OF THE GNU GENERAL PUBLIC LICENSE AS PUBLISHED BY
# THE FREE SOFTWARE FOUNDATION; EITHER VERSION 2 OF THE LICENSE, OR
# (AT YOUR OPTION) ANY LATER VERSION.
#
# THIS PROGRAM IS DISTRIBUTED IN THE HOPE THAT IT WILL BE USEFUL, BUT
# WITHOUT ANY WARRANTY; WITHOUT EVEN THE IMPLIED WARRANTY OF
# MERCHANTABILITY OR FITNESS FOR A PARTICULAR PURPOSE. SEE THE GNU
# GENERAL PUBLIC LICENSE FOR MORE DETAILS.
#
# YOU SHOULD HAVE RECEIVED A COPY OF THE GNU GENERAL PUBLIC LICENSE
# ALONG WITH THIS PROGRAM; IF NOT, WRITE TO EDF R&D CODE_ASTER,
#    1 AVENUE DU GENERAL DE GAULLE, 92141 CLAMART CEDEX, FRANCE.
# ======================================================================

DEBUT(CODE=_F(NOM='SSNP15C', NIV_PUB_WEB='INTERNET'), DEBUG=_F(SDVERI='OUI'))
#......................................................................
# PLAQUE CARREE EN TRACTION CISAILLEMENT CALCUL DKT EN MEMBRANE
# ELASTOPLASTICITE ISOTROPE VON MISES   (2 TRIA3 ET 1 QUAD4)
#......................................................................

M=LIRE_MAILLAGE();

M=DEFI_GROUP(reuse =M,
             MAILLAGE=M,
             CREA_GROUP_MA=_F(NOM='TOUT',
                              TOUT='OUI',),);

MO=AFFE_MODELE(MAILLAGE=M,
               VERIF='MAILLE',
               AFFE=_F(TOUT='OUI',
                       PHENOMENE='MECANIQUE',
                       MODELISATION='DKT',),);

CARAC=AFFE_CARA_ELEM(MODELE=MO,
                     COQUE=_F(GROUP_MA='TOUT', 
                     ANGL_REP=(10.0,43.0,),
                              EPAIS=2.0,
                              COQUE_NCOU=2,),);

ACIER=DEFI_MATERIAU(ELAS=_F(E=195000.0,
                            NU=0.3,),
                    ECRO_LINE=_F(D_SIGM_EPSI=1930.0,
                                 SY=181.0,),);

CM=AFFE_MATERIAU(MAILLAGE=M,
                 AFFE=_F(TOUT='OUI',
                         MATER=ACIER,),);

SIGMA_F=DEFI_FONCTION(NOM_PARA='INST',
                      VALE=(0.0,0.0,1.0,151.2,),
                      PROL_DROITE='EXCLU',
                      PROL_GAUCHE='EXCLU',);

TAU_F=DEFI_FONCTION(NOM_PARA='INST',
                    VALE=(0.0,0.0,1.0,93.1,),
                    PROL_DROITE='EXCLU',
                    PROL_GAUCHE='EXCLU',);

TRACTION=AFFE_CHAR_MECA(MODELE=MO,
                        FORCE_ARETE=_F(MAILLE='GAUCHE',
                                       FY=-1.2,
                                       FZ=-1.6,),);

CISAIL=AFFE_CHAR_MECA(MODELE=MO,
                      FORCE_ARETE=(_F(MAILLE='GAUCHE',
                                      FY=1.6,
                                      FZ=-1.2,),
                                   _F(MAILLE='DROITE',
                                      FY=-1.6,
                                      FZ=1.2,),
                                   _F(GROUP_MA='HAUT',
                                      FY=1.2,
                                      FZ=1.6,),
                                   _F(GROUP_MA='BAS',
                                      FY=-1.2,
                                      FZ=-1.6,),),);

LIAISON=AFFE_CHAR_MECA(MODELE=MO,
                       DDL_IMPO=(_F(NOEUD='NO4',
                                    DY=0.0,
                                    DZ=0.0,),
                                 _F(TOUT='OUI',
                                    DX=0.0,),),
                       LIAISON_DDL=_F(NOEUD=('NO2','NO2',),
                                      DDL=('DY','DZ',),
                                      COEF_MULT=(0.75,1.0,),
                                      COEF_IMPO=0.0,),);

RAMPE=DEFI_FONCTION(NOM_PARA='INST',
                    VALE=(0.0,0.0,1.0,1.0,),
                    PROL_DROITE='LINEAIRE',
                    PROL_GAUCHE='LINEAIRE',);

L_INST=DEFI_LIST_REEL(DEBUT=0.0,
                      INTERVALLE=_F(JUSQU_A=1.0,
                                    NOMBRE=1,),);
# STAT_NON_LINE 'VMIS_ISOT_LINE'
#-------------------------------

U=STAT_NON_LINE(MODELE=MO,
                CHAM_MATER=CM,
                CARA_ELEM=CARAC,
                EXCIT=(_F(CHARGE=LIAISON,),
                       _F(CHARGE=TRACTION,
                          FONC_MULT=SIGMA_F,),
                       _F(CHARGE=CISAIL,
                          FONC_MULT=TAU_F,),),
                COMP_INCR=_F(RELATION='VMIS_ISOT_LINE',
                             RESI_INTE_RELA=1e-08,
                             ITER_INTE_MAXI=30
                             ),
                INCREMENT=_F(LIST_INST=L_INST,),
                NEWTON=_F(MATRICE='TANGENTE',
                          REAC_ITER=3),
                RECH_LINEAIRE=_F(RHO_MAX=150),
                )

U=CALC_CHAMP(reuse=U,
             RESULTAT=U,
             CONTRAINTE =('SIGM_ELNO','EFGE_ELNO'),
             DEFORMATION=('EPSI_ELNO','DEGE_ELNO'),
             VARI_INTERNE ='VARI_ELNO',);

USUP=POST_CHAMP(RESULTAT=U,
                EXTR_COQUE=_F(NOM_CHAM=('SIGM_ELNO','EPSI_ELNO','VARI_ELNO'),
                              NUME_COUCHE=1,
                              NIVE_COUCHE='SUP',),);

UINF=POST_CHAMP(RESULTAT=U,
                TOUT_ORDRE='OUI',
                GROUP_MA='TOUT',
                EXTR_COQUE=_F(NOM_CHAM='VARI_ELNO',
                              NUME_COUCHE=1,
                              NIVE_COUCHE='INF',),);
UMOY=POST_CHAMP(RESULTAT=U,
                TOUT_ORDRE='OUI',
                GROUP_MA='TOUT',
                EXTR_COQUE=_F(NOM_CHAM=('EPSI_ELNO','VARI_ELNO',),
                              NUME_COUCHE=1,
                              NIVE_COUCHE='MOY',),);


SIGM=MODI_REPERE(RESULTAT=USUP,
                 MODI_CHAM=_F(TYPE_CHAM='TENS_3D',
                              NOM_CHAM='SIGM_ELNO',
                              NOM_CMP=('SIXX','SIYY','SIZZ','SIXY','SIXZ','SIYZ',),),
                 REPERE='COQUE',
                 AFFE=_F(ANGL_REP=(90.0,-53.13,),),);

EPSI=MODI_REPERE(RESULTAT=USUP,
                 MODI_CHAM=_F(TYPE_CHAM='TENS_3D',
                              NOM_CHAM='EPSI_ELNO',
                              NOM_CMP=('EPXX','EPYY','EPZZ','EPXY','EPXZ','EPYZ',),),
                 REPERE='COQUE',
                 AFFE=_F(ANGL_REP=(90.0,-53.13,),),);

EFGE=MODI_REPERE(RESULTAT=U,
                 MODI_CHAM=_F(TYPE_CHAM='COQUE_GENE',
                              NOM_CHAM='EFGE_ELNO',
                              NOM_CMP=('NXX','NYY','NXY','MXX','MYY','MXY','QX','QY',),),
                 REPERE='COQUE',
                 AFFE=_F(ANGL_REP=(90.0,-53.13,),),);

DEGE=MODI_REPERE(RESULTAT=U,
                 MODI_CHAM=_F(TYPE_CHAM='COQUE_GENE',
                              NOM_CHAM='DEGE_ELNO',
                              NOM_CMP=('EXX','EYY','EXY','KXX','KYY','KXY','GAX','GAY',),),
                 REPERE='COQUE',
                 AFFE=_F(ANGL_REP=(90.0,-53.13,),),);

TEST_RESU(RESU=(_F(RESULTAT=U,
                   INST=1.0,
                   NOM_CHAM='DEPL',
                   NOM_CMP='DY',
                   NOEUD='NO1',
                   VALE=0.018672237,
                   REFERENCE='ANALYTIQUE',
                   PRECISION=1e-06,),
                _F(RESULTAT=U,
                   INST=1.0,
                   NOM_CHAM='DEPL',
                   NOM_CMP='DZ',
                   NOEUD='NO1',
                   VALE=-0.032541319,
                   REFERENCE='ANALYTIQUE',
                   PRECISION=1e-06,),
                _F(RESULTAT=U,
                   INST=1.0,
                   NOM_CHAM='DEPL',
                   NOM_CMP='DY',
                   NOEUD='NO6',
                   VALE=0.012240029,
                   REFERENCE='ANALYTIQUE',
                   PRECISION=1e-06,),
                _F(RESULTAT=U,
                   INST=1.0,
                   NOM_CHAM='DEPL',
                   NOM_CMP='DZ',
                   NOEUD='NO6',
                   VALE=-0.018448593,
                   REFERENCE='ANALYTIQUE',
                   PRECISION=1e-06,),
                _F(RESULTAT=U,
                   INST=1.0,
                   NOM_CHAM='DEPL',
                   NOM_CMP='DY',
                   NOEUD='NO2',
                   VALE=0.005807823904,
                   REFERENCE='ANALYTIQUE',
                   PRECISION=1e-06,),
                _F(RESULTAT=U,
                   INST=1.0,
                   NOM_CHAM='DEPL',
                   NOM_CMP='DZ',
                   NOEUD='NO2',
                   VALE=-0.004355867928,
                   REFERENCE='ANALYTIQUE',
                   PRECISION=1e-06,),),);

TEST_RESU(RESU=(_F(RESULTAT=SIGM,
                   INST=1.0,
                   NOM_CHAM='SIGM_ELNO',
                   NOM_CMP='SIXX',
                   MAILLE='MA2',
                   NOEUD='NO1',
                   VALE=151.2,
                   REFERENCE='ANALYTIQUE',
                   PRECISION=0.01,),
                _F(RESULTAT=SIGM,
                   INST=1.0,
                   NOM_CHAM='SIGM_ELNO',
                   NOM_CMP='SIXY',
                   MAILLE='MA2',
                   NOEUD='NO1',
                   VALE=93.1,
                   REFERENCE='ANALYTIQUE',
                   PRECISION=0.01,),
                _F(RESULTAT=SIGM,
                   INST=1.0,
                   NOM_CHAM='SIGM_ELNO',
                   NOM_CMP='SIXX',
                   MAILLE='MA1',
                   NOEUD='NO3',
                   VALE=151.2,
                   REFERENCE='ANALYTIQUE',
                   PRECISION=0.01,),
                _F(RESULTAT=SIGM,
                   INST=1.0,
                   NOM_CHAM='SIGM_ELNO',
                   NOM_CMP='SIXY',
                   MAILLE='MA1',
                   NOEUD='NO3',
                   VALE=93.1,
                   REFERENCE='ANALYTIQUE',
                   PRECISION=0.01,),
                _F(RESULTAT=SIGM,
                   INST=1.0,
                   NOM_CHAM='SIGM_ELNO',
                   NOM_CMP='SIXX',
                   MAILLE='MA2',
                   NOEUD='NO3',
                   VALE=151.2,
                   PRECISION=0.01,),
                _F(RESULTAT=SIGM,
                   INST=1.0,
                   NOM_CHAM='SIGM_ELNO',
                   NOM_CMP='SIXY',
                   MAILLE='MA2',
                   NOEUD='NO3',
                   VALE=93.1,
                   REFERENCE='ANALYTIQUE',
                   PRECISION=0.01,),
                _F(RESULTAT=SIGM,
                   INST=1.0,
                   NOM_CHAM='SIGM_ELNO',
                   NOM_CMP='SIXX',
                   MAILLE='MA3',
                   NOEUD='NO2',
                   VALE=151.2,
                   REFERENCE='ANALYTIQUE',
                   PRECISION=0.01,),
                _F(RESULTAT=SIGM,
                   INST=1.0,
                   NOM_CHAM='SIGM_ELNO',
                   NOM_CMP='SIXY',
                   MAILLE='MA3',
                   NOEUD='NO2',
                   VALE=93.1,
                   REFERENCE='ANALYTIQUE',
                   PRECISION=0.01,),
                _F(RESULTAT=SIGM,
                   INST=1.0,
                   NOM_CHAM='SIGM_ELNO',
                   NOM_CMP='SIXX',
                   MAILLE='MA3',
                   NOEUD='NO4',
                   VALE=151.2,
                   REFERENCE='ANALYTIQUE',
                   PRECISION=0.01,),
                _F(RESULTAT=SIGM,
                   INST=1.0,
                   NOM_CHAM='SIGM_ELNO',
                   NOM_CMP='SIXY',
                   MAILLE='MA3',
                   NOEUD='NO4',
                   VALE=93.1,
                   REFERENCE='ANALYTIQUE',
                   PRECISION=0.01,),),);

TEST_RESU(RESU=(_F(RESULTAT=EPSI,
                   INST=1.0,
                   NOM_CHAM='EPSI_ELNO',
                   NOM_CMP='EPXX',
                   MAILLE='MA2',
                   NOEUD='NO1',
                   VALE=0.014829713,
                   REFERENCE='ANALYTIQUE',
                   PRECISION=0.0001,),
                _F(RESULTAT=EPSI,
                   INST=1.0,
                   NOM_CHAM='EPSI_ELNO',
                   NOM_CMP='EPYY',
                   MAILLE='MA2',
                   NOEUD='NO1',
                   VALE=-0.00725977988,
                   REFERENCE='ANALYTIQUE',
                   PRECISION=0.0001,),
                _F(RESULTAT=EPSI,
                   INST=1.0,
                   NOM_CHAM='EPSI_ELNO',
                   NOM_CMP='EPXY',
                   MAILLE='MA2',
                   NOEUD='NO1',
                   VALE=0.013601401,
                   REFERENCE='ANALYTIQUE',
                   PRECISION=0.0001,),
                _F(RESULTAT=EPSI,
                   INST=1.0,
                   NOM_CHAM='EPSI_ELNO',
                   NOM_CMP='EPXX',
                   MAILLE='MA1',
                   NOEUD='NO3',
                   VALE=0.014829713,
                   REFERENCE='ANALYTIQUE',
                   PRECISION=0.0001,),
                _F(RESULTAT=EPSI,
                   INST=1.0,
                   NOM_CHAM='EPSI_ELNO',
                   NOM_CMP='EPYY',
                   MAILLE='MA1',
                   NOEUD='NO3',
                   VALE=-0.00725977988,
                   REFERENCE='ANALYTIQUE',
                   PRECISION=0.0001,),
                _F(RESULTAT=EPSI,
                   INST=1.0,
                   NOM_CHAM='EPSI_ELNO',
                   NOM_CMP='EPXY',
                   MAILLE='MA1',
                   NOEUD='NO3',
                   VALE=0.013601401,
                   REFERENCE='ANALYTIQUE',
                   PRECISION=0.0001,),
                _F(RESULTAT=EPSI,
                   INST=1.0,
                   NOM_CHAM='EPSI_ELNO',
                   NOM_CMP='EPXX',
                   MAILLE='MA2',
                   NOEUD='NO3',
                   VALE=0.014829713,
                   REFERENCE='ANALYTIQUE',
                   PRECISION=0.0001,),
                _F(RESULTAT=EPSI,
                   INST=1.0,
                   NOM_CHAM='EPSI_ELNO',
                   NOM_CMP='EPYY',
                   MAILLE='MA2',
                   NOEUD='NO3',
                   VALE=-0.00725977988,
                   REFERENCE='ANALYTIQUE',
                   PRECISION=0.0001,),
                _F(RESULTAT=EPSI,
                   INST=1.0,
                   NOM_CHAM='EPSI_ELNO',
                   NOM_CMP='EPXY',
                   MAILLE='MA2',
                   NOEUD='NO3',
                   VALE=0.013601401,
                   REFERENCE='ANALYTIQUE',
                   PRECISION=0.0001,),
                _F(RESULTAT=EPSI,
                   INST=1.0,
                   NOM_CHAM='EPSI_ELNO',
                   NOM_CMP='EPXX',
                   MAILLE='MA3',
                   NOEUD='NO2',
                   VALE=0.014829713,
                   REFERENCE='ANALYTIQUE',
                   PRECISION=0.0001,),
                _F(RESULTAT=EPSI,
                   INST=1.0,
                   NOM_CHAM='EPSI_ELNO',
                   NOM_CMP='EPYY',
                   MAILLE='MA3',
                   NOEUD='NO2',
                   VALE=-0.00725977988,
                   REFERENCE='ANALYTIQUE',
                   PRECISION=0.0001,),
                _F(RESULTAT=EPSI,
                   INST=1.0,
                   NOM_CHAM='EPSI_ELNO',
                   NOM_CMP='EPXY',
                   MAILLE='MA3',
                   NOEUD='NO2',
                   VALE=0.013601401,
                   REFERENCE='ANALYTIQUE',
                   PRECISION=0.0001,),
                _F(RESULTAT=EPSI,
                   INST=1.0,
                   NOM_CHAM='EPSI_ELNO',
                   NOM_CMP='EPXX',
                   MAILLE='MA3',
                   NOEUD='NO4',
                   VALE=0.014829713,
                   REFERENCE='ANALYTIQUE',
                   PRECISION=0.0001,),
                _F(RESULTAT=EPSI,
                   INST=1.0,
                   NOM_CHAM='EPSI_ELNO',
                   NOM_CMP='EPYY',
                   MAILLE='MA3',
                   NOEUD='NO4',
                   VALE=-0.00725977988,
                   REFERENCE='ANALYTIQUE',
                   PRECISION=0.0001,),
                _F(RESULTAT=EPSI,
                   INST=1.0,
                   NOM_CHAM='EPSI_ELNO',
                   NOM_CMP='EPXY',
                   MAILLE='MA3',
                   NOEUD='NO4',
                   VALE=0.013601401,
                   REFERENCE='ANALYTIQUE',
                   PRECISION=0.0001,),),);

TEST_RESU(RESU=(_F(RESULTAT=EFGE,
                   INST=1.0,
                   NOM_CHAM='EFGE_ELNO',
                   NOM_CMP='NXX',
                   MAILLE='MA2',
                   NOEUD='NO1',
                   VALE=302.4,
                   REFERENCE='ANALYTIQUE',
                   PRECISION=0.01,),
                _F(RESULTAT=EFGE,
                   INST=1.0,
                   NOM_CHAM='EFGE_ELNO',
                   NOM_CMP='NXY',
                   MAILLE='MA2',
                   NOEUD='NO1',
                   VALE=186.2,
                   REFERENCE='ANALYTIQUE',
                   PRECISION=0.01,),
                _F(RESULTAT=EFGE,
                   INST=1.0,
                   NOM_CHAM='EFGE_ELNO',
                   NOM_CMP='NXX',
                   MAILLE='MA1',
                   NOEUD='NO3',
                   VALE=302.4,
                   REFERENCE='ANALYTIQUE',
                   PRECISION=0.01,),
                _F(RESULTAT=EFGE,
                   INST=1.0,
                   NOM_CHAM='EFGE_ELNO',
                   NOM_CMP='NXY',
                   MAILLE='MA1',
                   NOEUD='NO3',
                   VALE=186.2,
                   REFERENCE='ANALYTIQUE',
                   PRECISION=0.01,),
                _F(RESULTAT=EFGE,
                   INST=1.0,
                   NOM_CHAM='EFGE_ELNO',
                   NOM_CMP='NXX',
                   MAILLE='MA2',
                   NOEUD='NO3',
                   VALE=302.4,
                   REFERENCE='ANALYTIQUE',
                   PRECISION=0.01,),
                _F(RESULTAT=EFGE,
                   INST=1.0,
                   NOM_CHAM='EFGE_ELNO',
                   NOM_CMP='NXY',
                   MAILLE='MA2',
                   NOEUD='NO3',
                   VALE=186.2,
                   REFERENCE='ANALYTIQUE',
                   PRECISION=0.01,),
                _F(RESULTAT=EFGE,
                   INST=1.0,
                   NOM_CHAM='EFGE_ELNO',
                   NOM_CMP='NXX',
                   MAILLE='MA3',
                   NOEUD='NO2',
                   VALE=302.4,
                   REFERENCE='ANALYTIQUE',
                   PRECISION=0.01,),
                _F(RESULTAT=EFGE,
                   INST=1.0,
                   NOM_CHAM='EFGE_ELNO',
                   NOM_CMP='NXY',
                   MAILLE='MA3',
                   NOEUD='NO2',
                   VALE=186.2,
                   REFERENCE='ANALYTIQUE',
                   PRECISION=0.01,),
                _F(RESULTAT=EFGE,
                   INST=1.0,
                   NOM_CHAM='EFGE_ELNO',
                   NOM_CMP='NXX',
                   MAILLE='MA3',
                   NOEUD='NO4',
                   VALE=302.4,
                   REFERENCE='ANALYTIQUE',
                   PRECISION=0.01,),
                _F(RESULTAT=EFGE,
                   INST=1.0,
                   NOM_CHAM='EFGE_ELNO',
                   NOM_CMP='NXY',
                   MAILLE='MA3',
                   NOEUD='NO4',
                   VALE=186.2,
                   REFERENCE='ANALYTIQUE',
                   PRECISION=0.01,),),);

TEST_RESU(RESU=(_F(RESULTAT=UINF,
                   INST=1.0,
                   NOM_CHAM='VARI_ELNO',
                   NOM_CMP='V1',
                   TYPE_TEST='MIN',
                   VALE=0.0205473,
                   CRITERE='ABSOLU',
                   REFERENCE='ANALYTIQUE',
                   PRECISION=0.0001,),
                _F(RESULTAT=UINF,
                   INST=1.0,
                   NOM_CHAM='VARI_ELNO',
                   NOM_CMP='V1',
                   TYPE_TEST='MAX',
                   VALE=0.0205473,
                   CRITERE='ABSOLU',
                   REFERENCE='ANALYTIQUE',
                   PRECISION=0.0001,),
                _F(RESULTAT=UINF,
                   INST=1.0,
                   NOM_CHAM='VARI_ELNO',
                   NOM_CMP='V2',
                   TYPE_TEST='MIN',
                   VALE=1.0,
                   CRITERE='ABSOLU',
                   REFERENCE='ANALYTIQUE',
                   PRECISION=0.0001,),
                _F(RESULTAT=UINF,
                   INST=1.0,
                   NOM_CHAM='VARI_ELNO',
                   NOM_CMP='V2',
                   TYPE_TEST='MAX',
                   VALE=1.0,
                   CRITERE='ABSOLU',
                   REFERENCE='ANALYTIQUE',
                   PRECISION=0.0001,),),);

TEST_RESU(RESU=(_F(RESULTAT=UMOY,
                   INST=1.0,
                   NOM_CHAM='VARI_ELNO',
                   NOM_CMP='V1',
                   TYPE_TEST='MIN',
                   VALE=0.0205473,
                   CRITERE='ABSOLU',
                   REFERENCE='ANALYTIQUE',
                   PRECISION=0.0001,),
                _F(RESULTAT=UMOY,
                   INST=1.0,
                   NOM_CHAM='VARI_ELNO',
                   NOM_CMP='V1',
                   TYPE_TEST='MAX',
                   VALE=0.0205473,
                   CRITERE='ABSOLU',
                   REFERENCE='ANALYTIQUE',
                   PRECISION=0.0001,),
                _F(RESULTAT=UMOY,
                   INST=1.0,
                   NOM_CHAM='VARI_ELNO',
                   NOM_CMP='V2',
                   TYPE_TEST='MIN',
                   VALE=1.0,
                   REFERENCE='ANALYTIQUE',
                   CRITERE='ABSOLU',
                   PRECISION=0.0001,),
                _F(RESULTAT=UMOY,
                   INST=1.0,
                   NOM_CHAM='VARI_ELNO',
                   NOM_CMP='V2',
                   TYPE_TEST='MAX',
                   VALE=1.0,
                   CRITERE='ABSOLU',
                   REFERENCE='ANALYTIQUE',
                   PRECISION=0.0001,),),);

TEST_RESU(RESU=(_F(RESULTAT=USUP,
                   INST=1.0,
                   NOM_CHAM='VARI_ELNO',
                   NOM_CMP='V1',
                   TYPE_TEST='MIN',
                   VALE=0.0205473,
                   CRITERE='ABSOLU',
                   REFERENCE='NON_REGRESSION',
                   PRECISION=0.0001,),
                _F(RESULTAT=USUP,
                   INST=1.0,
                   NOM_CHAM='VARI_ELNO',
                   NOM_CMP='V1',
                   TYPE_TEST='MAX',
                   VALE=0.0205473,
                   CRITERE='ABSOLU',
                   REFERENCE='NON_REGRESSION',
                   PRECISION=0.0001,),
                _F(RESULTAT=USUP,
                   INST=1.0,
                   NOM_CHAM='VARI_ELNO',
                   NOM_CMP='V2',
                   TYPE_TEST='MIN',
                   VALE=1.0,
                   CRITERE='ABSOLU',
                   REFERENCE='NON_REGRESSION',
                   PRECISION=0.0001,),
                _F(RESULTAT=USUP,
                   INST=1.0,
                   NOM_CHAM='VARI_ELNO',
                   NOM_CMP='V2',
                   TYPE_TEST='MAX',
                   VALE=1.0,
                   CRITERE='ABSOLU',
                   REFERENCE='NON_REGRESSION',
                   PRECISION=0.0001,),),);

TEST_RESU(RESU=(_F(RESULTAT=DEGE,
                   INST=1.0,
                   NOM_CHAM='DEGE_ELNO',
                   NOM_CMP='EXX',
                   MAILLE='MA1',
                   NOEUD='NO3',
                   VALE=0.0148,
                   REFERENCE='ANALYTIQUE',
                   PRECISION=0.01,),
                _F(RESULTAT=DEGE,
                   INST=1.0,
                   NOM_CHAM='DEGE_ELNO',
                   NOM_CMP='EYY',
                   MAILLE='MA1',
                   NOEUD='NO3',
                   VALE=-7.25E-3,
                   REFERENCE='ANALYTIQUE',
                   PRECISION=0.01,),
                _F(RESULTAT=DEGE,
                   INST=1.0,
                   NOM_CHAM='DEGE_ELNO',
                   NOM_CMP='EXY',
                   MAILLE='MA1',
                   NOEUD='NO3',
                   VALE=1.3601E-2,
                   REFERENCE='ANALYTIQUE',
                   PRECISION=0.0001,),),);


FIN();
