# MODIF  DATE 30/07/2012   AUTEUR LEFEBVRE J-P.LEFEBVRE 
# TITRE ESSAI DE TRACTION-CISAILLEMENT (MISES ECROUISSAGE ISOTROPE)
# ssnp15f.para = tps_job 120 mem_job 512Mo liste_test S
#            CONFIGURATION MANAGEMENT OF EDF VERSION
# ======================================================================
# COPYRIGHT (C) 1991 - 2012  EDF R&D                  WWW.CODE-ASTER.ORG
# THIS PROGRAM IS FREE SOFTWARE; YOU CAN REDISTRIBUTE IT AND/OR MODIFY
# IT UNDER THE TERMS OF THE GNU GENERAL PUBLIC LICENSE AS PUBLISHED BY
# THE FREE SOFTWARE FOUNDATION; EITHER VERSION 2 OF THE LICENSE, OR
# (AT YOUR OPTION) ANY LATER VERSION.
#
# THIS PROGRAM IS DISTRIBUTED IN THE HOPE THAT IT WILL BE USEFUL, BUT
# WITHOUT ANY WARRANTY; WITHOUT EVEN THE IMPLIED WARRANTY OF
# MERCHANTABILITY OR FITNESS FOR A PARTICULAR PURPOSE. SEE THE GNU
# GENERAL PUBLIC LICENSE FOR MORE DETAILS.
#
# YOU SHOULD HAVE RECEIVED A COPY OF THE GNU GENERAL PUBLIC LICENSE
# ALONG WITH THIS PROGRAM; IF NOT, WRITE TO EDF R&D CODE_ASTER,
#    1 AVENUE DU GENERAL DE GAULLE, 92141 CLAMART CEDEX, FRANCE.
# ======================================================================

DEBUT(CODE=_F(NOM='SSNP15F',
              NIV_PUB_WEB='INTERNET',),
      DEBUG=_F(SDVERI='NON',),);

#......................................................................
# MODELISATION F : IDEM MODELISATION A AVEC UTILISATION D'UN CRITERE
#                  DE RE-DECOUPAGE DU PAS DE TEMPS PAR EVENT-DRIVEN
#......................................................................

MA=LIRE_MAILLAGE();

MO=AFFE_MODELE(MAILLAGE=MA,
               VERIF='MAILLE',
               AFFE=_F(TOUT='OUI',
                       PHENOMENE='MECANIQUE',
                       MODELISATION='3D',),);

ACIER=DEFI_MATERIAU(ELAS=_F(E=195000.,
                            NU=0.3,),
                    ECRO_LINE=_F(D_SIGM_EPSI=1930.,
                                 SY=181.,),
                    PRAGER=_F(C=0.,),);

CM=AFFE_MATERIAU(MAILLAGE=MA,
                 AFFE=_F(TOUT='OUI',
                         MATER=ACIER,),);

SIGMA_F=DEFI_FONCTION(NOM_PARA='INST',VALE=(0.0,0.0,
                            1.0,151.2,
                            2.0,257.2,
                            3.0,0.0,
                            ),PROL_DROITE='EXCLU',PROL_GAUCHE='EXCLU',);

TAU_F=DEFI_FONCTION(NOM_PARA='INST',VALE=(0.0,0.0,
                          1.0,93.1,
                          2.0,33.1,
                          3.0,0.0,
                          ),PROL_DROITE='EXCLU',PROL_GAUCHE='EXCLU',);

TRACTION=AFFE_CHAR_MECA(MODELE=MO,
                        FORCE_FACE=_F(MAILLE='GAUCHE',
                                      FX=-1.,),);

CISAIL=AFFE_CHAR_MECA(MODELE=MO,
                      FORCE_FACE=(_F(MAILLE='GAUCHE',
                                     FY=-1.,),
                                  _F(MAILLE='DROITE',
                                     FY=1.,),
                                  _F(MAILLE='HAUT',
                                     FX=1.,),
                                  _F(MAILLE='BAS',
                                     FX=-1.,),),);

LIAISON=AFFE_CHAR_MECA(MODELE=MO,
                       DDL_IMPO=(_F(NOEUD='NO4',
                                    DX=0.,
                                    DY=0.,),
                                 _F(NOEUD='NO8',
                                    DX=0.,
                                    DY=0.,
                                    DZ=0.,),
                                 _F(NOEUD='NO2',
                                    DX=0.,),
                                 _F(NOEUD='NO6',
                                    DX=0.,),),);

L_INST=DEFI_LIST_REEL(DEBUT=0.0,
                      INTERVALLE=(_F(JUSQU_A=0.1,
                                     NOMBRE=1,),
                                  _F(JUSQU_A=0.9,
                                     NOMBRE=1,),
                                  _F(JUSQU_A=1.0,
                                     NOMBRE=1,),
                                  _F(JUSQU_A=2.0,
                                     NOMBRE=1,),
                                  _F(JUSQU_A=3.0,
                                     NOMBRE=1,),),);

# gestion manuelle avec event-driven

DEFLIST=DEFI_LIST_INST(DEFI_LIST=_F(METHODE='MANUEL',
                                    LIST_INST=L_INST,),
                       ECHEC=_F(EVENEMENT='DELTA_GRANDEUR',
                                SUBD_NIVEAU=10,
                                VALE_REF=0.1e-2,
                                NOM_CHAM='VARI_ELGA',
                                NOM_CMP='V1',),);

U=STAT_NON_LINE(MODELE=MO,
                CHAM_MATER=CM,
                EXCIT=(_F(CHARGE=LIAISON,),
                       _F(CHARGE=TRACTION,
                          FONC_MULT=SIGMA_F,),
                       _F(CHARGE=CISAIL,
                          FONC_MULT=TAU_F,),),
                COMP_INCR=_F(RELATION='VMIS_ISOT_LINE',),
                INCREMENT=_F(LIST_INST=DEFLIST,),
                NEWTON=_F(MATRICE='TANGENTE',
                          REAC_ITER=3,),
                RECH_LINEAIRE=_F(RHO_MAX=150),
                )

# gestion manuelle avec critere sur radialite

nbincr=2

L_INST2=DEFI_LIST_REEL(DEBUT=0.0,
                      INTERVALLE=(_F(JUSQU_A=0.1,
                                     NOMBRE=1,),
                                  _F(JUSQU_A=0.9,
                                     NOMBRE=1,),
                                  _F(JUSQU_A=1.0,
                                     NOMBRE=1,),
                                  _F(JUSQU_A=2.0,
                                     NOMBRE=nbincr,),
                                  _F(JUSQU_A=3.0,
                                     NOMBRE=nbincr,),),);

# gestion manuelle avec event-driven

DEFLIST2=DEFI_LIST_INST(DEFI_LIST=_F(METHODE='MANUEL',
                                    LIST_INST=L_INST2,),
                       ECHEC=_F(SUBD_NIVEAU=10,),
                       );

U2=STAT_NON_LINE(MODELE=MO,
                 CHAM_MATER=CM,
                 EXCIT=(_F(CHARGE=LIAISON,),
                        _F(CHARGE=TRACTION,
                           FONC_MULT=SIGMA_F,),
                        _F(CHARGE=CISAIL,
                           FONC_MULT=TAU_F,),),
                 COMP_INCR=_F(RELATION='VMIS_ISOT_LINE',RESI_RADI_RELA=0.02),
                 INCREMENT=_F(LIST_INST=DEFLIST2,),
                 NEWTON=_F(MATRICE='TANGENTE',
                           REAC_ITER=3,),
                 RECH_LINEAIRE=_F(RHO_MAX=150),
                 )

U3=STAT_NON_LINE(MODELE=MO,
                 CHAM_MATER=CM,
                 EXCIT=(_F(CHARGE=LIAISON,),
                        _F(CHARGE=TRACTION,
                           FONC_MULT=SIGMA_F,),
                        _F(CHARGE=CISAIL,
                           FONC_MULT=TAU_F,),),
                 COMP_INCR=_F(RELATION='VMIS_ECMI_LINE',RESI_RADI_RELA=0.02),
                 INCREMENT=_F(LIST_INST=DEFLIST2,),
                 NEWTON=_F(MATRICE='TANGENTE',
                           REAC_ITER=3,),
                 RECH_LINEAIRE=_F(RHO_MAX=150),
                 )

U=CALC_CHAMP(reuse=U,RESULTAT=U,CONTRAINTE=('SIGM_ELNO'),VARI_INTERNE=('VARI_ELNO'),DEFORMATION=('EPSI_ELNO','EPSP_ELGA'))


U2=CALC_CHAMP(reuse=U2,RESULTAT=U2,CONTRAINTE=('SIGM_ELNO'),VARI_INTERNE=('VARI_ELNO'),DEFORMATION=('EPSI_ELNO','EPSP_ELGA'))


U3=CALC_CHAMP(reuse=U3,RESULTAT=U3,CONTRAINTE=('SIGM_ELNO'),VARI_INTERNE=('VARI_ELNO'),DEFORMATION=('EPSI_ELNO','EPSP_ELGA'))



VARI=CREA_CHAMP(TYPE_CHAM='ELNO_VARI_R',
                OPERATION='EXTR',
                RESULTAT=U,
                NOM_CHAM='VARI_ELNO',
                INST=1.,);

TEST_RESU(CHAM_ELEM=_F(CHAM_GD=VARI,
                       MAILLE='CUBE',
                       NOEUD='NO2',
                       NOM_CMP='V1',REFERENCE='NON_REGRESSION',
                       VALE=0.0205473,),
          RESU=(_F(RESULTAT=U,
                   INST=1.0,REFERENCE='AUTRE_ASTER',
                   NOM_CHAM='SIGM_ELNO',
                   NOM_CMP='SIXX',
                   MAILLE='CUBE',
                   NOEUD='NO2',
                   VALE=151.2,),
                _F(RESULTAT=U,
                   INST=1.0,REFERENCE='AUTRE_ASTER',
                   NOM_CHAM='SIGM_ELNO',
                   NOM_CMP='SIXY',
                   MAILLE='CUBE',
                   NOEUD='NO2',
                   VALE=93.1,),
                _F(RESULTAT=U,
                   INST=1.0,REFERENCE='AUTRE_ASTER',
                   NOM_CHAM='EPSI_ELNO',
                   NOM_CMP='EPXX',
                   MAILLE='CUBE',
                   NOEUD='NO2',
                   VALE=0.0148297,),
                _F(RESULTAT=U,
                   INST=1.0,REFERENCE='AUTRE_ASTER',
                   NOM_CHAM='EPSI_ELNO',
                   NOM_CMP='EPXY',
                   MAILLE='CUBE',
                   NOEUD='NO2',
                   VALE=0.0136014,),
                _F(RESULTAT=U,
                   INST=1.0,REFERENCE='AUTRE_ASTER',
                   NOM_CHAM='EPSP_ELGA',
                   NOM_CMP='EPXX',
                   MAILLE='CUBE',
                   POINT=1,
                   VALE=0.014054,),
                _F(RESULTAT=U,
                   INST=1.0,REFERENCE='AUTRE_ASTER',
                   NOM_CHAM='EPSP_ELGA',
                   NOM_CMP='EPXY',
                   MAILLE='CUBE',
                   POINT=1,
                   VALE=0.012981,),
                _F(RESULTAT=U,
                   INST=1.0,REFERENCE='AUTRE_ASTER',
                   NOM_CHAM='VARI_ELNO',
                   NOM_CMP='V1',
                   MAILLE='CUBE',
                   NOEUD='NO2',
                   VALE=0.0205473,),
                _F(RESULTAT=U,
                   INST=1.0,REFERENCE='AUTRE_ASTER',
                   NOM_CHAM='VARI_ELNO',
                   NOM_CMP='V2',
                   MAILLE='CUBE',
                   NOEUD='NO2',
                   VALE=1.0,),
                _F(RESULTAT=U,
                   INST=2.0,REFERENCE='AUTRE_ASTER',
                   NOM_CHAM='EPSI_ELNO',
                   NOM_CMP='EPXX',
                   MAILLE='CUBE',
                   NOEUD='NO2',
                   VALE=0.035265,
                   PRECISION=(0.006,1.e-6)),
                _F(RESULTAT=U,
                   INST=2.0,REFERENCE='AUTRE_ASTER',
                   NOM_CHAM='EPSI_ELNO',
                   NOM_CMP='EPXY',
                   MAILLE='CUBE',
                   NOEUD='NO2',
                   VALE=0.020471,
                   PRECISION=(0.006,1.e-6)),
                _F(RESULTAT=U,
                   INST=2.0,REFERENCE='AUTRE_ASTER',
                   NOM_CHAM='EPSP_ELGA',
                   NOM_CMP='EPXX',
                   MAILLE='CUBE',
                   POINT=1,
                   VALE=0.033946,
                   PRECISION=(0.006,1.e-6)),
                _F(RESULTAT=U,
                   INST=2.0,REFERENCE='AUTRE_ASTER',
                   NOM_CHAM='EPSP_ELGA',
                   NOM_CMP='EPXY',
                   MAILLE='CUBE',
                   POINT=1,
                   VALE=0.02025,
                   PRECISION=(0.006,1.e-6)),
                _F(RESULTAT=U,
                   INST=2.0,REFERENCE='AUTRE_ASTER',
                   NOM_CHAM='VARI_ELNO',
                   NOM_CMP='V1',
                   MAILLE='CUBE',
                   NOEUD='NO2',
                   VALE=(0.042329,1.e-6)),),);


TEST_RESU(RESU=(_F(RESULTAT=U2,
                   INST=1.0,REFERENCE='AUTRE_ASTER',
                   NOM_CHAM='SIGM_ELNO',
                   NOM_CMP='SIXX',
                   MAILLE='CUBE',
                   NOEUD='NO2',
                   VALE=151.2,),
                _F(RESULTAT=U2,
                   INST=1.0,REFERENCE='AUTRE_ASTER',
                   NOM_CHAM='SIGM_ELNO',
                   NOM_CMP='SIXY',
                   MAILLE='CUBE',
                   NOEUD='NO2',
                   VALE=93.1,),
                _F(RESULTAT=U2,
                   INST=1.0,REFERENCE='AUTRE_ASTER',
                   NOM_CHAM='EPSI_ELNO',
                   NOM_CMP='EPXX',
                   MAILLE='CUBE',
                   NOEUD='NO2',
                   VALE=0.0148297,),
                _F(RESULTAT=U2,
                   INST=1.0,REFERENCE='AUTRE_ASTER',
                   NOM_CHAM='EPSI_ELNO',
                   NOM_CMP='EPXY',
                   MAILLE='CUBE',
                   NOEUD='NO2',
                   VALE=0.0136014,),
                _F(RESULTAT=U2,
                   INST=1.0,REFERENCE='AUTRE_ASTER',
                   NOM_CHAM='EPSP_ELGA',
                   NOM_CMP='EPXX',
                   MAILLE='CUBE',
                   POINT=1,
                   VALE=0.014054,),
                _F(RESULTAT=U2,
                   INST=1.0,REFERENCE='AUTRE_ASTER',
                   NOM_CHAM='EPSP_ELGA',
                   NOM_CMP='EPXY',
                   MAILLE='CUBE',
                   POINT=1,
                   VALE=0.012981,),
                _F(RESULTAT=U2,
                   INST=1.0,REFERENCE='AUTRE_ASTER',
                   NOM_CHAM='VARI_ELNO',
                   NOM_CMP='V1',
                   MAILLE='CUBE',
                   NOEUD='NO2',
                   VALE=0.0205473,),
                _F(RESULTAT=U2,
                   INST=1.0,REFERENCE='AUTRE_ASTER',
                   NOM_CHAM='VARI_ELNO',
                   NOM_CMP='V2',
                   MAILLE='CUBE',
                   NOEUD='NO2',
                   VALE=1.0,),
                _F(RESULTAT=U2,
                   INST=2.0,REFERENCE='AUTRE_ASTER',
                   NOM_CHAM='EPSI_ELNO',
                   NOM_CMP='EPXX',
                   MAILLE='CUBE',
                   NOEUD='NO2',
                   VALE=0.035265,
                   PRECISION=(0.01,1.e-6)),
                _F(RESULTAT=U2,
                   INST=2.0,REFERENCE='AUTRE_ASTER',
                   NOM_CHAM='EPSI_ELNO',
                   NOM_CMP='EPXY',
                   MAILLE='CUBE',
                   NOEUD='NO2',
                   VALE=0.020471,
                   PRECISION=(0.01,1.e-6)),
                _F(RESULTAT=U2,
                   INST=2.0,REFERENCE='AUTRE_ASTER',
                   NOM_CHAM='EPSP_ELGA',
                   NOM_CMP='EPXX',
                   MAILLE='CUBE',
                   POINT=1,
                   VALE=0.033946,
                   PRECISION=(0.01,1.e-6)),
                _F(RESULTAT=U2,
                   INST=2.0,REFERENCE='AUTRE_ASTER',
                   NOM_CHAM='EPSP_ELGA',
                   NOM_CMP='EPXY',
                   MAILLE='CUBE',
                   POINT=1,
                   VALE=0.02025,
                   PRECISION=(0.01,1.e-6)),
                _F(RESULTAT=U2,
                   INST=2.0,REFERENCE='AUTRE_ASTER',
                   NOM_CHAM='VARI_ELNO',
                   NOM_CMP='V1',
                   MAILLE='CUBE',
                   NOEUD='NO2',
                   VALE=(0.042329,1.e-6)),),);


TEST_RESU(RESU=(_F(RESULTAT=U3,
                   INST=1.0,REFERENCE='AUTRE_ASTER',
                   NOM_CHAM='SIGM_ELNO',
                   NOM_CMP='SIXX',
                   MAILLE='CUBE',
                   NOEUD='NO2',
                   VALE=151.2,),
                _F(RESULTAT=U3,
                   INST=1.0,REFERENCE='AUTRE_ASTER',
                   NOM_CHAM='SIGM_ELNO',
                   NOM_CMP='SIXY',
                   MAILLE='CUBE',
                   NOEUD='NO2',
                   VALE=93.1,),
                _F(RESULTAT=U3,
                   INST=1.0,REFERENCE='AUTRE_ASTER',
                   NOM_CHAM='EPSI_ELNO',
                   NOM_CMP='EPXX',
                   MAILLE='CUBE',
                   NOEUD='NO2',
                   VALE=0.0148297,),
                _F(RESULTAT=U3,
                   INST=1.0,REFERENCE='AUTRE_ASTER',
                   NOM_CHAM='EPSI_ELNO',
                   NOM_CMP='EPXY',
                   MAILLE='CUBE',
                   NOEUD='NO2',
                   VALE=0.0136014,),
                _F(RESULTAT=U3,
                   INST=1.0,REFERENCE='AUTRE_ASTER',
                   NOM_CHAM='EPSP_ELGA',
                   NOM_CMP='EPXX',
                   MAILLE='CUBE',
                   POINT=1,
                   VALE=0.014054,),
                _F(RESULTAT=U3,
                   INST=1.0,REFERENCE='AUTRE_ASTER',
                   NOM_CHAM='EPSP_ELGA',
                   NOM_CMP='EPXY',
                   MAILLE='CUBE',
                   POINT=1,
                   VALE=0.012981,),
                _F(RESULTAT=U3,
                   INST=1.0,REFERENCE='AUTRE_ASTER',
                   NOM_CHAM='VARI_ELNO',
                   NOM_CMP='V1',
                   MAILLE='CUBE',
                   NOEUD='NO2',
                   VALE=0.0205473,),
                _F(RESULTAT=U3,
                   INST=1.0,REFERENCE='AUTRE_ASTER',
                   NOM_CHAM='VARI_ELNO',
                   NOM_CMP='V2',
                   MAILLE='CUBE',
                   NOEUD='NO2',
                   VALE=1.0,),
                _F(RESULTAT=U3,
                   INST=2.0,REFERENCE='AUTRE_ASTER',
                   NOM_CHAM='EPSI_ELNO',
                   NOM_CMP='EPXX',
                   MAILLE='CUBE',
                   NOEUD='NO2',
                   VALE=0.035265,
                   PRECISION=(0.01,1.e-6)),
                _F(RESULTAT=U3,
                   INST=2.0,REFERENCE='AUTRE_ASTER',
                   NOM_CHAM='EPSI_ELNO',
                   NOM_CMP='EPXY',
                   MAILLE='CUBE',
                   NOEUD='NO2',
                   VALE=0.020471,
                   PRECISION=(0.01,1.e-6)),
                _F(RESULTAT=U3,
                   INST=2.0,REFERENCE='AUTRE_ASTER',
                   NOM_CHAM='EPSP_ELGA',
                   NOM_CMP='EPXX',
                   MAILLE='CUBE',
                   POINT=1,
                   VALE=0.033946,
                   PRECISION=(0.01,1.e-6)),
                _F(RESULTAT=U3,
                   INST=2.0,REFERENCE='AUTRE_ASTER',
                   NOM_CHAM='EPSP_ELGA',
                   NOM_CMP='EPXY',
                   MAILLE='CUBE',
                   POINT=1,
                   VALE=0.02025,
                   PRECISION=(0.01,1.e-6)),
                _F(RESULTAT=U3,
                   INST=2.0,REFERENCE='AUTRE_ASTER',
                   NOM_CHAM='VARI_ELNO',
                   NOM_CMP='V1',
                   MAILLE='CUBE',
                   NOEUD='NO2',
                   VALE=(0.042329,1.e-6)),),);





# TEST DES INDICATEURS DE CHARGE - DECHARGE

U=CALC_CHAMP(reuse=U,RESULTAT=U,CRITERES=('DERA_ELGA','DERA_ELNO'))


U2=CALC_CHAMP(reuse=U2,RESULTAT=U2,CRITERES=('DERA_ELGA','DERA_ELNO'))


U3=CALC_CHAMP(reuse=U3,RESULTAT=U3,CRITERES=('DERA_ELGA','DERA_ELNO'))



TEST_RESU(RESU=(_F(RESULTAT=U,
                   INST=1.0,
                   NOM_CHAM='DERA_ELGA',
                   NOM_CMP='DCHA_V',
                   MAILLE='CUBE',
                   POINT=1,
                   VALE=-1.78681E-04,
                   CRITERE='RELATIF',
                   PRECISION=0.001,
                   REFERENCE='NON_REGRESSION',),
                _F(RESULTAT=U,
                   INST=1.0,
                   NOM_CHAM='DERA_ELNO',
                   NOM_CMP='DCHA_V',
                   MAILLE='CUBE',
                   NOEUD='NO2',
                   VALE=-1.78681E-04,
                   CRITERE='RELATIF',
                   PRECISION=0.001,
                   REFERENCE='NON_REGRESSION',),
                _F(RESULTAT=U,
                   INST=1.0,
                   NOM_CHAM='DERA_ELGA',
                   NOM_CMP='RADI_V',
                   MAILLE='CUBE',
                   POINT=1,
                   VALE=0.97772,
                   CRITERE='ABSOLU',
                   PRECISION=0.001,
                   REFERENCE='NON_REGRESSION',),
                _F(RESULTAT=U,
                   INST=1.0,
                   NOM_CHAM='DERA_ELGA',
                   NOM_CMP='ERR_RADI',
                   MAILLE='CUBE',
                   POINT=1,
                   VALE=0.,
                   CRITERE='ABSOLU',
                   PRECISION=0.001,
                   REFERENCE='NON_REGRESSION',),
                   ),);


TEST_RESU(RESU=(_F(RESULTAT=U2,
                   INST=1.5,
                   NOM_CHAM='DERA_ELGA',
                   NOM_CMP='DCHA_V',
                   MAILLE='CUBE',
                   POINT=1,
                   VALE=6.13655E-03,
                   CRITERE='RELATIF',
                   PRECISION=0.001,
                   REFERENCE='NON_REGRESSION',),
                _F(RESULTAT=U2,
                   INST=1.5,
                   NOM_CHAM='DERA_ELNO',
                   NOM_CMP='DCHA_V',
                   MAILLE='CUBE',
                   NOEUD='NO2',
                   VALE=6.13655E-03,
                   CRITERE='RELATIF',
                   PRECISION=0.001,
                   REFERENCE='NON_REGRESSION',),
                _F(RESULTAT=U2,
                   INST=1.5,
                   NOM_CHAM='DERA_ELGA',
                   NOM_CMP='RADI_V',
                   MAILLE='CUBE',
                   POINT=1,
                   VALE=0.7008,
                   CRITERE='ABSOLU',
                   PRECISION=0.001,
                   REFERENCE='NON_REGRESSION',),
                _F(RESULTAT=U2,
                   INST=1.5,
                   NOM_CHAM='DERA_ELGA',
                   NOM_CMP='ERR_RADI',
                   MAILLE='CUBE',
                   POINT=1,
                   VALE=9.497557E-03,
                   CRITERE='ABSOLU',
                   PRECISION=0.001,
                   REFERENCE='NON_REGRESSION',),
                   ),);


TEST_RESU(RESU=(_F(RESULTAT=U3,
                   INST=1.5,
                   NOM_CHAM='DERA_ELGA',
                   NOM_CMP='DCHA_V',
                   MAILLE='CUBE',
                   POINT=1,
                   VALE=6.13655E-03,
                   CRITERE='RELATIF',
                   PRECISION=0.001,
                   REFERENCE='NON_REGRESSION',),
                _F(RESULTAT=U3,
                   INST=1.5,
                   NOM_CHAM='DERA_ELNO',
                   NOM_CMP='DCHA_V',
                   MAILLE='CUBE',
                   NOEUD='NO2',
                   VALE=6.13655E-03,
                   CRITERE='RELATIF',
                   PRECISION=0.001,
                   REFERENCE='NON_REGRESSION',),
                _F(RESULTAT=U3,
                   INST=1.5,
                   NOM_CHAM='DERA_ELGA',
                   NOM_CMP='RADI_V',
                   MAILLE='CUBE',
                   POINT=1,
                   VALE=2.9671e-11,
                   CRITERE='ABSOLU',
                   PRECISION=0.001,
                   REFERENCE='NON_REGRESSION',),
                _F(RESULTAT=U3,
                   INST=1.5,
                   NOM_CHAM='DERA_ELGA',
                   NOM_CMP='ERR_RADI',
                   MAILLE='CUBE',
                   POINT=1,
                   VALE=9.497557E-03,
                   CRITERE='ABSOLU',
                   PRECISION=0.001,
                   REFERENCE='NON_REGRESSION',),
                   ),);


# l'erreur est || dn || / 2 = sin (alpha / 2;)

RADI1=RECU_FONCTION(RESULTAT=U,
                   NOM_CHAM='DERA_ELNO',
                   NOM_CMP='ERR_RADI',
                   MAILLE='CUBE',
                   NOEUD='NO2',
                   NOM_RESU='X',
                  );

RADI2=RECU_FONCTION(RESULTAT=U2,
                   NOM_CHAM='DERA_ELNO',
                   NOM_CMP='ERR_RADI',
                   MAILLE='CUBE',
                   NOEUD='NO2',
                   NOM_RESU='X',
                  );

RADI3=RECU_FONCTION(RESULTAT=U3,
                   NOM_CHAM='DERA_ELNO',
                   NOM_CMP='ERR_RADI',
                   MAILLE='CUBE',
                   NOEUD='NO2',
                   NOM_RESU='X',
                  );


# pour quantifier THETA (ou RADI) par rapport a l'iso-erreur

IMPR_FONCTION(FORMAT='XMGRACE',
              UNITE=38,
              COURBE=(
              _F(FONCTION=RADI1,LEGENDE='radi=sin(alpha/2) calcul DELTAp',),
              _F(FONCTION=RADI2,LEGENDE='radi=sin(alpha/2) calcul fin ISOT',),
              _F(FONCTION=RADI3,LEGENDE='radi=sin(alpha/2) calcul fin ECMI',),
                        ),
              TITRE='Radi et iso-erreur',
              LEGENDE_X='Inst',
              LEGENDE_Y='crit erreur',);

FIN();


