# MODIF  DATE 29/09/2008   AUTEUR ABBAS M.ABBAS 
# TITRE DETECTION DES SINGULARITES DANS UNE PLAQUE FISSUREE (TETRA10)
#            CONFIGURATION MANAGEMENT OF EDF VERSION
# ======================================================================
# COPYRIGHT (C) 1991 - 2008  EDF R&D                  WWW.CODE-ASTER.ORG
# THIS PROGRAM IS FREE SOFTWARE; YOU CAN REDISTRIBUTE IT AND/OR MODIFY  
# IT UNDER THE TERMS OF THE GNU GENERAL PUBLIC LICENSE AS PUBLISHED BY  
# THE FREE SOFTWARE FOUNDATION; EITHER VERSION 2 OF THE LICENSE, OR     
# (AT YOUR OPTION) ANY LATER VERSION.                                                    
#                                                                       
# THIS PROGRAM IS DISTRIBUTED IN THE HOPE THAT IT WILL BE USEFUL, BUT   
# WITHOUT ANY WARRANTY; WITHOUT EVEN THE IMPLIED WARRANTY OF            
# MERCHANTABILITY OR FITNESS FOR A PARTICULAR PURPOSE. SEE THE GNU      
# GENERAL PUBLIC LICENSE FOR MORE DETAILS.                              
#                                                                       
# YOU SHOULD HAVE RECEIVED A COPY OF THE GNU GENERAL PUBLIC LICENSE     
# ALONG WITH THIS PROGRAM; IF NOT, WRITE TO EDF R&D CODE_ASTER,         
#    1 AVENUE DU GENERAL DE GAULLE, 92141 CLAMART CEDEX, FRANCE.        
# ======================================================================
# RESPONSABLE PELLET J.PELLET
# TEST V6.03.130
# CHARGEMENT EN PRESSION
# MAILLAGE : TETRA10
# COMPORTEMENT ELASTIQUE

DEBUT(CODE=_F(NOM='SSNP130F',NIV_PUB_WEB='INTERNET'),);

MA=LIRE_MAILLAGE();

# DEFINITION DU MATERIAU

ACIER=DEFI_MATERIAU(ELAS=_F(E=200000.0,
                            NU=0.3,),);

# DEFINITION DES INSTANTS POUR STAT_NON_LINE                            

L_INST=DEFI_LIST_REEL(DEBUT=0.0,
                      INTERVALLE=_F(JUSQU_A=1.0,NOMBRE=1,),);

F_INST=DEFI_FONCTION(NOM_PARA='INST',
                     VALE=(0.0,0.0,1.0,1.0,),);

MO=AFFE_MODELE(MAILLAGE=MA,
               AFFE=_F(TOUT='OUI',
                       PHENOMENE='MECANIQUE',
                       MODELISATION='3D',),);

MA=MODI_MAILLAGE(reuse =MA,
                 MAILLAGE=MA,
                 ORIE_PEAU_3D=_F(GROUP_MA='HAUT',),);

CHMAT=AFFE_MATERIAU(MAILLAGE=MA,
                    AFFE=_F(TOUT='OUI',MATER=ACIER,),);

CHP=AFFE_CHAR_MECA(MODELE=MO,
                   PRES_REP=_F(GROUP_MA='HAUT',PRES=1.0,),);

CHCL=AFFE_CHAR_MECA(MODELE=MO,
                    DDL_IMPO=(_F(GROUP_NO='PT2'   , DX=0.0,),
                              _F(GROUP_NO='PT3'   , DX=0.0,),
                              _F(GROUP_MA='L1210' , DY=0.0,),
                              _F(GROUP_MA='S2'    , DZ=0.0,),),);

DEPLA=STAT_NON_LINE(MODELE=MO,
                    CHAM_MATER=CHMAT,
                    EXCIT=(_F(CHARGE=CHP,FONC_MULT=F_INST,),
                           _F(CHARGE=CHCL,),),
                    COMP_INCR=_F(RELATION='ELAS',TOUT='OUI',),
                    INCREMENT=_F(LIST_INST=L_INST,),);

DEPLA=CALC_ELEM(reuse =DEPLA,
                RESULTAT=DEPLA,
                INST=1.,
                PREC_ERR=0.8,
                OPTION=('SIEF_ELNO_ELGA','ERRE_ELEM_SIGM','ERRE_ELNO_ELEM','ETOT_ELEM',
                        'SING_ELEM','SING_ELNO_ELEM'),);



# TEST DE SING_ELEM VALEUR MAX ET MIN DES 2 COMPOSANTES

TEST_RESU(RESU=(_F(RESULTAT=DEPLA,
                   INST=1.0,
                   NOM_CHAM='SING_ELEM',
                   NOM_CMP='DEGRE',
                   TYPE_TEST='MAX',
                   VALE=2.0,
                   CRITERE='RELATIF',
                   PRECISION=0.01,
                   REFERENCE='NON_REGRESSION',),
                _F(RESULTAT=DEPLA,
                   INST=1.0,
                   NOM_CHAM='SING_ELEM',
                   NOM_CMP='DEGRE',
                   TYPE_TEST='MIN',
                   VALE=0.56,
                   CRITERE='RELATIF',
                   PRECISION=0.01,
                   REFERENCE='NON_REGRESSION',),
               _F(RESULTAT=DEPLA,
                   INST=1.0,
                   NOM_CHAM='SING_ELEM',
                   NOM_CMP='RAPPORT',
                   TYPE_TEST='MAX',
                   VALE=2.70,
                   CRITERE='RELATIF',
                   PRECISION=0.02,
                   REFERENCE='NON_REGRESSION',),
               _F(RESULTAT=DEPLA,
                   INST=1.0,
                   NOM_CHAM='SING_ELEM',
                   NOM_CMP='RAPPORT',
                   TYPE_TEST='MIN',
                   VALE=0.22,
                   CRITERE='RELATIF',
                   PRECISION=0.02,
                   REFERENCE='NON_REGRESSION',), 
               _F(RESULTAT=DEPLA,
                   INST=1.0,
                   NOM_CHAM='SING_ELEM',
                   NOM_CMP='TAILLE',
                   TYPE_TEST='MAX',
                   VALE=6.25,
                   CRITERE='RELATIF',
                   PRECISION=0.02,
                   REFERENCE='NON_REGRESSION',),
               _F(RESULTAT=DEPLA,
                   INST=1.0,
                   NOM_CHAM='SING_ELEM',
                   NOM_CMP='TAILLE',
                   TYPE_TEST='MIN',
                   VALE=0.51,
                   CRITERE='RELATIF',
                   PRECISION=0.02,
                   REFERENCE='NON_REGRESSION',),),); 

# TEST DE SING_ELNO_ELEM

TEST_RESU(RESU=(_F(RESULTAT=DEPLA,
                   INST=1.0,
                   NOM_CHAM='SING_ELNO_ELEM',
                   NOM_CMP='DEGRE',
                   TYPE_TEST='MAX',
                   VALE=2.0,
                   CRITERE='RELATIF',
                   PRECISION=0.01,
                   REFERENCE='NON_REGRESSION',),
                _F(RESULTAT=DEPLA,
                   INST=1.0,
                   NOM_CHAM='SING_ELNO_ELEM',
                   NOM_CMP='DEGRE',
                   TYPE_TEST='MIN',
                   VALE=0.56,
                   CRITERE='RELATIF',
                   PRECISION=0.01,
                   REFERENCE='NON_REGRESSION',),
               _F(RESULTAT=DEPLA,
                   INST=1.0,
                   NOM_CHAM='SING_ELNO_ELEM',
                   NOM_CMP='RAPPORT',
                   TYPE_TEST='MAX',
                   VALE=2.70,
                   CRITERE='RELATIF',
                   PRECISION=0.02,
                   REFERENCE='NON_REGRESSION',),
               _F(RESULTAT=DEPLA,
                   INST=1.0,
                   NOM_CHAM='SING_ELNO_ELEM',
                   NOM_CMP='RAPPORT',
                   TYPE_TEST='MIN',
                   VALE=0.22,
                   CRITERE='RELATIF',
                   PRECISION=0.02,
                   REFERENCE='NON_REGRESSION',),
               _F(RESULTAT=DEPLA,
                   INST=1.0,
                   NOM_CHAM='SING_ELNO_ELEM',
                   NOM_CMP='TAILLE',
                   TYPE_TEST='MAX',
                   VALE=6.25,
                   CRITERE='RELATIF',
                   PRECISION=0.02,
                   REFERENCE='NON_REGRESSION',),
               _F(RESULTAT=DEPLA,
                   INST=1.0,
                   NOM_CHAM='SING_ELNO_ELEM',
                   NOM_CMP='TAILLE',
                   TYPE_TEST='MIN',
                   VALE=0.51,
                   CRITERE='RELATIF',
                   PRECISION=0.02,
                   REFERENCE='NON_REGRESSION',),),);                   
FIN();
