# TITRE BENCHMARK NAFEMS DE VALIDATION DU CONTACT 4 LOADED PIN
# ======================================================================
# COPYRIGHT (C) 1991 - 2012  EDF R&D                  WWW.CODE-ASTER.ORG
# THIS PROGRAM IS FREE SOFTWARE; YOU CAN REDISTRIBUTE IT AND/OR MODIFY
# IT UNDER THE TERMS OF THE GNU GENERAL PUBLIC LICENSE AS PUBLISHED BY
# THE FREE SOFTWARE FOUNDATION; EITHER VERSION 2 OF THE LICENSE, OR
# (AT YOUR OPTION) ANY LATER VERSION.
#
# THIS PROGRAM IS DISTRIBUTED IN THE HOPE THAT IT WILL BE USEFUL, BUT
# WITHOUT ANY WARRANTY; WITHOUT EVEN THE IMPLIED WARRANTY OF
# MERCHANTABILITY OR FITNESS FOR A PARTICULAR PURPOSE. SEE THE GNU
# GENERAL PUBLIC LICENSE FOR MORE DETAILS.
#
# YOU SHOULD HAVE RECEIVED A COPY OF THE GNU GENERAL PUBLIC LICENSE
# ALONG WITH THIS PROGRAM; IF NOT, WRITE TO EDF R&D CODE_ASTER,
#    1 AVENUE DU GENERAL DE GAULLE, 92141 CLAMART CEDEX, FRANCE.
# ======================================================================

DEBUT(CODE=_F(NOM='SSNP156B',NIV_PUB_WEB='INTERNET',),IGNORE_ALARM='CONTACT3_16',);

MESH1=LIRE_MAILLAGE(FORMAT='MED',);

MESH=CREA_MAILLAGE(MAILLAGE=MESH1,
                   CREA_POI1=_F(GROUP_NO='Pf',
                                NOM_GROUP_MA='Ressort',),);

# AxeFr contient tous les noeuds de l'axe sauf le noeud initialement en contact
MESH=DEFI_GROUP(reuse=MESH,
                MAILLAGE=MESH,
                CREA_GROUP_NO=(_F(GROUP_MA='Axe',),
                               _F(DIFFE=('Axe','Pf',),
                                  NOM='AxeFr',),
                               ),);

MESH=MODI_MAILLAGE(reuse =MESH,
                   MAILLAGE=MESH,
                   ORIE_PEAU_2D=(_F(GROUP_MA='Master',),
                                 _F(GROUP_MA='Slave',),),);

MAT_pi=DEFI_MATERIAU(ELAS=_F(E=210000.0,
                             NU=0.3,),);

MAT_sh=DEFI_MATERIAU(ELAS=_F(E=70000.0,
                             NU=0.3,),);

FONC=DEFI_FONCTION(NOM_PARA='INST',VALE=(0.0,0.0,
                         1.0,1.0,
                         ),PROL_DROITE='EXCLU',PROL_GAUCHE='EXCLU',);

L_INST=DEFI_LIST_REEL(DEBUT=0.0,
                      INTERVALLE=(_F(JUSQU_A=0.1,
                                    NOMBRE=1,),
                                  _F(JUSQU_A=0.2,
                                    NOMBRE=2,),
                                  _F(JUSQU_A=1.0,
                                    NOMBRE=8,),),
                                  );

LINST=DEFI_LIST_INST(DEFI_LIST=_F(METHODE='MANUEL',
                                  LIST_INST=L_INST,),
                     ECHEC=_F(SUBD_PAS=4,
                              SUBD_NIVEAU=3,),);

MO=AFFE_MODELE(MAILLAGE=MESH,
               AFFE=(_F(GROUP_MA=('Sheet','Pin',),
                       PHENOMENE='MECANIQUE',
                       MODELISATION='D_PLAN',),
                     _F(GROUP_MA='Ressort',
                        PHENOMENE='MECANIQUE',
                        MODELISATION='2D_DIS_T',),),);

MA=AFFE_MATERIAU(MAILLAGE=MESH,
                 AFFE=(_F(GROUP_MA='Sheet',
                          MATER=MAT_sh,),
                       _F(GROUP_MA='Pin',
                          MATER=MAT_pi,),),);

# Tous les noeuds sont bloques en DY sauf Pf
CL=AFFE_CHAR_CINE(MODELE=MO,
                  MECA_IMPO=(_F(GROUP_MA='Encast',
                                DX=0.0,
                                DY=0.0,),
                             _F(#GROUP_MA='Axe',
                                GROUP_NO='AxeFr',
                                DY=0.0,
                                ),),);

CH=AFFE_CHAR_MECA(MODELE=MO,
                  FORCE_NODALE=_F(GROUP_NO='F',
                                  FX=10000.0,),);

rigi = 210000*50*1.0E+6
# La condition de symetrie sur  le noeud Pf est penalisee pour ne pas entrer
# en conflit avec le frottement : ici on ne peut utiliser SANS_GROUP_NO_FR car
# le schema d'integration est GAUSS
CELEM=AFFE_CARA_ELEM(MODELE=MO,
                     DISCRET_2D=_F(GROUP_MA='Ressort',
                                   CARA='K_T_D_N',
                                   VALE=(0,rigi,),),)

CON=DEFI_CONTACT(MODELE=MO,
                FORMULATION    = 'CONTINUE',
                FROTTEMENT     = 'COULOMB',
                    ALGO_RESO_CONT = 'NEWTON',
                    ALGO_RESO_GEOM = 'NEWTON',
                    ALGO_RESO_FROT = 'NEWTON',
                    ADAPT_COEF     = 'OUI',
                ZONE=_F(GROUP_MA_MAIT='Master',
                        GROUP_MA_ESCL='Slave',
                        CONTACT_INIT='INTERPENETRE',
                        COULOMB=0.1,
                        #SANS_GROUP_NO_FR=('Pi','Pf',),
                        INTEGRATION='GAUSS',
                        ),);

RESU=STAT_NON_LINE(INFO=1,
                   MODELE=MO,
                   CHAM_MATER=MA,
                   CARA_ELEM=CELEM,
                   EXCIT=(_F(CHARGE=CL,),
                          _F(CHARGE=CH,
                             FONC_MULT=FONC,),),
                   CONTACT=CON,
                   COMPORTEMENT=(_F(RELATION='ELAS',
                                DEFORMATION='GROT_GDEP',),
                              _F(GROUP_MA='Ressort',
                                 RELATION='ELAS',),),
                   INCREMENT=_F(LIST_INST=LINST,),
                   CONVERGENCE=_F(ITER_GLOB_MAXI=50,
                                  ),
                   SOLVEUR=_F(),
                   NEWTON=_F(MATRICE='TANGENTE',
                             REAC_ITER=1,),);

FIN()
