# MODIF  DATE 07/10/2005   AUTEUR CIBHHPD L.SALMONA 
# TITRE ESSAI DE TRACTION-CISAILLEMENT (VISCOELASTICITE CYRANO3)
#            CONFIGURATION MANAGEMENT OF EDF VERSION
# ======================================================================
# COPYRIGHT (C) 1991 - 2001  EDF R&D                  WWW.CODE-ASTER.ORG
# THIS PROGRAM IS FREE SOFTWARE; YOU CAN REDISTRIBUTE IT AND/OR MODIFY
# IT UNDER THE TERMS OF THE GNU GENERAL PUBLIC LICENSE AS PUBLISHED BY
# THE FREE SOFTWARE FOUNDATION; EITHER VERSION 2 OF THE LICENSE, OR   
# (AT YOUR OPTION) ANY LATER VERSION.                                 
#
# THIS PROGRAM IS DISTRIBUTED IN THE HOPE THAT IT WILL BE USEFUL, BUT 
# WITHOUT ANY WARRANTY; WITHOUT EVEN THE IMPLIED WARRANTY OF          
# MERCHANTABILITY OR FITNESS FOR A PARTICULAR PURPOSE. SEE THE GNU    
# GENERAL PUBLIC LICENSE FOR MORE DETAILS.                            
#
# YOU SHOULD HAVE RECEIVED A COPY OF THE GNU GENERAL PUBLIC LICENSE   
# ALONG WITH THIS PROGRAM; IF NOT, WRITE TO EDF R&D CODE_ASTER,       
#    1 AVENUE DU GENERAL DE GAULLE, 92141 CLAMART CEDEX, FRANCE.      
# ======================================================================
#

DEBUT(CODE=_F( NOM = 'SSNP101B',NIV_PUB_WEB='INTERNET'))

#......................................................................
# PLAQUE CARREE EN TRACTION CISAILLEMENT CALCUL 2D DEF. PLANES
# LOI DE LEMAITRE
# LES VALEURS ISSUES DU CALCUL AVEC LA LOI DE LEMAITRE
# SERVENT DE VALEURS DE REFERENCE POUR LA LOI DE TAHERI.
#......................................................................


M=LIRE_MAILLAGE( )

MO=AFFE_MODELE(   MAILLAGE=M, 
                       AFFE=_F(  TOUT = 'OUI',
                              PHENOMENE = 'MECANIQUE',
                              MODELISATION = 'D_PLAN')
                      )

ACIER=DEFI_MATERIAU( 
                   ELAS=_F(  E = 178600.,  NU = 0.3,   ALPHA = 0.),
               LEMAITRE=_F(  N = 11.,   UN_SUR_K = 0.00032840723, 
                          UN_SUR_M = 0.178571429)
           )

ACIER1=DEFI_MATERIAU(  
                     ELAS=_F(  E = 178600.,  NU = 0.3,  ALPHA = 0.),
                 LEMAITRE=_F(  N = 11.,  UN_SUR_K = 0.00032840723,
                            UN_SUR_M = 0.178571429),
                   TAHERI=_F(  R_0 = 1.E-3,
# ON MET R_O DIFFERENT DE 0 POUR NE PAS AVOIR UNE DIVISION PAR 0
# DANS NMTADP.F A LA LIGNE 62.
                            ALPHA = 0.,
                            M = 1.,
                            A = 0.,
                            B = 0.,
                            C1 = 0.,
                            C_INF = 0.,
                            S = 900.)
                       )

CM=AFFE_MATERIAU(   MAILLAGE=M,   
              AFFE=_F( TOUT = 'OUI', MATER = ACIER,  TEMP_REF = 20.) )

CM1=AFFE_MATERIAU(   MAILLAGE=M,   
              AFFE=_F( TOUT = 'OUI', MATER = ACIER1, TEMP_REF = 20.) )

# LES FORCES SONT MULTIPLIEES PAR 2 PAR RAPPORT AU TEST SSNP05A

P30=DEFI_FONCTION(  NOM_PARA='INST',
                         PROL_DROITE='LINEAIRE', PROL_GAUCHE='LINEAIRE',
           VALE=(0.0, 0.0, 30.0, 60.62177826,3630.0, 60.62177826,
                 3660.0,121.2435565,7260.0,121.2435565,)
           )

M30=DEFI_FONCTION(  NOM_PARA='INST',
                         PROL_DROITE='LINEAIRE', PROL_GAUCHE='LINEAIRE',
           VALE=(0.0, 0.0, 30.0,-60.62177826,3630.0,-60.62177826,
           3660.0,-121.2435565,7260.0,-121.2435565,)
           )

M52M30=DEFI_FONCTION(  NOM_PARA='INST',
                          PROL_DROITE='LINEAIRE', PROL_GAUCHE='LINEAIRE',
           VALE=(0.0, 0.0, 30.0,-165.6217783,3630.0,-165.6217783,
           3660.0,-121.2435565,7260.0,-121.2435565,)
           )

M52P30=DEFI_FONCTION(  NOM_PARA='INST',
                          PROL_DROITE='LINEAIRE', PROL_GAUCHE='LINEAIRE',
           VALE=(0.0, 0.0, 30.0,-44.37822174,3630.0,-44.37822174,
           3660.0,121.2435565,7260.0,121.2435565,)
           )

CH1=AFFE_CHAR_MECA(   MODELE=MO,DDL_IMPO=(
                          _F(  NOEUD = 'N4', DX = 0.,DY = 0.),
                                   _F(  NOEUD = 'N3', DX = 0.))
                        )

CH2=AFFE_CHAR_MECA_F(   MODELE=MO,FORCE_NODALE=(
           _F( NOEUD = ('N2',), FX = M52P30,  FY = M30),
                        _F( NOEUD = ('N3',), FX = P30,     FY = P30),
                        _F( NOEUD = ('N1',), FX = M52M30,  FY = M30),
                        _F( NOEUD = ('N4',), FX = M30,     FY = P30))
                          )

L_INST=DEFI_LIST_REEL(  DEBUT=0.0,INTERVALLE=(
             _F( JUSQU_A = 30.0,       NOMBRE = 20),
             _F( JUSQU_A = 3630.0,     NOMBRE = 15),
             _F( JUSQU_A = 3660.0,     NOMBRE = 3),
             _F( JUSQU_A = 3720.0,     NOMBRE = 1))
           )

L_INST2=DEFI_LIST_REEL(  DEBUT=0.0,INTERVALLE=(
             _F( JUSQU_A = 30.0,       NOMBRE = 220),
             _F( JUSQU_A = 3630.0,     NOMBRE = 165),
             _F( JUSQU_A = 3660.0,     NOMBRE = 33),
             _F( JUSQU_A = 3720.0,     NOMBRE = 11))
           )

U=STAT_NON_LINE( 
                            MODELE=MO,
                        CHAM_MATER=CM,EXCIT=(
                             _F( 
                CHARGE = CH1), _F( 
                CHARGE = CH2)),
                         COMP_INCR=_F( 
                RELATION = 'LEMAITRE',
                ITER_INTE_MAXI = 1000),
                         PARM_THETA = 0.5,
                         INCREMENT=_F( 
                LIST_INST = L_INST),
                            NEWTON=_F( 
                MATRICE = 'TANGENTE',
                REAC_ITER = 1),
                       CONVERGENCE=_F( 
                RESI_GLOB_MAXI = 1.E-6,
                ITER_GLOB_MAXI = 25)
              )

U=CALC_ELEM( reuse=U,        
                       RESULTAT=U,
                         OPTION='EPSP_ELNO'  )

TEST_RESU(RESU=(

  _F( RESULTAT = U,NOM_CHAM = 'EPSP_ELNO',MAILLE = 'M1',NOEUD = 'N2',
NUME_ORDRE = 20,NOM_CMP = 'EPXX',VALE = 1.762E-04,PRECISION = 0.005,
REFERENCE = 'NON_REGRESSION'),
  _F( RESULTAT = U,NOM_CHAM = 'EPSP_ELNO',MAILLE = 'M1',NOEUD = 'N2',
NUME_ORDRE = 20,NOM_CMP = 'EPXY',VALE = 1.816E-04,PRECISION = 0.005,
REFERENCE = 'NON_REGRESSION'),
  _F( RESULTAT = U,NOM_CHAM = 'EPSP_ELNO',MAILLE = 'M1',NOEUD = 'N2',
NUME_ORDRE = 35,NOM_CMP = 'EPXX',VALE = 1.903E-03,PRECISION = 0.005,
REFERENCE = 'NON_REGRESSION'),
  _F( RESULTAT = U,NOM_CHAM = 'EPSP_ELNO',MAILLE = 'M1',NOEUD = 'N2',
NUME_ORDRE = 35,NOM_CMP = 'EPXY',VALE = 2.079E-03,PRECISION = 0.005,
REFERENCE = 'NON_REGRESSION'),
  _F( RESULTAT = U,NOM_CHAM = 'EPSP_ELNO',MAILLE = 'M1',NOEUD = 'N2',
NUME_ORDRE = 38,NOM_CMP = 'EPXX',VALE = 1.913E-03,PRECISION = 0.005,
REFERENCE = 'NON_REGRESSION'),
  _F( RESULTAT = U,NOM_CHAM = 'EPSP_ELNO',MAILLE = 'M1',NOEUD = 'N2',
NUME_ORDRE = 38,NOM_CMP = 'EPXY',VALE = 2.190E-03,PRECISION = 0.005,
REFERENCE = 'NON_REGRESSION'),
  _F( RESULTAT = U,NOM_CHAM = 'EPSP_ELNO',MAILLE = 'M1',NOEUD = 'N2',
NUME_ORDRE = 39,NOM_CMP = 'EPXX',VALE = 1.874E-03,PRECISION = 0.005,
REFERENCE = 'NON_REGRESSION'),
  _F( RESULTAT = U,NOM_CHAM = 'EPSP_ELNO',MAILLE = 'M1',NOEUD = 'N2',
NUME_ORDRE = 39,NOM_CMP = 'EPXY',VALE = 3.181E-03,PRECISION = 0.005,
REFERENCE = 'NON_REGRESSION'))

           )

U1=STAT_NON_LINE( 
                            MODELE=MO,
                        CHAM_MATER=CM1,EXCIT=(
                             _F( 
                CHARGE = CH1), _F( 
                CHARGE = CH2)),
                         COMP_INCR=_F( 
                RELATION = 'VISC_TAHERI',
                ITER_INTE_MAXI = 1000,
                ITER_INTE_PAS = 10,
                RESI_INTE_RELA = 1.E-8),
                         INCREMENT=_F( 
                LIST_INST = L_INST2),
                            NEWTON=_F( 
                MATRICE = 'TANGENTE',
                REAC_ITER = 1),
                       CONVERGENCE=_F( 
                ITER_GLOB_MAXI = 20,
                RESI_GLOB_RELA = 1.E-6),
                     RECH_LINEAIRE=_F( 
                ITER_LINE_MAXI = 4,
                RESI_LINE_RELA = 1.E-3)
              )

U1=CALC_ELEM( reuse=U1,         
                        RESULTAT=U1,
                          OPTION='EPSP_ELNO'  )

TEST_RESU(RESU=( 
     _F(  RESULTAT = U1, NOM_CHAM = 'EPSP_ELNO', NUME_ORDRE = 220,
       MAILLE = 'M1', NOEUD = 'N2', NOM_CMP = 'EPXX', 
       PRECISION = 0.01,  REFERENCE = 'AUTRE_ASTER',
       VALE = 1.762E-04),
     _F(  RESULTAT = U1, NOM_CHAM = 'EPSP_ELNO', NUME_ORDRE = 220,
       MAILLE = 'M1', NOEUD = 'N2', NOM_CMP = 'EPXY', 
       PRECISION = 0.01,  REFERENCE = 'AUTRE_ASTER',
       VALE = 1.816E-04),
     _F(  RESULTAT = U1, NOM_CHAM = 'EPSP_ELNO', NUME_ORDRE = 385,
       MAILLE = 'M1', NOEUD = 'N2', NOM_CMP = 'EPXX', 
       PRECISION = 0.01,  REFERENCE = 'AUTRE_ASTER',
       VALE = 1.903E-03),
     _F(  RESULTAT = U1, NOM_CHAM = 'EPSP_ELNO', NUME_ORDRE = 385,
       MAILLE = 'M1', NOEUD = 'N2', NOM_CMP = 'EPXY', 
       PRECISION = 0.01,  REFERENCE = 'AUTRE_ASTER',
       VALE = 2.079E-03),
     _F(  RESULTAT = U1, NOM_CHAM = 'EPSP_ELNO', NUME_ORDRE = 418,
       MAILLE = 'M1', NOEUD = 'N2', NOM_CMP = 'EPXX', 
       PRECISION = 0.01,  REFERENCE = 'AUTRE_ASTER',
       VALE = 1.913E-03),
     _F(  RESULTAT = U1, NOM_CHAM = 'EPSP_ELNO', NUME_ORDRE = 418,
       MAILLE = 'M1', NOEUD = 'N2', NOM_CMP = 'EPXY', 
       PRECISION = 0.01,  REFERENCE = 'AUTRE_ASTER',
       VALE = 2.190E-03),
     _F(  RESULTAT = U1, NOM_CHAM = 'EPSP_ELNO', NUME_ORDRE = 429,
       MAILLE = 'M1', NOEUD = 'N2', NOM_CMP = 'EPXX', 
       PRECISION = 0.01,  REFERENCE = 'AUTRE_ASTER',
       VALE = 1.874E-03),
     _F(  RESULTAT = U1, NOM_CHAM = 'EPSP_ELNO', NUME_ORDRE = 429,
       MAILLE = 'M1', NOEUD = 'N2', NOM_CMP = 'EPXY', 
       PRECISION = 0.01,  REFERENCE = 'AUTRE_ASTER',
       VALE = 3.181E-03))

           )

FIN( )
#
