# TITRE SHALLOW IRONING
#            CONFIGURATION MANAGEMENT OF EDF VERSION
# ======================================================================
# COPYRIGHT (C) 1991 - 2012  EDF R&D                  WWW.CODE-ASTER.ORG
# THIS PROGRAM IS FREE SOFTWARE; YOU CAN REDISTRIBUTE IT AND/OR MODIFY
# IT UNDER THE TERMS OF THE GNU GENERAL PUBLIC LICENSE AS PUBLISHED BY
# THE FREE SOFTWARE FOUNDATION; EITHER VERSION 2 OF THE LICENSE, OR
# (AT YOUR OPTION) ANY LATER VERSION.
#
# THIS PROGRAM IS DISTRIBUTED IN THE HOPE THAT IT WILL BE USEFUL, BUT
# WITHOUT ANY WARRANTY; WITHOUT EVEN THE IMPLIED WARRANTY OF
# MERCHANTABILITY OR FITNESS FOR A PARTICULAR PURPOSE. SEE THE GNU
# GENERAL PUBLIC LICENSE FOR MORE DETAILS.
#
# YOU SHOULD HAVE RECEIVED A COPY OF THE GNU GENERAL PUBLIC LICENSE
# ALONG WITH THIS PROGRAM; IF NOT, WRITE TO EDF R&D CODE_ASTER,
#    1 AVENUE DU GENERAL DE GAULLE, 92141 CLAMART CEDEX, FRANCE.
# ======================================================================
DEBUT(CODE=_F(NOM='SSNP153A',NIV_PUB_WEB='INTERNET'),DEBUG=_F(SDVERI='OUI'))

MESH=LIRE_MAILLAGE(UNITE=20,
                   FORMAT='MED',);

MESH=MODI_MAILLAGE(reuse =MESH,
                   MAILLAGE=MESH,
                   ORIE_PEAU_2D=(_F(GROUP_MA='Master',),
                                 _F(GROUP_MA='Slave',),),);

MESH=DEFI_GROUP(reuse =MESH,
                MAILLAGE=MESH,
                CREA_GROUP_NO=_F(TOUT_GROUP_MA='OUI',),);

Hard=DEFI_MATERIAU(ELAS=_F(E=68.96E8,
                           NU=0.32,),
                   ECRO_LINE=_F(D_SIGM_EPSI=10.0,
                                SY=10.E100,),
                           );

Soft=DEFI_MATERIAU(ELAS=_F(E=6.896E8,
                           NU=0.32,),
                   ECRO_LINE=_F(D_SIGM_EPSI=10.0,
                                SY=10.E100,),
                           );
T1 = 1;
T2 = 2;

FONCx=DEFI_FONCTION(NOM_PARA='INST',
                    VALE=(0.0,0.0,
                          T1,0.0,
                          T2,10.0,
                          ),
                    PROL_DROITE='LINEAIRE',PROL_GAUCHE='LINEAIRE',);

FONCy=DEFI_FONCTION(NOM_PARA='INST',
                    VALE=(0.0,0.0,
                          T1,1.0,
                          T2,1.0,
                          ),
                    PROL_DROITE='LINEAIRE',PROL_GAUCHE='LINEAIRE',);

Npas1 = 10;
Npas2 = 500;
L_INST=DEFI_LIST_REEL(DEBUT=0.0,
                      INTERVALLE=(_F(JUSQU_A=T1,
                                     NOMBRE=Npas1,),
                                  _F(JUSQU_A=T2,
                                     NOMBRE=Npas2,),
                                   ));

L_ARCH=DEFI_LIST_REEL(DEBUT=0.0,
                      INTERVALLE=(_F(JUSQU_A=T1,
                                     NOMBRE=Npas1,),
                                  _F(JUSQU_A=T2,
                                     NOMBRE=Npas2,),
                                   ));

LINST=DEFI_LIST_INST(DEFI_LIST=_F(METHODE='MANUEL',
                                  LIST_INST=L_INST,),
                     ECHEC=_F(SUBD_PAS=4,
                              SUBD_NIVEAU=5,),);

MO=AFFE_MODELE(MAILLAGE=MESH,
               AFFE=_F(TOUT='OUI',
                       PHENOMENE='MECANIQUE',
                       MODELISATION='D_PLAN',),);

MAT=AFFE_MATERIAU(MAILLAGE=MESH,
                  AFFE=(_F(GROUP_MA='Hard',
                           MATER=Hard,),
                        _F(GROUP_MA='Soft',
                           MATER=Soft,),),);

CLx=AFFE_CHAR_CINE(MODELE=MO,
                   MECA_IMPO=(_F(GROUP_MA='Bloq',
                                 DX=0.0,),
                              _F(GROUP_MA='Depl',
                                 DX=1.0,),),);

CLy=AFFE_CHAR_CINE(MODELE=MO,
                   MECA_IMPO=(_F(GROUP_MA='Bloq',
                                 DY=0.0,),
                              _F(GROUP_MA='Depl',
                                 DY=-1.0,),),);

CONT=DEFI_CONTACT(MODELE=MO,
                  FORMULATION='CONTINUE',
                  FROTTEMENT='COULOMB',
                  LISSAGE='OUI',
                  ALGO_RESO_GEOM = 'NEWTON',
                  ALGO_RESO_CONT = 'NEWTON',
                  ZONE=_F(GROUP_MA_MAIT='Master',
                          GROUP_MA_ESCL='Slave',
                          COULOMB=0.3,
                          ),);


RESU=STAT_NON_LINE(MODELE=MO,
                   CHAM_MATER=MAT,
                   EXCIT=(_F(CHARGE=CLx,
                             FONC_MULT=FONCx,),
                          _F(CHARGE=CLy,
                             FONC_MULT=FONCy,),),
                   CONTACT=CONT,
                   COMP_INCR=_F(RELATION='VMIS_ISOT_LINE',
                                DEFORMATION='SIMO_MIEHE',),
                   INCREMENT=_F(LIST_INST=LINST,
                                INST_FIN=1.01,),
                   NEWTON=_F(PREDICTION='ELASTIQUE',
                             MATRICE='TANGENTE',
                             REAC_ITER=1,),
                   CONVERGENCE=_F(RESI_GLOB_MAXI=1.E1,
                                  ITER_GLOB_MAXI=20,),
                   SOLVEUR=_F(METHODE='MUMPS',),
                   ARCHIVAGE=_F(LIST_INST=L_ARCH,),);


RESU=CALC_CHAMP(reuse=RESU,RESULTAT=RESU,CRITERES=('SIEQ_ELGA'),CONTRAINTE=('SIGM_ELNO'))


RESU=CALC_CHAMP(reuse =RESU,
             RESULTAT=RESU,
             CONTRAINTE='SIGM_NOEU',FORCE=('FORC_NODA','REAC_NODA'));

IMPR_RESU(FORMAT='MED',
          UNITE=81,
          RESU=_F(RESULTAT=RESU,),);

IMPR_RESU(FORMAT='MED',
          UNITE=80,
          RESU=_F(RESULTAT=RESU,
                  NOM_CHAM='DEPL',
                  NOM_CMP=('DX','DY',),),);

TAB_N=POST_RELEVE_T(ACTION=_F(INTITULE='FORCE',
                            GROUP_NO='Depl',
                            RESULTAT=RESU,
                            NOM_CHAM='REAC_NODA',

                            RESULTANTE='DY',
                            OPERATION='EXTRACTION',),);

TAB_T=POST_RELEVE_T(ACTION=_F(INTITULE='FORCE',
                            GROUP_NO='Depl',
                            RESULTAT=RESU,
                            NOM_CHAM='REAC_NODA',

                            RESULTANTE='DX',
                            OPERATION='EXTRACTION',),);

IMPR_TABLE(TABLE=TAB_N,
           FORMAT='XMGRACE',
           PILOTE='PNG',
           UNITE=29,
           NOM_PARA=('INST','DY',),
           TITRE='RESULTANTE N',);


IMPR_TABLE(TABLE=TAB_T,
           FORMAT='XMGRACE',
           PILOTE='PNG',
           UNITE=30,
           NOM_PARA=('INST','DX',),
           TITRE='RESULTANTE T',);

IMPR_TABLE(TABLE=TAB_N)
IMPR_TABLE(TABLE=TAB_T)

# Tests de la force normale
TEST_TABLE(
           VALE_CALC=-9.4538788774073005E7,
           TOLE_MACHINE=1.9999999999999999E-07,
           NOM_PARA='DY',
           TABLE=TAB_N,
           FILTRE=_F(NOM_PARA='INST',
                     VALE=0.5,),
           )

TEST_TABLE(
           VALE_CALC=-1.3455680794825E8,
           TOLE_MACHINE=1.9999999999999999E-06,
           NOM_PARA='DY',
           TABLE=TAB_N,
           FILTRE=_F(NOM_PARA='INST',
                     VALE=0.59999999999999998,),
           )

TEST_TABLE(
           VALE_CALC=-1.7840289731858999E8,
           TOLE_MACHINE=5.9999999999999997E-07,
           NOM_PARA='DY',
           TABLE=TAB_N,
           FILTRE=_F(NOM_PARA='INST',
                     VALE=0.69999999999999996,),
           )

TEST_TABLE(
           VALE_CALC=-2.2557093066911E8,
           TOLE_MACHINE=1.9999999999999999E-06,
           NOM_PARA='DY',
           TABLE=TAB_N,
           FILTRE=_F(NOM_PARA='INST',
                     VALE=0.80000000000000004,),
           )

TEST_TABLE(
           VALE_CALC=-2.7555462366576999E8,
           TOLE_MACHINE=1.9999999999999999E-06,
           NOM_PARA='DY',
           TABLE=TAB_N,
           FILTRE=_F(NOM_PARA='INST',
                     VALE=0.90000000000000002,),
           )

TEST_TABLE(
           VALE_CALC=-3.2989819957773E8,
           TOLE_MACHINE=2.9999999999999999E-07,
           NOM_PARA='DY',
           TABLE=TAB_N,
           FILTRE=_F(NOM_PARA='INST',
                     VALE=1.0,),
           )

TEST_TABLE(
           VALE_CALC=-3.3240504079293001E8,
           TOLE_MACHINE=2.9999999999999999E-07,
           NOM_PARA='DY',
           TABLE=TAB_N,
           FILTRE=_F(NOM_PARA='INST',
                     VALE=1.002,),
           )

TEST_TABLE(
           VALE_CALC=-3.3489814486807001E8,
           TOLE_MACHINE=4.9999999999999998E-07,
           NOM_PARA='DY',
           TABLE=TAB_N,
           FILTRE=_F(NOM_PARA='INST',
                     VALE=1.004,),
           )

TEST_TABLE(
           VALE_CALC=-3.373778969659E8,
           TOLE_MACHINE=1.9999999999999999E-06,
           NOM_PARA='DY',
           TABLE=TAB_N,
           FILTRE=_F(NOM_PARA='INST',
                     VALE=1.006,),
           )

TEST_TABLE(
           VALE_CALC=-3.3984381244300002E8,
           TOLE_MACHINE=1.9999999999999999E-06,
           NOM_PARA='DY',
           TABLE=TAB_N,
           FILTRE=_F(NOM_PARA='INST',
                     VALE=1.008,),
           )

TEST_TABLE(
           VALE_CALC=-3.4229629032247001E8,
           TOLE_MACHINE=1.9999999999999999E-06,
           NOM_PARA='DY',
           TABLE=TAB_N,
           FILTRE=_F(NOM_PARA='INST',
                     VALE=1.01,),
           )

# Tests de la force tangentielle
TEST_TABLE(
           VALE_CALC=1.8359148468033999E7,
           TOLE_MACHINE=2.9999999999999999E-07,
           NOM_PARA='DX',
           TABLE=TAB_T,
           FILTRE=_F(NOM_PARA='INST',
                     VALE=0.5,),
           )

TEST_TABLE(
           VALE_CALC=2.6679902448734999E7,
           TOLE_MACHINE=1.9999999999999999E-06,
           NOM_PARA='DX',
           TABLE=TAB_T,
           FILTRE=_F(NOM_PARA='INST',
                     VALE=0.59999999999999998,),
           )

TEST_TABLE(
           VALE_CALC=3.5989425997285999E7,
           TOLE_MACHINE=4.9999999999999998E-07,
           NOM_PARA='DX',
           TABLE=TAB_T,
           FILTRE=_F(NOM_PARA='INST',
                     VALE=0.69999999999999996,),
           )

TEST_TABLE(
           VALE_CALC=4.6081849902230002E7,
           TOLE_MACHINE=4.9999999999999998E-07,
           NOM_PARA='DX',
           TABLE=TAB_T,
           FILTRE=_F(NOM_PARA='INST',
                     VALE=0.80000000000000004,),
           )

TEST_TABLE(
           VALE_CALC=5.6885421296386003E7,
           TOLE_MACHINE=5.5000000000000003E-07,
           NOM_PARA='DX',
           TABLE=TAB_T,
           FILTRE=_F(NOM_PARA='INST',
                     VALE=0.90000000000000002,),
           )

TEST_TABLE(
           VALE_CALC=6.9020369717112005E7,
           TOLE_MACHINE=5.9999999999999997E-07,
           NOM_PARA='DX',
           TABLE=TAB_T,
           FILTRE=_F(NOM_PARA='INST',
                     VALE=1.0,),
           )

TEST_TABLE(
           VALE_CALC=7.2693239845571995E7,
           TOLE_MACHINE=3.9999999999999998E-07,
           NOM_PARA='DX',
           TABLE=TAB_T,
           FILTRE=_F(NOM_PARA='INST',
                     VALE=1.002,),
           )

TEST_TABLE(
           VALE_CALC=7.6371655551772997E7,
           TOLE_MACHINE=9.9999999999999995E-08,
           NOM_PARA='DX',
           TABLE=TAB_T,
           FILTRE=_F(NOM_PARA='INST',
                     VALE=1.004,),
           )

TEST_TABLE(
           VALE_CALC=8.0055855257551998E7,
           TOLE_MACHINE=9.9999999999999995E-08,
           NOM_PARA='DX',
           TABLE=TAB_T,
           FILTRE=_F(NOM_PARA='INST',
                     VALE=1.006,),
           )

TEST_TABLE(
           VALE_CALC=8.3746073444324002E7,
           TOLE_MACHINE=2.9999999999999999E-07,
           NOM_PARA='DX',
           TABLE=TAB_T,
           FILTRE=_F(NOM_PARA='INST',
                     VALE=1.008,),
           )

TEST_TABLE(
           VALE_CALC=8.7442527374573007E7,
           TOLE_MACHINE=2.9999999999999999E-07,
           NOM_PARA='DX',
           TABLE=TAB_T,
           FILTRE=_F(NOM_PARA='INST',
                     VALE=1.01,),
           )

FIN();
