# TITRE ESSAI DE TRACTION-CISAILLEMENT (MISES ECROUISSAGE CINEMATIQUE)
# ======================================================================
# COPYRIGHT (C) 1991 - 2012  EDF R&D                  WWW.CODE-ASTER.ORG
# THIS PROGRAM IS FREE SOFTWARE; YOU CAN REDISTRIBUTE IT AND/OR MODIFY
# IT UNDER THE TERMS OF THE GNU GENERAL PUBLIC LICENSE AS PUBLISHED BY
# THE FREE SOFTWARE FOUNDATION; EITHER VERSION 2 OF THE LICENSE, OR
# (AT YOUR OPTION) ANY LATER VERSION.
#
# THIS PROGRAM IS DISTRIBUTED IN THE HOPE THAT IT WILL BE USEFUL, BUT
# WITHOUT ANY WARRANTY; WITHOUT EVEN THE IMPLIED WARRANTY OF
# MERCHANTABILITY OR FITNESS FOR A PARTICULAR PURPOSE. SEE THE GNU
# GENERAL PUBLIC LICENSE FOR MORE DETAILS.
#
# YOU SHOULD HAVE RECEIVED A COPY OF THE GNU GENERAL PUBLIC LICENSE
# ALONG WITH THIS PROGRAM; IF NOT, WRITE TO EDF R&D CODE_ASTER,
#    1 AVENUE DU GENERAL DE GAULLE, 92141 CLAMART CEDEX, FRANCE.
# ======================================================================
#
# PLAQUE CARREE EN TRACTION CISAILLEMENT CALCUL 3D
# ELASTOPLASTICITE  CINEMATIQUE VON MISES
# TEST NAFEMS SSNP14F POINTS A,B,C - ELEMENTS TETRA4
#......................................................................

DEBUT(CODE=_F(NOM='SSNP14F',NIV_PUB_WEB='INTERNET'),DEBUG=_F(SDVERI='OUI'))

MAYA=LIRE_MAILLAGE( )

MODEL=AFFE_MODELE(    MAILLAGE=MAYA,
                              VERIF='MAILLE',
                               AFFE=_F(  TOUT = 'OUI',
                                      PHENOMENE = 'MECANIQUE',
                                      MODELISATION = '3D')
                        )

ACIER=DEFI_MATERIAU(         ELAS=_F(  E = 195000.,
                                         NU = 0.3),
                             ECRO_LINE=_F(  D_SIGM_EPSI = 1930.,
                                         SY = 181.)
                          )

MATER=AFFE_MATERIAU(    MAILLAGE=MAYA,
                                 AFFE=_F( TOUT = 'OUI',
                                       MATER = ACIER)
                          )

FOTRAC=DEFI_FONCTION(       NOM_PARA='INST',
                             PROL_DROITE='EXCLU',
                            PROL_GAUCHE='EXCLU',
                                   VALE=( 0.0,   0.0,
                                          1.0, 151.2,
                                          2.0, 257.2,
                                          3.0, 259.3,
                                          4.0,   0.0, )
                         )

FOCIS=DEFI_FONCTION(       NOM_PARA='INST',
                             PROL_DROITE='EXCLU',
                            PROL_GAUCHE='EXCLU',
                                   VALE=( 0.0,  0.0,
                                          1.0, 93.1,
                                          2.0, 33.1,
                                          3.0,  0.0,
                                          4.0,  0.0, )
                          )

TRACTION=AFFE_CHAR_MECA(        MODELE=MODEL,
                              FORCE_FACE=_F(  GROUP_MA = 'GAUCHE',
                                            FX = -1.)
                          )

CISAIL=AFFE_CHAR_MECA(        MODELE=MODEL,FORCE_FACE=(

                                  _F(  GROUP_MA = 'GAUCHE',  FY = -1.),
                                  _F(  GROUP_MA = 'DROITE',  FY = 1.),
                                  _F(  GROUP_MA = 'HAUT',    FX = 1.),
                                  _F(  GROUP_MA = 'BAS',     FX = -1.))
                           )

CONDLIM=AFFE_CHAR_MECA(      MODELE=MODEL,DDL_IMPO=(
                              _F(  NOEUD = 'NO4',  DX = 0.,
                                                      DY = 0.),
                                       _F(  NOEUD = 'NO8',  DX = 0.,
                                                      DY = 0.,
                                                      DZ = 0.),
                                       _F(  NOEUD = 'NO2',  DX = 0.),
                                       _F(  NOEUD = 'NO6',  DX = 0.))
                           )

CAT=DEFI_LIST_REEL(         DEBUT=0.0,INTERVALLE=(
                           _F(  JUSQU_A = 1.0,   NOMBRE = 1),
                                      _F(  JUSQU_A = 2.0,   NOMBRE = 20),
                                      _F(  JUSQU_A = 3.0,   NOMBRE = 5),
                                      _F(  JUSQU_A = 4.0,   NOMBRE = 1))
                           )

CALCNL=STAT_NON_LINE(
                            MODELE=MODEL,
                        CHAM_MATER=MATER,
                         COMP_INCR=_F(
                RELATION = 'VMIS_CINE_LINE'),
                         INCREMENT=_F(
                LIST_INST = CAT,
                NUME_INST_FIN = 26),
                            NEWTON=_F(
                MATRICE = 'TANGENTE',
                REAC_ITER = 1),
                       CONVERGENCE=_F(
                RESI_GLOB_MAXI = 1.E-3),EXCIT=(
                             _F(
                CHARGE = CONDLIM), _F(
                CHARGE = TRACTION,
                FONC_MULT = FOTRAC), _F(
                CHARGE = CISAIL,
                FONC_MULT = FOCIS)),
                              INFO=1,
                     RECH_LINEAIRE=_F(
                ITER_LINE_MAXI = 3)
              )

CALCNL=STAT_NON_LINE( reuse=CALCNL,
                            MODELE=MODEL,
                        CHAM_MATER=MATER,
                         COMP_INCR=_F(
                RELATION = 'VMIS_CINE_LINE'),
                         ETAT_INIT=_F(
                EVOL_NOLI = CALCNL,
                NUME_ORDRE = 26),
                         INCREMENT=_F(
                LIST_INST = CAT,
                NUME_INST_FIN = 27),
                            NEWTON=_F(
                MATRICE = 'ELASTIQUE',
                REAC_ITER = 1),
                       CONVERGENCE=_F(
                RESI_GLOB_MAXI = 1.E-3),EXCIT=(
                             _F(
                CHARGE = CONDLIM), _F(
                CHARGE = TRACTION,
                FONC_MULT = FOTRAC), _F(
                CHARGE = CISAIL,
                FONC_MULT = FOCIS)),
                              INFO=1,
                     RECH_LINEAIRE=_F(
                ITER_LINE_MAXI = 3)
              )

CALCNL=CALC_CHAMP(reuse=CALCNL,RESULTAT=CALCNL,CONTRAINTE=('SIGM_ELNO'),VARI_INTERNE=('VARI_ELNO'),DEFORMATION=('EPSI_ELNO'))


VAR_INT=CREA_CHAMP(  OPERATION='EXTR', TYPE_CHAM='ELNO_VARI_R',
NOM_CHAM='VARI_ELNO', RESULTAT=CALCNL,
                        INST=1.
                           )

TEST_RESU(RESU=(_F(INST=1.0,
                   RESULTAT=CALCNL,
                   NOM_CHAM='SIGM_ELNO',
                   NOEUD='NO2',
                   NOM_CMP='SIXX',
                   VALE_CALC=151.19999999999999,
                   TOLE_MACHINE=1.E-3,
                   MAILLE='TETR2',),
                _F(INST=1.0,
                   RESULTAT=CALCNL,
                   NOM_CHAM='SIGM_ELNO',
                   NOEUD='NO2',
                   NOM_CMP='SIXY',
                   VALE_CALC=93.099999999999994,
                   TOLE_MACHINE=1.E-3,
                   MAILLE='TETR2',),
                _F(INST=1.0,
                   REFERENCE='NON_DEFINI',
                   RESULTAT=CALCNL,
                   NOM_CHAM='EPSI_ELNO',
                   NOEUD='NO2',
                   NOM_CMP='EPXX',
                   VALE_CALC=0.014829714,
                   VALE_REFE=0.014818,
                   CRITERE='RELATIF',
                   PRECISION=0.02,
                   MAILLE='TETR2',),
                _F(INST=1.0,
                   REFERENCE='NON_DEFINI',
                   RESULTAT=CALCNL,
                   NOM_CHAM='EPSI_ELNO',
                   NOEUD='NO2',
                   NOM_CMP='EPXY',
                   VALE_CALC=0.013601401,
                   VALE_REFE=0.013586000000000001,
                   CRITERE='RELATIF',
                   PRECISION=0.02,
                   MAILLE='TETR2',),
                _F(INST=1.0,
                   RESULTAT=CALCNL,
                   NOM_CHAM='VARI_ELNO',
                   NOEUD='NO2',
                   NOM_CMP='V1',
                   VALE_CALC=18.263999999999999,
                   TOLE_MACHINE=1.E-3,
                   MAILLE='TETR2',),
                _F(INST=1.0,
                   RESULTAT=CALCNL,
                   NOM_CHAM='VARI_ELNO',
                   NOEUD='NO2',
                   NOM_CMP='V4',
                   VALE_CALC=16.8688,
                   TOLE_MACHINE=1.E-3,
                   MAILLE='TETR2',),
                _F(INST=1.0,
                   RESULTAT=CALCNL,
                   NOM_CHAM='VARI_ELNO',
                   NOEUD='NO2',
                   NOM_CMP='V2',
                   VALE_CALC=-9.1319999999999997,
                   TOLE_MACHINE=1.E-3,
                   MAILLE='TETR2',),
                _F(INST=2.0,
                   REFERENCE='NON_DEFINI',
                   RESULTAT=CALCNL,
                   NOM_CHAM='EPSI_ELNO',
                   NOEUD='NO2',
                   NOM_CMP='EPXX',
                   VALE_CALC=0.040670995,
                   VALE_REFE=0.040444000000000001,
                   CRITERE='RELATIF',
                   PRECISION=0.02,
                   MAILLE='TETR2',),
                _F(INST=2.0,
                   REFERENCE='NON_DEFINI',
                   RESULTAT=CALCNL,
                   NOM_CHAM='EPSI_ELNO',
                   NOEUD='NO2',
                   NOM_CMP='EPXY',
                   VALE_CALC=0.019667236,
                   VALE_REFE=0.019917000000000001,
                   CRITERE='RELATIF',
                   PRECISION=0.02,
                   MAILLE='TETR2',),
                _F(INST=3.0,
                   REFERENCE='NON_DEFINI',
                   RESULTAT=CALCNL,
                   NOM_CHAM='EPSI_ELNO',
                   NOEUD='NO2',
                   NOM_CMP='EPXX',
                   VALE_CALC=0.044102845,
                   VALE_REFE=0.044177000000000001,
                   CRITERE='RELATIF',
                   PRECISION=0.02,
                   MAILLE='TETR2',),
                _F(INST=3.0,
                   REFERENCE='NON_DEFINI',
                   RESULTAT=CALCNL,
                   NOM_CHAM='EPSI_ELNO',
                   NOEUD='NO2',
                   NOM_CMP='EPXY',
                   VALE_CALC=0.018912866,
                   VALE_REFE=0.019205,
                   CRITERE='RELATIF',
                   PRECISION=0.02,
                   MAILLE='TETR2',),
                _F(INST=4.0,
                   REFERENCE='NON_DEFINI',
                   RESULTAT=CALCNL,
                   NOM_CHAM='EPSI_ELNO',
                   NOEUD='NO2',
                   NOM_CMP='EPXX',
                   VALE_CALC=0.042773102,
                   VALE_REFE=0.042847999999999997,
                   CRITERE='RELATIF',
                   PRECISION=0.02,
                   MAILLE='TETR2',),
                _F(INST=4.0,
                   REFERENCE='NON_DEFINI',
                   RESULTAT=CALCNL,
                   NOM_CHAM='EPSI_ELNO',
                   NOEUD='NO2',
                   NOM_CMP='EPXY',
                   VALE_CALC=0.018912866,
                   VALE_REFE=0.019203000000000001,
                   CRITERE='RELATIF',
                   PRECISION=0.02,
                   MAILLE='TETR2',),
                ),
          )

FIN()
#
