# TITRE PLAQUE CARREE EN TRACTION
# ======================================================================
# COPYRIGHT (C) 1991 - 2012  EDF R&D                  WWW.CODE-ASTER.ORG
# THIS PROGRAM IS FREE SOFTWARE; YOU CAN REDISTRIBUTE IT AND/OR MODIFY
# IT UNDER THE TERMS OF THE GNU GENERAL PUBLIC LICENSE AS PUBLISHED BY
# THE FREE SOFTWARE FOUNDATION; EITHER VERSION 2 OF THE LICENSE, OR
# (AT YOUR OPTION) ANY LATER VERSION.
#
# THIS PROGRAM IS DISTRIBUTED IN THE HOPE THAT IT WILL BE USEFUL, BUT
# WITHOUT ANY WARRANTY; WITHOUT EVEN THE IMPLIED WARRANTY OF
# MERCHANTABILITY OR FITNESS FOR A PARTICULAR PURPOSE. SEE THE GNU
# GENERAL PUBLIC LICENSE FOR MORE DETAILS.
#
# YOU SHOULD HAVE RECEIVED A COPY OF THE GNU GENERAL PUBLIC LICENSE
# ALONG WITH THIS PROGRAM; IF NOT, WRITE TO EDF R&D CODE_ASTER,
#    1 AVENUE DU GENERAL DE GAULLE, 92141 CLAMART CEDEX, FRANCE.
# ======================================================================
#
# UTILISATION DE LA LOI PLASTIQUE PARFAITE
# ELEMENTS QUAD4
#.....................................................................

DEBUT(   CODE=_F(  NOM = 'SSNP303A',NIV_PUB_WEB='INTERNET'))

MAYA=LIRE_MAILLAGE( )

MODEL=AFFE_MODELE(    MAILLAGE=MAYA,
                                VERIF='MAILLE',
                                 AFFE=_F(  TOUT = 'OUI',
                                        PHENOMENE = 'MECANIQUE',
                                        MODELISATION = 'C_PLAN')
                         )

MAT1=DEFI_MATERIAU(        ELAS=_F(  E = 100000.,
                                     NU = 0.25),
                                ECRO_LINE=_F(  D_SIGM_EPSI = 0.,
                                         SY = 3.)
                       )

MAT2=DEFI_MATERIAU(        ELAS=_F(  E = 60000.,
                                     NU = 0.25),
                                ECRO_LINE=_F(  D_SIGM_EPSI = 0.,
                                         SY = 6.)
                       )

MAT3=DEFI_MATERIAU(        ELAS=_F(  E = 40000.,
                                     NU = 0.25),
                                ECRO_LINE=_F(  D_SIGM_EPSI = 0.,
                                         SY = 8.)
                       )

MATER=AFFE_MATERIAU(   MAILLAGE=MAYA,AFFE=(
                                 _F(  MAILLE = 'MA1',
                                        MATER = MAT1),
                                      _F(  MAILLE = 'MA2',
                                        MATER = MAT2),
                                      _F(  MAILLE = 'MA3',
                                        MATER = MAT3))
                         )

TRAC_FO=DEFI_FONCTION(       NOM_PARA='INST',
                             PROL_DROITE='EXCLU',
                            PROL_GAUCHE='EXCLU',
                                   VALE=( 0.,      0.,
                                          1.,      3.,
                                          2.,      6.,
                                          3.,      9.,
                                          4.,      12.95,
                                          5.,      15.,
                                          6.,      16.93,  )
                        )

TRAC=AFFE_CHAR_MECA(      MODELE=MODEL,FORCE_NODALE=(
                             _F(  NOEUD = 'NO2',
                                             FX = 0.5),
                                          _F(  NOEUD = 'NO3',
                                             FX = 0.5))
                        )

CONDLIM=AFFE_CHAR_MECA(     MODELE=MODEL,DDL_IMPO=(
                              _F(  NOEUD = 'NO1',  DX = 0.,
                                                      DY = 0.),
                                       _F(  NOEUD = 'NO2',  DY = 0.),
                                       _F(  NOEUD = 'NO4',  DX = 0.))
                          )

CAT=DEFI_LIST_REEL(    DEBUT=0.0,INTERVALLE=(
                          _F(  JUSQU_A = 1.,     NOMBRE = 60),
                          _F(  JUSQU_A = 2.,     NOMBRE = 60),
                          _F(  JUSQU_A = 3.,     NOMBRE = 60),
                          _F(  JUSQU_A = 4.,     NOMBRE = 60),
                          _F(  JUSQU_A = 5.,     NOMBRE = 60),
                          _F(  JUSQU_A = 6.,     NOMBRE = 60))
                      )

CALCNL=STAT_NON_LINE(
                            MODELE=MODEL,
                        CHAM_MATER=MATER,
                         COMP_INCR=_F(
                RELATION = 'VMIS_ISOT_LINE',
                ITER_INTE_MAXI = 1000,
                DEFORMATION = 'PETIT'),
                         INCREMENT=_F(
                LIST_INST = CAT),
                            NEWTON=_F(
                MATRICE = 'ELASTIQUE',
                REAC_INCR = 1,
                REAC_ITER = 0),
                       CONVERGENCE=_F(
                RESI_GLOB_RELA = 1.E-4,
                ITER_GLOB_MAXI = 50),EXCIT=(
                             _F(
                CHARGE = CONDLIM), _F(
                CHARGE = TRAC,
                FONC_MULT = TRAC_FO)),
                     RECH_LINEAIRE=_F(
                ITER_LINE_MAXI = 3)
              )

CALCNL=CALC_CHAMP(reuse=CALCNL,CONTRAINTE=('SIGM_ELNO'),VARI_INTERNE=('VARI_ELNO'),RESULTAT=CALCNL)

CALCNL=CALC_CHAMP(reuse=CALCNL,DEFORMATION=('EPSI_ELNO'),RESULTAT=CALCNL)

TEST_RESU(RESU=(_F(NUME_ORDRE=60,
                   RESULTAT=CALCNL,
                   NOM_CHAM='SIGM_ELNO',
                   NOEUD='NO1',
                   NOM_CMP='SIXX',
                   VALE_CALC=1.500000000,
                   VALE_REFE=1.5,
                   REFERENCE='NON_DEFINI',
                   CRITERE='RELATIF',
                   PRECISION=0.02,
                   MAILLE='MA1',),
                _F(NUME_ORDRE=60,
                   RESULTAT=CALCNL,
                   NOM_CHAM='SIGM_ELNO',
                   NOEUD='NO1',
                   NOM_CMP='SIYY',
                   VALE_CALC=6.9388940000000007E-18,
                   TOLE_MACHINE=1.E-3,
                   CRITERE='ABSOLU',
                   MAILLE='MA1',),
                _F(NUME_ORDRE=60,
                   RESULTAT=CALCNL,
                   NOM_CHAM='SIGM_ELNO',
                   NOEUD='NO1',
                   NOM_CMP='SIXX',
                   VALE_CALC=0.900000000,
                   VALE_REFE=0.90000000000000002,
                   REFERENCE='NON_DEFINI',
                   CRITERE='RELATIF',
                   PRECISION=0.02,
                   MAILLE='MA2',),
                _F(NUME_ORDRE=60,
                   RESULTAT=CALCNL,
                   NOM_CHAM='SIGM_ELNO',
                   NOEUD='NO1',
                   NOM_CMP='SIYY',
                   VALE_CALC=-1.0408339999999999E-17,
                   TOLE_MACHINE=1.E-3,
                   CRITERE='ABSOLU',
                   MAILLE='MA2',),
                _F(NUME_ORDRE=60,
                   RESULTAT=CALCNL,
                   NOM_CHAM='SIGM_ELNO',
                   NOEUD='NO1',
                   NOM_CMP='SIXX',
                   VALE_CALC=0.600000000,
                   VALE_REFE=0.59999999999999998,
                   REFERENCE='NON_DEFINI',
                   CRITERE='RELATIF',
                   PRECISION=0.02,
                   MAILLE='MA3',),
                _F(NUME_ORDRE=60,
                   RESULTAT=CALCNL,
                   NOM_CHAM='SIGM_ELNO',
                   NOEUD='NO1',
                   NOM_CMP='SIYY',
                   VALE_CALC=-6.9388940000000007E-18,
                   TOLE_MACHINE=1.E-3,
                   CRITERE='ABSOLU',
                   MAILLE='MA3',),
                _F(NUME_ORDRE=120,
                   RESULTAT=CALCNL,
                   NOM_CHAM='SIGM_ELNO',
                   NOEUD='NO1',
                   NOM_CMP='SIXX',
                   VALE_CALC=3.000000000,
                   VALE_REFE=3.0,
                   REFERENCE='NON_DEFINI',
                   CRITERE='RELATIF',
                   PRECISION=0.02,
                   MAILLE='MA1',),
                _F(NUME_ORDRE=120,
                   RESULTAT=CALCNL,
                   NOM_CHAM='SIGM_ELNO',
                   NOEUD='NO1',
                   NOM_CMP='SIYY',
                   VALE_CALC=4.8619439999999999E-13,
                   TOLE_MACHINE=1.E-3,
                   CRITERE='ABSOLU',
                   MAILLE='MA1',),
                _F(NUME_ORDRE=120,
                   RESULTAT=CALCNL,
                   NOM_CHAM='SIGM_ELNO',
                   NOEUD='NO1',
                   NOM_CMP='SIXX',
                   VALE_CALC=1.800000000,
                   VALE_REFE=1.8,
                   REFERENCE='NON_DEFINI',
                   CRITERE='RELATIF',
                   PRECISION=0.02,
                   MAILLE='MA2',),
                _F(NUME_ORDRE=120,
                   RESULTAT=CALCNL,
                   NOM_CHAM='SIGM_ELNO',
                   NOEUD='NO1',
                   NOM_CMP='SIYY',
                   VALE_CALC=-2.0816679999999999E-17,
                   TOLE_MACHINE=1.E-3,
                   CRITERE='ABSOLU',
                   MAILLE='MA2',),
                _F(NUME_ORDRE=120,
                   RESULTAT=CALCNL,
                   NOM_CHAM='SIGM_ELNO',
                   NOEUD='NO1',
                   NOM_CMP='SIXX',
                   VALE_CALC=1.200000000,
                   VALE_REFE=1.2,
                   REFERENCE='NON_DEFINI',
                   CRITERE='RELATIF',
                   PRECISION=0.02,
                   MAILLE='MA3',),
                _F(NUME_ORDRE=120,
                   RESULTAT=CALCNL,
                   NOM_CHAM='SIGM_ELNO',
                   NOEUD='NO1',
                   NOM_CMP='SIYY',
                   VALE_CALC=-3.4694470000000004E-18,
                   TOLE_MACHINE=1.E-3,
                   CRITERE='ABSOLU',
                   MAILLE='MA3',),
                _F(NUME_ORDRE=180,
                   RESULTAT=CALCNL,
                   NOM_CHAM='SIGM_ELNO',
                   NOEUD='NO1',
                   NOM_CMP='SIXX',
                   VALE_CALC=3.145787982,
                   VALE_REFE=3.1471550000000001,
                   REFERENCE='NON_DEFINI',
                   CRITERE='RELATIF',
                   PRECISION=0.02,
                   MAILLE='MA1',),
                _F(NUME_ORDRE=180,
                   RESULTAT=CALCNL,
                   NOM_CHAM='SIGM_ELNO',
                   NOEUD='NO1',
                   NOM_CMP='SIYY',
                   VALE_CALC=0.316703921,
                   VALE_REFE=0.31995709999999999,
                   REFERENCE='NON_DEFINI',
                   CRITERE='RELATIF',
                   PRECISION=0.02,
                   MAILLE='MA1',),
                _F(NUME_ORDRE=180,
                   RESULTAT=CALCNL,
                   NOM_CHAM='SIGM_ELNO',
                   NOEUD='NO1',
                   NOM_CMP='SIXX',
                   VALE_CALC=3.512525817,
                   VALE_REFE=3.5117069999999999,
                   REFERENCE='NON_DEFINI',
                   CRITERE='RELATIF',
                   PRECISION=0.02,
                   MAILLE='MA2',),
                _F(NUME_ORDRE=180,
                   RESULTAT=CALCNL,
                   NOM_CHAM='SIGM_ELNO',
                   NOEUD='NO1',
                   NOM_CMP='SIYY',
                   VALE_CALC=-0.190022081,
                   VALE_REFE=-0.19000980000000001,
                   REFERENCE='NON_DEFINI',
                   CRITERE='RELATIF',
                   PRECISION=0.02,
                   MAILLE='MA2',),
                _F(NUME_ORDRE=180,
                   RESULTAT=CALCNL,
                   NOM_CHAM='SIGM_ELNO',
                   NOEUD='NO1',
                   NOM_CMP='SIXX',
                   VALE_CALC=2.341683878,
                   VALE_REFE=2.3411379999999999,
                   REFERENCE='NON_DEFINI',
                   CRITERE='RELATIF',
                   PRECISION=0.02,
                   MAILLE='MA3',),
                _F(NUME_ORDRE=180,
                   RESULTAT=CALCNL,
                   NOM_CHAM='SIGM_ELNO',
                   NOEUD='NO1',
                   NOM_CMP='SIYY',
                   VALE_CALC=-0.126681387,
                   VALE_REFE=-0.12798280000000001,
                   REFERENCE='NON_DEFINI',
                   CRITERE='RELATIF',
                   PRECISION=0.02,
                   MAILLE='MA3',),
                _F(NUME_ORDRE=240,
                   RESULTAT=CALCNL,
                   NOM_CHAM='SIGM_ELNO',
                   NOEUD='NO1',
                   NOM_CMP='SIXX',
                   VALE_CALC=3.250808958,
                   VALE_REFE=3.2529189999999999,
                   REFERENCE='NON_DEFINI',
                   CRITERE='RELATIF',
                   PRECISION=0.02,
                   MAILLE='MA1',),
                _F(NUME_ORDRE=240,
                   RESULTAT=CALCNL,
                   NOM_CHAM='SIGM_ELNO',
                   NOEUD='NO1',
                   NOM_CMP='SIYY',
                   VALE_CALC=0.588977471,
                   VALE_REFE=0.59500739999999996,
                   REFERENCE='NON_DEFINI',
                   CRITERE='RELATIF',
                   PRECISION=0.02,
                   MAILLE='MA1',),
                _F(NUME_ORDRE=240,
                   RESULTAT=CALCNL,
                   NOM_CHAM='SIGM_ELNO',
                   NOEUD='NO1',
                   NOM_CMP='SIXX',
                   VALE_CALC=5.816242011,
                   VALE_REFE=5.8142670000000001,
                   REFERENCE='NON_DEFINI',
                   CRITERE='RELATIF',
                   PRECISION=0.02,
                   MAILLE='MA2',),
                _F(NUME_ORDRE=240,
                   RESULTAT=CALCNL,
                   NOM_CHAM='SIGM_ELNO',
                   NOEUD='NO1',
                   NOM_CMP='SIYY',
                   VALE_CALC=-0.352016421,
                   VALE_REFE=-0.35233769999999998,
                   REFERENCE='NON_DEFINI',
                   CRITERE='RELATIF',
                   PRECISION=0.02,
                   MAILLE='MA2',),
                _F(NUME_ORDRE=240,
                   RESULTAT=CALCNL,
                   NOM_CHAM='SIGM_ELNO',
                   NOEUD='NO1',
                   NOM_CMP='SIXX',
                   VALE_CALC=3.882491207,
                   VALE_REFE=3.8788320000000001,
                   REFERENCE='NON_DEFINI',
                   CRITERE='RELATIF',
                   PRECISION=0.02,
                   MAILLE='MA3',),
                _F(NUME_ORDRE=240,
                   RESULTAT=CALCNL,
                   NOM_CHAM='SIGM_ELNO',
                   NOEUD='NO1',
                   NOM_CMP='SIYY',
                   VALE_CALC=-0.236378193,
                   VALE_REFE=-0.23800299999999999,
                   REFERENCE='NON_DEFINI',
                   CRITERE='RELATIF',
                   PRECISION=0.02,
                   MAILLE='MA3',),
                _F(NUME_ORDRE=300,
                   RESULTAT=CALCNL,
                   NOM_CHAM='SIGM_ELNO',
                   NOEUD='NO1',
                   NOM_CMP='SIXX',
                   VALE_CALC=3.214351663,
                   VALE_REFE=3.213822,
                   REFERENCE='NON_DEFINI',
                   CRITERE='RELATIF',
                   PRECISION=0.02,
                   MAILLE='MA1',),
                _F(NUME_ORDRE=300,
                   RESULTAT=CALCNL,
                   NOM_CHAM='SIGM_ELNO',
                   NOEUD='NO1',
                   NOM_CMP='SIYY',
                   VALE_CALC=0.488713652,
                   VALE_REFE=0.48730689999999999,
                   REFERENCE='NON_DEFINI',
                   CRITERE='RELATIF',
                   PRECISION=0.02,
                   MAILLE='MA1',),
                _F(NUME_ORDRE=300,
                   RESULTAT=CALCNL,
                   NOM_CHAM='SIGM_ELNO',
                   NOEUD='NO1',
                   NOM_CMP='SIXX',
                   VALE_CALC=6.015989432,
                   VALE_REFE=6.0178339999999997,
                   REFERENCE='NON_DEFINI',
                   CRITERE='RELATIF',
                   PRECISION=0.02,
                   MAILLE='MA2',),
                _F(NUME_ORDRE=300,
                   RESULTAT=CALCNL,
                   NOM_CHAM='SIGM_ELNO',
                   NOEUD='NO1',
                   NOM_CMP='SIYY',
                   VALE_CALC=0.032113190,
                   VALE_REFE=0.031745719999999998,
                   REFERENCE='NON_DEFINI',
                   CRITERE='RELATIF',
                   PRECISION=0.02,
                   MAILLE='MA2',),
                _F(NUME_ORDRE=300,
                   RESULTAT=CALCNL,
                   NOM_CHAM='SIGM_ELNO',
                   NOEUD='NO1',
                   NOM_CMP='SIXX',
                   VALE_CALC=5.769694199,
                   VALE_REFE=5.7683400000000002,
                   REFERENCE='NON_DEFINI',
                   CRITERE='RELATIF',
                   PRECISION=0.02,
                   MAILLE='MA3',),
                _F(NUME_ORDRE=300,
                   RESULTAT=CALCNL,
                   NOM_CHAM='SIGM_ELNO',
                   NOEUD='NO1',
                   NOM_CMP='SIYY',
                   VALE_CALC=-0.520714355,
                   VALE_REFE=-0.52313549999999998,
                   REFERENCE='NON_DEFINI',
                   CRITERE='RELATIF',
                   PRECISION=0.02,
                   MAILLE='MA3',),
                _F(NUME_ORDRE=360,
                   RESULTAT=CALCNL,
                   NOM_CHAM='SIGM_ELNO',
                   NOEUD='NO1',
                   NOM_CMP='SIXX',
                   VALE_CALC=3.210139303,
                   VALE_REFE=3.2092969999999998,
                   REFERENCE='NON_DEFINI',
                   CRITERE='RELATIF',
                   PRECISION=0.02,
                   MAILLE='MA1',),
                _F(NUME_ORDRE=360,
                   RESULTAT=CALCNL,
                   NOM_CHAM='SIGM_ELNO',
                   NOEUD='NO1',
                   NOM_CMP='SIYY',
                   VALE_CALC=0.477570504,
                   VALE_REFE=0.47533449999999999,
                   REFERENCE='NON_DEFINI',
                   CRITERE='RELATIF',
                   PRECISION=0.02,
                   MAILLE='MA1',),
                _F(NUME_ORDRE=360,
                   RESULTAT=CALCNL,
                   NOM_CHAM='SIGM_ELNO',
                   NOEUD='NO1',
                   NOM_CMP='SIXX',
                   VALE_CALC=6.146794650,
                   VALE_REFE=6.1494619999999998,
                   REFERENCE='NON_DEFINI',
                   CRITERE='RELATIF',
                   PRECISION=0.02,
                   MAILLE='MA2',),
                _F(NUME_ORDRE=360,
                   RESULTAT=CALCNL,
                   NOM_CHAM='SIGM_ELNO',
                   NOEUD='NO1',
                   NOM_CMP='SIYY',
                   VALE_CALC=0.305248665,
                   VALE_REFE=0.30484899999999998,
                   REFERENCE='NON_DEFINI',
                   CRITERE='RELATIF',
                   PRECISION=0.02,
                   MAILLE='MA2',),
                _F(NUME_ORDRE=360,
                   RESULTAT=CALCNL,
                   NOM_CHAM='SIGM_ELNO',
                   NOEUD='NO1',
                   NOM_CMP='SIXX',
                   VALE_CALC=7.573080978,
                   VALE_REFE=7.5712409999999997,
                   REFERENCE='NON_DEFINI',
                   CRITERE='RELATIF',
                   PRECISION=0.02,
                   MAILLE='MA3',),
                _F(NUME_ORDRE=360,
                   RESULTAT=CALCNL,
                   NOM_CHAM='SIGM_ELNO',
                   NOEUD='NO1',
                   NOM_CMP='SIYY',
                   VALE_CALC=-0.782760323,
                   VALE_REFE=-0.78635569999999999,
                   REFERENCE='NON_DEFINI',
                   CRITERE='RELATIF',
                   PRECISION=0.02,
                   MAILLE='MA3',),
                ),
          )

FIN()
#
