# ======================================================================
# COPYRIGHT (C) 1991 - 2016  EDF R&D                  WWW.CODE-ASTER.ORG
# THIS PROGRAM IS FREE SOFTWARE; YOU CAN REDISTRIBUTE IT AND/OR MODIFY
# IT UNDER THE TERMS OF THE GNU GENERAL PUBLIC LICENSE AS PUBLISHED BY
# THE FREE SOFTWARE FOUNDATION; EITHER VERSION 2 OF THE LICENSE, OR
# (AT YOUR OPTION) ANY LATER VERSION.
#
# THIS PROGRAM IS DISTRIBUTED IN THE HOPE THAT IT WILL BE USEFUL, BUT
# WITHOUT ANY WARRANTY; WITHOUT EVEN THE IMPLIED WARRANTY OF
# MERCHANTABILITY OR FITNESS FOR A PARTICULAR PURPOSE. SEE THE GNU
# GENERAL PUBLIC LICENSE FOR MORE DETAILS.
#
# YOU SHOULD HAVE RECEIVED A COPY OF THE GNU GENERAL PUBLIC LICENSE
# ALONG WITH THIS PROGRAM; IF NOT, WRITE TO EDF R&D CODE_ASTER,
#    1 AVENUE DU GENERAL DE GAULLE, 92141 CLAMART CEDEX, FRANCE.
# ======================================================================
DEBUT(CODE=_F(NIV_PUB_WEB='INTERNET'))

tfin=159
nbpas=tfin
nbpas_arch = tfin
c_mult_pilo = 10.

# DONNEES MATERIAU
young = 30000.E6
poiss = 0.2
Gc = 200.
Sc = 2.E5
pena_adh = 1.E-4

MA1 = LIRE_MAILLAGE(FORMAT='MED');

MA =  COPIER(CONCEPT= MA1)

MA = DEFI_GROUP(reuse = MA,
       MAILLAGE = MA,
       CREA_GROUP_MA = (
          _F(NOM = 'FACE_SUP', GROUP_MA = 'FACESUP'),
          _F(NOM = 'FACE_INF', GROUP_MA = 'FACEINF'),
          _F(NOM = 'MATIERE' , GROUP_MA = 'TOUT'),
       ),
       CREA_GROUP_NO = (
          _F(NOM = 'P_RIG', GROUP_NO = 'PRIG'),
          _F(GROUP_MA = 'FACE_SUP'),
          _F(GROUP_MA = 'FACE_INF'),
          _F(NOM = 'N_INTER',GROUP_NO = 'INTER'),
          _F(NOM = 'N_SUP',GROUP_NO = 'NSUP'),
         )
       );

MO = AFFE_MODELE(
       MAILLAGE = MA,
       AFFE =
         _F(
           GROUP_MA     = ('MATIERE','FACE_SUP','FACE_INF'),
           PHENOMENE    = 'MECANIQUE',
           MODELISATION = 'D_PLAN'),
         );

 # FORME ANALYTIQUE POUR LA FISSURE

LN = FORMULE(VALE='Y',
             NOM_PARA=('X','Y'));


FISS=DEFI_FISS_XFEM(MAILLAGE=MA,
                    TYPE_DISCONTINUITE='INTERFACE',
                    DEFI_FISS=_F(FONC_LN=LN),
                    GROUP_MA_ENRI='MATIERE',
                    );

MA=DEFI_GROUP(reuse=MA,
              MAILLAGE=MA,
              CREA_GROUP_MA=_F(FISSURE=FISS,
                               NOM='TRAVERS',
                               OPTION='FISS_XFEM',
                               TYPE_GROUP='HEAVISIDE'));

MODELEK=MODI_MODELE_XFEM(MODELE_IN=MO,
                         FISSURE=FISS,
                         CONTACT='STANDARD',
                         );

CTXFEM = DEFI_CONTACT(
            MODELE         = MODELEK,
            FORMULATION    = 'XFEM',
            FROTTEMENT     = 'SANS',
            ITER_CONT_MAXI = 3,
            ELIM_ARETE     = 'ELIM',
            ZONE=(
                  _F(INTEGRATION='GAUSS',
                     ORDRE_INT=2,
                     ALGO_CONT='CZM',
                     FISS_MAIT = FISS,
                     RELATION='CZM_LIN_REG',
                     )));

#--------------------------------------------------------------
# DEFINITION DES PARAMETRES MATERIAUX
#--------------------------------------------------------------

BETON = DEFI_MATERIAU(ELAS = _F( E = young,
                                NU = poiss),
                      RUPT_FRAG = _F( GC = Gc,
                                      SIGM_C = Sc,
                                      PENA_ADHERENCE=pena_adh,
                                      ),
                         );

CHAMPMA=AFFE_MATERIAU(MAILLAGE=MA,
                       MODELE=MODELEK,
                       AFFE=(_F(GROUP_MA='MATIERE',MATER=BETON),
                            ),
                      );


# ON BLOQUE LES MOUVEMENTS DE CORPS RIGIDE DS LA DIRECTION X AU POINT P_RIG
RIGIDE = AFFE_CHAR_MECA(
  MODELE   = MODELEK,
  DDL_IMPO = _F(GROUP_NO='P_RIG', DX = 0.0),
  );

fyi=1.0;
# EFFORT IMPOSE SUR LA SURFACE SUPERIEURE DE LA PLAQUE
TRACTION = AFFE_CHAR_MECA(
  MODELE = MODELEK,
  FORCE_CONTOUR = (_F(GROUP_MA = 'FACE_SUP', FY = fyi),
              _F(GROUP_MA = 'FACE_INF', FY = -fyi),
                   ),
  );

SYMETRIE = AFFE_CHAR_MECA(
  MODELE        = MODELEK,
  LIAISON_GROUP =_F(GROUP_NO_1 = 'N_SUP',
                    GROUP_NO_2 = 'N_SUP',
                    DDL_1 = 'DY',
                    DDL_2 = 'H1Y',
                    COEF_MULT_1 = 2.,
                    COEF_MULT_2 = -2.,
                    COEF_IMPO=0.),
  )


INSTANTS = DEFI_LIST_REEL(
                          DEBUT = 0.,
                          INTERVALLE = (_F(JUSQU_A =  tfin, NOMBRE = nbpas)),
                          )

INS_ARCH = DEFI_LIST_REEL(
                          DEBUT = 0.,
                          INTERVALLE = (_F(JUSQU_A =  tfin, NOMBRE = nbpas_arch)),
                          )

DEFLIST =DEFI_LIST_INST(DEFI_LIST=_F(LIST_INST =INSTANTS ),
                        ECHEC=_F(
                  ACTION       = 'DECOUPE',
                  SUBD_METHODE = 'MANUEL',
                  SUBD_PAS  = 10,
                  SUBD_PAS_MINI = 1.E-20,
                  SUBD_NIVEAU=10,
                                 ))

EVOL = STAT_NON_LINE(
  MODELE = MODELEK,
  CHAM_MATER = CHAMPMA,
  EXCIT = (
    _F(CHARGE = SYMETRIE),
    _F(CHARGE = RIGIDE),
    _F(CHARGE = TRACTION,
       TYPE_CHARGE = 'FIXE_PILO',
       ),
       ),
  CONTACT=CTXFEM,
  COMPORTEMENT = (
    _F(RELATION = 'ELAS' , GROUP_MA = 'MATIERE'),
    ),
    INCREMENT = _F(LIST_INST = DEFLIST),
    PILOTAGE  = _F (
    TYPE = 'PRED_ELAS',
    SELECTION = 'NORM_INCR_DEPL',
    GROUP_MA='TRAVERS',
    FISSURE = FISS,
    DIRE_PILO = 'DY',
    COEF_MULT = c_mult_pilo,
    ETA_PILO_R_MIN = 0.0,
    ),
  NEWTON  = _F(REAC_ITER = 1),
  CONVERGENCE = _F(RESI_GLOB_RELA = 1.E-8,
                   ITER_GLOB_MAXI = 12),
  SOLVEUR    = _F(METHODE = 'MUMPS',
                  NPREC=-1,

                  ),
  ARCHIVAGE = _F(CHAM_EXCLU='VARI_ELGA')
  )
#--------------------------------------------------------------
# POST-TRAITEMENT
#--------------------------------------------------------------

EVOL=CALC_CHAMP(reuse =EVOL,
                RESULTAT=EVOL,
                FORCE='FORC_NODA');

FORCE = POST_RELEVE_T(
                      ACTION = _F(
                                  INTITULE   = 'FORCE',
                                  OPERATION  = 'EXTRACTION',
                                  RESULTANTE = 'DY',
                                  RESULTAT   =  EVOL,
                                  NOM_CHAM   = 'FORC_NODA',
                                  GROUP_NO   = 'FACE_SUP',

                                 ),
                     )

TAB_U = POST_RELEVE_T(
                      ACTION = _F(
                                  INTITULE   = 'DEPL',
                                  RESULTAT   = EVOL,
                                  OPERATION  = 'EXTRACTION',
                                  NOM_CHAM   = 'DEPL',
                                  NOM_CMP    = 'DY',
                                  GROUP_NO   = 'N_INTER',
                                 ),
                     )

UY = RECU_FONCTION ( TABLE  = TAB_U,
                     PARA_X = 'INST',
                     PARA_Y = 'DY'
                   )

FY = RECU_FONCTION ( TABLE  = FORCE,
                     PARA_X = 'INST',
                     PARA_Y = 'DY'
                   )

#--------------------------------------------------------------
# TESTS SUR LA REPONSE GLOBALE
#-------------------------------------------------------------

TEST_TABLE(REFERENCE='AUTRE_ASTER',
           VALE_CALC=0.0033165984675,
           VALE_REFE=3.3165999999999998E-3,
           NOM_PARA='DY',
           TABLE=TAB_U,
           FILTRE=_F(NOM_PARA='INST',
                     VALE=50,),
           )

TEST_TABLE(REFERENCE='AUTRE_ASTER',
           VALE_CALC=42615323.0719,
           VALE_REFE=4.2615300E7,
           NOM_PARA='DY',
           TABLE=FORCE,
           FILTRE=_F(NOM_PARA='INST',
                     VALE=50,),
           )

TEST_TABLE(REFERENCE='AUTRE_ASTER',
           VALE_CALC=0.00129488281721,
           VALE_REFE=1.29488E-3,
           PRECISION=0.01,
           NOM_PARA='DY',
           TABLE=TAB_U,
           FILTRE=_F(NOM_PARA='INST',
                     VALE=100,),
           )

TEST_TABLE(REFERENCE='AUTRE_ASTER',
           VALE_CALC=2738727.28107,
           VALE_REFE=2.738730E6,
           PRECISION=0.01,
           NOM_PARA='DY',
           TABLE=FORCE,
           FILTRE=_F(NOM_PARA='INST',
                     VALE=100,),
           )

TEST_TABLE(REFERENCE='AUTRE_ASTER',
           VALE_CALC=0.00645751547228,
           VALE_REFE=6.4575199999999996E-3,
           NOM_PARA='DY',
           TABLE=TAB_U,
           FILTRE=_F(NOM_PARA='INST',
                     VALE=150,),
           )

TEST_TABLE(REFERENCE='AUTRE_ASTER',
           VALE_CALC=7872064.17603,
           VALE_REFE=7.872060E6,
           NOM_PARA='DY',
           TABLE=FORCE,
           FILTRE=_F(NOM_PARA='INST',
                     VALE=150,),
           )

#--------------------------------------------------------------
IMPR_FONCTION(
              FORMAT='TABLEAU',
              COURBE=_F(FONC_X = UY,
                        FONC_Y = FY,
                       )
             )

IMPR_TABLE(TABLE=TAB_U)
IMPR_TABLE(TABLE=FORCE)

FIN()
