# MODIF  DATE 08/12/2009   AUTEUR PROIX J-M.PROIX 
# TITRE  FISSURE DE BORD EN ELASTOPLASTICITE DANS UNE PLAQUE
# ssnp110b.para = tps_job 180 mem_job 128Mo ncpus 1 liste_test S
#            CONFIGURATION MANAGEMENT OF EDF VERSION
# ======================================================================
# COPYRIGHT (C) 1991 - 2001  EDF R&D                  WWW.CODE-ASTER.ORG
# THIS PROGRAM IS FREE SOFTWARE; YOU CAN REDISTRIBUTE IT AND/OR MODIFY
# IT UNDER THE TERMS OF THE GNU GENERAL PUBLIC LICENSE AS PUBLISHED BY
# THE FREE SOFTWARE FOUNDATION; EITHER VERSION 2 OF THE LICENSE, OR   
# (AT YOUR OPTION) ANY LATER VERSION.                                 
#
# THIS PROGRAM IS DISTRIBUTED IN THE HOPE THAT IT WILL BE USEFUL, BUT 
# WITHOUT ANY WARRANTY; WITHOUT EVEN THE IMPLIED WARRANTY OF          
# MERCHANTABILITY OR FITNESS FOR A PARTICULAR PURPOSE. SEE THE GNU    
# GENERAL PUBLIC LICENSE FOR MORE DETAILS.                            
#
# YOU SHOULD HAVE RECEIVED A COPY OF THE GNU GENERAL PUBLIC LICENSE   
# ALONG WITH THIS PROGRAM; IF NOT, WRITE TO EDF R&D CODE_ASTER,       
#    1 AVENUE DU GENERAL DE GAULLE, 92141 CLAMART CEDEX, FRANCE.      
# ======================================================================
#    RECTANGULAIRE FINIE SOUMISE A FLEXION CISAILLANTE - EX SSNP310
# 

DEBUT( CODE=_F( NOM = 'SSNP110B',NIV_PUB_WEB='INTERNET'))

PRE_GIBI()

MA=LIRE_MAILLAGE(VERI_MAIL=_F(VERIF='OUI'), )

MO=AFFE_MODELE(MAILLAGE=MA, 
               AFFE=_F( TOUT = 'OUI',
                        PHENOMENE = 'MECANIQUE',
                        MODELISATION = 'C_PLAN'))

MAT=DEFI_MATERIAU(ELAS=_F(E = 2.0601E5, NU = 0.3, ALPHA = 0.),
                  ECRO_LINE=_F(  D_SIGM_EPSI = 0., SY = 808.344)
                         )

CHMAT=AFFE_MATERIAU(  MAILLAGE=MA,AFFE=_F(  TOUT = 'OUI',MATER = MAT))

MA=DEFI_GROUP( reuse=MA,   MAILLAGE=MA, 
                     CREA_GROUP_NO=_F( 
                        GROUP_MA = ( 'LPOP11',  'LPOP8', 'LP9P10', ))
                 )

CL=AFFE_CHAR_MECA(  MODELE=MO, 
            DDL_IMPO=(_F(  GROUP_NO = 'LPOP11', DY = 0.,),
                      _F(  GROUP_NO = 'PB', DX = 0.),),);

CH=AFFE_CHAR_MECA(  MODELE=MO, 
            DDL_IMPO=_F(  GROUP_NO = 'LP9P10', DY = 1.),);
            
RAMPE=DEFI_FONCTION(  NOM_PARA='INST',
                        VALE=(0.,0.,1.,1.,),
                        PROL_DROITE='LINEAIRE'
                      )

L_INST=DEFI_LIST_REEL(DEBUT=0.,
                      INTERVALLE=_F( JUSQU_A = 0.1,  NOMBRE = 150)
                        )

CHAMDEP=STAT_NON_LINE( MODELE=MO,
                       CHAM_MATER=CHMAT,
                       EXCIT=(_F(CHARGE = CL), 
                              _F(CHARGE = CH,
                                 FONC_MULT = RAMPE)),
                       COMP_ELAS=_F(RELATION = 'ELAS_VMIS_LINE',
                                    DEFORMATION = 'GROT_GDEP'),
                       INCREMENT=_F(LIST_INST = L_INST,),
                       NEWTON=_F(MATRICE = 'TANGENTE',
                                 REAC_ITER = 1),
                       CONVERGENCE=_F(RESI_GLOB_RELA = 1.E-5),
                       SOLVEUR=_F(METHODE = 'MULT_FRONT'),
                       ARCHIVAGE = _F(LIST_INST=L_INST,),
                     );

FOND=DEFI_FOND_FISS(    MAILLAGE=MA,
                           FOND_FISS=_F( GROUP_NO = ('P0',)),
                           NORMALE=(0., 1., 0.,)
                      )

# TEST CALC_G AVEC 3 COURONNES 
# ------------------------------

THETA0=CALC_THETA(    MODELE=MO,
                        THETA_2D=_F(  GROUP_NO = ('P0',),
                                   MODULE = 1.,
                                   R_INF = 0.15,
                                   R_SUP = 0.6),
                                     DIRECTION=(1., 0., 0.,)
                     )

THETA1=CALC_THETA(    MODELE=MO,
                        THETA_2D=_F(  GROUP_NO = ('P0',),
                                   MODULE = 1.,
                                   R_INF = 0.3,
                                   R_SUP = 0.9),
                                     DIRECTION=(1., 0., 0.,)
                     )

THETA2=CALC_THETA(    MODELE=MO,
                        THETA_2D=_F(  GROUP_NO = ('P0',),
                                   MODULE = 1.,
                                   R_INF = 0.9,
                                   R_SUP = 1.5),
                                     DIRECTION=(1., 0., 0.,)
                     )

G_0=CALC_G( THETA=_F(THETA=THETA0),
            RESULTAT=CHAMDEP,
            TOUT_ORDRE='OUI',
            SYME_CHAR='SYME',
            COMP_ELAS=_F(RELATION='ELAS_VMIS_LINE',),
            );

IMPR_TABLE(TABLE=G_0,);

LISTG = (30, 60,90,120,150);
G_1=CALC_G( THETA=_F(THETA=THETA1),
            RESULTAT=CHAMDEP,
            NUME_ORDRE=LISTG,
            SYME_CHAR='SYME',
            COMP_ELAS=_F(RELATION='ELAS_VMIS_LINE',),
            );

IMPR_TABLE(TABLE=G_1,);

G_2=CALC_G( THETA=_F(THETA=THETA2),
            RESULTAT=CHAMDEP,
            NUME_ORDRE=LISTG,
            SYME_CHAR='SYME',
            COMP_ELAS=_F(RELATION='ELAS_VMIS_LINE',),
            );

IMPR_TABLE(TABLE=G_2,);
#
# TEST
TEST_TABLE(TABLE=G_0,
           FILTRE=_F(NOM_PARA = 'NUME_ORDRE',
                     VALE_I = 30),
           NOM_PARA='G',
           VALE=3.2555317317980E+00,
           PRECISION=0.001,
           REFERENCE='NON_REGRESSION',
           VERSION='8.1'            )

TEST_TABLE(TABLE=G_0,
           FILTRE=_F(NOM_PARA = 'NUME_ORDRE',
                     VALE_I = 60),
           NOM_PARA='G',
           VALE=1.3356972318693E+01,
           PRECISION=0.001,
           REFERENCE='NON_REGRESSION',
           VERSION='8.1'            )

TEST_TABLE(TABLE=G_0,
           FILTRE=_F(NOM_PARA = 'NUME_ORDRE',
                     VALE_I = 90),
           NOM_PARA='G',
           VALE=3.1016676852305E+01,
           PRECISION=0.001,
           REFERENCE='NON_REGRESSION',
           VERSION='8.1'            )

TEST_TABLE(TABLE=G_0,
           FILTRE=_F(NOM_PARA = 'NUME_ORDRE',
                     VALE_I = 120),
           NOM_PARA='G',
           VALE=5.6328224060881E+01,
           PRECISION=0.001,
           REFERENCE='NON_REGRESSION',
           VERSION='8.1'            )

TEST_TABLE(TABLE=G_0,
           FILTRE=_F(NOM_PARA = 'NUME_ORDRE',
                     VALE_I = 150),
           NOM_PARA='G',
           VALE=8.5845368296506E+01,
           PRECISION=0.001,
           REFERENCE='NON_REGRESSION',
           VERSION='8.1'            )

TEST_TABLE(TABLE=G_1,
           FILTRE=_F(NOM_PARA = 'NUME_ORDRE',
                     VALE_I = 30),
           NOM_PARA='G',
           VALE=3.1736689255331E+00,
           PRECISION=0.001,
           REFERENCE='NON_REGRESSION',
           VERSION='8.1'            )

TEST_TABLE(TABLE=G_1,
           FILTRE=_F(NOM_PARA = 'NUME_ORDRE',
                     VALE_I = 60),
           NOM_PARA='G',
           VALE=1.3030305691554E+01,
           PRECISION=0.001,
           REFERENCE='NON_REGRESSION',
           VERSION='8.1'            )

TEST_TABLE(TABLE=G_1,
           FILTRE=_F(NOM_PARA = 'NUME_ORDRE',
                     VALE_I = 90),
           NOM_PARA='G',
           VALE=3.0500113491007E+01,
           PRECISION=0.001,
           REFERENCE='NON_REGRESSION',
           VERSION='8.1'            )

TEST_TABLE(TABLE=G_1,
           FILTRE=_F(NOM_PARA = 'NUME_ORDRE',
                     VALE_I = 120),
           NOM_PARA='G',
           VALE=5.5902118446902E+01,
           PRECISION=0.001,
           REFERENCE='NON_REGRESSION',
           VERSION='8.1'            )

TEST_TABLE(TABLE=G_1,
           FILTRE=_F(NOM_PARA = 'NUME_ORDRE',
                     VALE_I = 150),
           NOM_PARA='G',
           VALE=8.5989043074851E+01,
           PRECISION=0.001,
           REFERENCE='NON_REGRESSION',
           VERSION='8.1'            )

TEST_TABLE(TABLE=G_2,
           FILTRE=_F(NOM_PARA = 'NUME_ORDRE',
                     VALE_I = 30),
           NOM_PARA='G',
           VALE=3.1810884956539E+00,
           PRECISION=0.001,
           REFERENCE='NON_REGRESSION',
           VERSION='8.1'            )

TEST_TABLE(TABLE=G_2,
           FILTRE=_F(NOM_PARA = 'NUME_ORDRE',
                     VALE_I = 60),
           NOM_PARA='G',
           VALE=1.3066612876293E+01,
           PRECISION=0.001,
           REFERENCE='NON_REGRESSION',
           VERSION='8.1'            )

TEST_TABLE(TABLE=G_2,
           FILTRE=_F(NOM_PARA = 'NUME_ORDRE',
                     VALE_I = 90),
           NOM_PARA='G',
           VALE=3.0674217498316E+01,
           PRECISION=0.001,
           REFERENCE='NON_REGRESSION',
           VERSION='8.1'            )

TEST_TABLE(TABLE=G_2,
           FILTRE=_F(NOM_PARA = 'NUME_ORDRE',
                     VALE_I = 120),
           NOM_PARA='G',
           VALE=5.6512443262292E+01,
           PRECISION=0.001,
           REFERENCE='NON_REGRESSION',
           VERSION='8.1'            )

TEST_TABLE(TABLE=G_2,
           FILTRE=_F(NOM_PARA = 'NUME_ORDRE',
                     VALE_I = 150),
           NOM_PARA='G',
           VALE=8.7473933571217E+01,
           PRECISION=0.001,
           REFERENCE='NON_REGRESSION',
           VERSION='8.1'            )           
FIN()
#
