# MODIF  DATE 29/09/2008   AUTEUR ABBAS M.ABBAS 
# TITRE CONTACT EN GRANDS GLISSEMENTS AVEC X-FEM POUR DES FISSURES
#            CONFIGURATION MANAGEMENT OF EDF VERSION
# ======================================================================
# COPYRIGHT (C) 1991 - 2008  EDF R&D                  WWW.CODE-ASTER.ORG
# THIS PROGRAM IS FREE SOFTWARE; YOU CAN REDISTRIBUTE IT AND/OR MODIFY  
# IT UNDER THE TERMS OF THE GNU GENERAL PUBLIC LICENSE AS PUBLISHED BY  
# THE FREE SOFTWARE FOUNDATION; EITHER VERSION 2 OF THE LICENSE, OR     
# (AT YOUR OPTION) ANY LATER VERSION.                                                    
#                                                                       
# THIS PROGRAM IS DISTRIBUTED IN THE HOPE THAT IT WILL BE USEFUL, BUT   
# WITHOUT ANY WARRANTY; WITHOUT EVEN THE IMPLIED WARRANTY OF            
# MERCHANTABILITY OR FITNESS FOR A PARTICULAR PURPOSE. SEE THE GNU      
# GENERAL PUBLIC LICENSE FOR MORE DETAILS.                              
#                                                                       
# YOU SHOULD HAVE RECEIVED A COPY OF THE GNU GENERAL PUBLIC LICENSE     
# ALONG WITH THIS PROGRAM; IF NOT, WRITE TO EDF R&D CODE_ASTER,         
#    1 AVENUE DU GENERAL DE GAULLE, 92141 CLAMART CEDEX, FRANCE.        
# ======================================================================
#
# CONTACT-FROTTANT EN GRANDS GLISSEMENTS
# AVEC XFEM POUR DES FISSURES HORIZONTALES
#

DEBUT(CODE=_F(NOM='SSNP503B',NIV_PUB_WEB='INTERNET'),DEBUG=_F(SDVERI='OUI'));

PRE_GIBI();

MAILLAG1=LIRE_MAILLAGE(INFO=1,);

MAILLAG2=CREA_MAILLAGE(MAILLAGE=MAILLAG1,
                       LINE_QUAD=_F(GROUP_MA='SURF',),);
                                
MAILLAG2=DEFI_GROUP(reuse =MAILLAG2,
                    MAILLAGE=MAILLAG2,
                    CREA_GROUP_NO =(_F(NOM = 'NFISSU',
                                       OPTION = 'PLAN',
                                       POINT  = (0.0,2.5,),
                                       VECT_NORMALE = (0.0,1.0),
                                       PRECISION = 1E-1,),),)

MODELEIN=AFFE_MODELE(MAILLAGE=MAILLAG2,
                     AFFE=(_F(GROUP_MA=('SURF',),
                              PHENOMENE='MECANIQUE',
                              MODELISATION='D_PLAN_XFEM_CONT',),
                           _F(GROUP_MA=('LIGINF',),
                              PHENOMENE='MECANIQUE',
                              MODELISATION='D_PLAN',),),);       


LN1=FORMULE(NOM_PARA=('X','Y'),VALE='Y-2.5');
LT1=FORMULE(NOM_PARA=('X','Y'),VALE='-X-10.');  


LN2=FORMULE(NOM_PARA=('X','Y'),VALE='-Y+6.5');
LT2=FORMULE(NOM_PARA=('X','Y'),VALE='-X-10.'); 
  
FISS1=DEFI_FISS_XFEM(MODELE=MODELEIN,  
                     DEFI_FISS=_F(FONC_LT=LT1,FONC_LN=LN1,),
                     GROUP_MA_ENRI='SURF',           
                     INFO=1,);

FISS2=DEFI_FISS_XFEM(MODELE=MODELEIN,  
                     DEFI_FISS=_F(FONC_LT=LT2,FONC_LN=LN2,),
                     GROUP_MA_ENRI='SURF',
                     INFO=1,);
                    
MODELEK=MODI_MODELE_XFEM(MODELE_IN=MODELEIN,
                         FISSURE=(FISS1,FISS2),
                         CONTACT='OUI',
                         INFO=1,);
                         
CTXFEM = AFFE_CHAR_MECA( CONTACT=(_F(METHODE='XFEM',
                                     INTEGRATION='NOEUD',
                                     FROTTEMENT='COULOMB',
                                     COULOMB=0.5,
                                     COEF_REGU_FROT=100,
                                     ITER_FROT_MAXI=10,
                                     COEF_REGU_CONT=100., 
                                     ITER_CONT_MAXI=40,
                                     ITER_GEOM_MAXI=10,
                                     TOLE_PROJ_EXT =0.0,   
                                     CONTACT_INIT='OUI',
                                     GLISSIERE='NON',   
                                     COEF_ECHELLE=1.,
                                     FISS_MAIT = FISS1,
                                     ALGO_LAGR='VERSION2'
                                     ),
                                  _F(METHODE='XFEM',
                                     INTEGRATION='NOEUD',
                                     FROTTEMENT='COULOMB',
                                     COULOMB=0.5,
                                     COEF_REGU_FROT=100,
                                     ITER_FROT_MAXI=10,
                                     COEF_REGU_CONT=100., 
                                     ITER_CONT_MAXI=40,
                                     ITER_GEOM_MAXI=10,
                                     TOLE_PROJ_EXT =0.0, 
                                     CONTACT_INIT='OUI', 
                                     GLISSIERE='NON',   
                                     COEF_ECHELLE=1.,
                                     FISS_MAIT = FISS2,
                                     ALGO_LAGR='VERSION2'
                                    ),  
                                  ),
                                MODELE=MODELEK,
                          ),
                          
E=100.0E6
nu=0.3
ACIER=DEFI_MATERIAU(ELAS=_F(E=E,
                            NU=nu,
                            RHO=7800.0,),);

CHAMPMAT=AFFE_MATERIAU(MAILLAGE=MAILLAG2,
                       MODELE=MODELEK,
                       AFFE=_F(GROUP_MA=('SURF','LIGINF',),
                                MATER=ACIER,
                                ),);

DEPX=2.00
DEPY=1.E-3
ZERO=0.0

CH1=AFFE_CHAR_MECA(MODELE=MODELEK,
                   DDL_IMPO=(_F(GROUP_MA='LIGINF',
                                          DY=DEPY,),
                             _F(GROUP_MA='LIGSUP',
                                          DY=-DEPY,),                        
                             _F(GROUP_NO=('P1','P2','P3','P4'),
                                DX=0.0,),),
                   INFO=1,);
                    
CH2=AFFE_CHAR_MECA(MODELE=MODELEK,
                   DDL_IMPO=(_F(NOEUD=('N21','N22','N23','N24',),
                                DX=DEPX,
                                ),
                             ),
                   # CONDITIONS IMPOSEES A LA MAIN
                   # POUR LES MAILLES XFEM INFERIEURE
                   # ET SUPERIEURE
                   LIAISON_DDL=(_F(NOEUD=('N20','N20','N21','N21',),
                                   DDL=('DCX','H1X','DCX','H1X',),
                                   COEF_MULT=(.5,0.5,0.5,.5),
                                   COEF_IMPO=DEPX,),
                                _F(NOEUD=('N24','N24','N25','N25',),
                                   DDL=('DCX','H1X','DCX','H1X',),
                                   COEF_MULT=(.5,0.5,0.5,.5),
                                   COEF_IMPO=DEPX,),
                                ),
                    INFO=1,);               

VAR1=DEFI_FONCTION(NOM_PARA='INST',
                    VALE=(0.,0.,1.,1.),
                    );
                    
VAR2=DEFI_FONCTION(NOM_PARA='INST',
                    VALE=(0.,0.,1.,1.),
                    );   
CHXFEM=AFFE_CHAR_MECA(MODELE=MODELEK,
                      CONTACT_XFEM=CTXFEM,
                      LIAISON_XFEM='OUI',
                      INFO=1,);

L_INST=DEFI_LIST_REEL(DEBUT=0.0,
                      INTERVALLE=_F(JUSQU_A=1.0,
                                    NOMBRE=4,),);

UTOT1=STAT_NON_LINE(MODELE=MODELEK,
                    CHAM_MATER=CHAMPMAT,              
                    EXCIT=(_F(CHARGE=CTXFEM,),
                           _F(CHARGE=CHXFEM,),                                    
                           _F(CHARGE=CH1,FONC_MULT=VAR1),
                           _F(CHARGE=CH2,FONC_MULT=VAR2),),  
                    COMP_ELAS=_F(RELATION='ELAS',
                                 GROUP_MA='SURF',),
                    INCREMENT=_F(LIST_INST=L_INST,),
                    CONVERGENCE=(_F(ITER_GLOB_MAXI=8,
                                    RESI_GLOB_RELA=1E-06
                                    )),
                    SOLVEUR=_F(METHODE='MUMPS',
                               PCENT_PIVOT=80,),
                    ARCHIVAGE=_F(CHAM_EXCLU='VARI_ELGA',),
                    INFO=1,);

LAG=[None]*5

# INST=0.25

LAG[1]=POST_RELEVE_T(ACTION=_F(INTITULE='DEPLE',
                               GROUP_NO='NFISSU',
                               RESULTAT=UTOT1,
                               NOM_CHAM='DEPL',
                               INST=0.25,
                               NOM_CMP=('DX','LAGS_C','LAGS_F1',),
                               OPERATION='EXTRACTION',),);
            
IMPR_TABLE(TABLE=LAG[1],
           FORMAT='AGRAF',
           FORMAT_R='1PE12.7',
           FORMAT_C='MODULE_PHASE',
           IMPR_FONCTION='NON',);

TEST_TABLE(TABLE=LAG[1],
           NOM_PARA='LAGS_C',
           FILTRE=_F(NOM_PARA='COOR_X',
                     CRIT_COMP='EQ',
                     VALE=0.0,
                     PRECISION=1E-3,
                     CRITERE='ABSOLU',),
           VALE=0.0,
           CRITERE='ABSOLU',
           PRECISION=1.0E-15,
           REFERENCE='AUTRE_ASTER',);

TEST_TABLE(TABLE=LAG[1],
           NOM_PARA='LAGS_C',
           FILTRE=_F(NOM_PARA='COOR_X',
                     CRIT_COMP='EQ',
                     VALE=1.0,
                     PRECISION=1E-3,
                     CRITERE='ABSOLU',),
           VALE=-8.2318520E+03,
           CRITERE='RELATIF',
           PRECISION=1.0E-1,
           REFERENCE='AUTRE_ASTER',);       

TEST_TABLE(TABLE=LAG[1],
           NOM_PARA='LAGS_C',
           FILTRE=_F(NOM_PARA='COOR_X',
                     CRIT_COMP='EQ',
                     VALE=2.0,
                     PRECISION=1E-3,
                     CRITERE='ABSOLU',),
           VALE=-6.3690388E+03,
           CRITERE='RELATIF',
           PRECISION=1.0E-1,
           REFERENCE='AUTRE_ASTER',);

TEST_TABLE(TABLE=LAG[1],
           NOM_PARA='LAGS_C',
           FILTRE=_F(NOM_PARA='COOR_X',
                     CRIT_COMP='EQ',
                     VALE=3.0,
                     PRECISION=1E-3,
                     CRITERE='ABSOLU',),
           VALE=-6.4300140E+03,
           CRITERE='RELATIF',
           PRECISION=1.0E-1,
           REFERENCE='AUTRE_ASTER',);
 
TEST_TABLE(TABLE=LAG[1],
           NOM_PARA='LAGS_C',
           FILTRE=_F(NOM_PARA='COOR_X',
                     CRIT_COMP='EQ',
                     VALE=4.0,
                     PRECISION=1E-3,
                     CRITERE='ABSOLU',),
           VALE=-4.0793799E+03,
           CRITERE='RELATIF',
           PRECISION=1.0E-1,
           REFERENCE='AUTRE_ASTER',);               

# INST=0.5

LAG[2]=POST_RELEVE_T(ACTION=_F(INTITULE='DEPLE',
                               GROUP_NO='NFISSU',
                               RESULTAT=UTOT1,
                               NOM_CHAM='DEPL',
                               INST=0.5,
                               NOM_CMP=('DX','LAGS_C','LAGS_F1',),
                               OPERATION='EXTRACTION',),);
                            
IMPR_TABLE(TABLE=LAG[2],
           FORMAT='AGRAF',
           FORMAT_R='1PE12.7',
           FORMAT_C='MODULE_PHASE',
           IMPR_FONCTION='NON',);

TEST_TABLE(TABLE=LAG[2],
           NOM_PARA='LAGS_C',
           FILTRE=_F(NOM_PARA='COOR_X',
                     CRIT_COMP='EQ',
                     VALE=0.0,
                     PRECISION=1E-3,
                     CRITERE='ABSOLU',),
           VALE=0.0,
           CRITERE='ABSOLU',
           PRECISION=1.0E-15,
           REFERENCE='AUTRE_ASTER',);

TEST_TABLE(TABLE=LAG[2],
           NOM_PARA='LAGS_C',
           FILTRE=_F(NOM_PARA='COOR_X',
                     CRIT_COMP='EQ',
                     VALE=1.0,
                     PRECISION=1E-3,
                     CRITERE='ABSOLU',),
           VALE=-1.0604952E+04,
           CRITERE='RELATIF',
           PRECISION=1.0E-1,
           REFERENCE='AUTRE_ASTER',);       

TEST_TABLE(TABLE=LAG[2],
           NOM_PARA='LAGS_C',
           FILTRE=_F(NOM_PARA='COOR_X',
                     CRIT_COMP='EQ',
                     VALE=2.0,
                     PRECISION=1E-3,
                     CRITERE='ABSOLU',),
           VALE=-1.3046685E+04,
           CRITERE='RELATIF',
           PRECISION=1.0E-1,
           REFERENCE='AUTRE_ASTER',);

TEST_TABLE(TABLE=LAG[2],
           NOM_PARA='LAGS_C',
           FILTRE=_F(NOM_PARA='COOR_X',
                     CRIT_COMP='EQ',
                     VALE=3.0,
                     PRECISION=1E-3,
                     CRITERE='ABSOLU',),
           VALE=-1.1796782E+04,
           CRITERE='RELATIF',
           PRECISION=1.0E-1,
           REFERENCE='AUTRE_ASTER',);
 
TEST_TABLE(TABLE=LAG[2],
           NOM_PARA='LAGS_C',
           FILTRE=_F(NOM_PARA='COOR_X',
                     CRIT_COMP='EQ',
                     VALE=4.0,
                     PRECISION=1E-3,
                     CRITERE='ABSOLU',),
           VALE=-8.5688021E+03,
           CRITERE='RELATIF',
           PRECISION=1.0E-1,
           REFERENCE='AUTRE_ASTER',);

# INST=0.75

LAG[3]=POST_RELEVE_T(ACTION=_F(INTITULE='DEPLE',
                               GROUP_NO='NFISSU',
                               RESULTAT=UTOT1,
                               NOM_CHAM='DEPL',
                               INST=0.75,
                               NOM_CMP=('DX','LAGS_C','LAGS_F1',),
                               OPERATION='EXTRACTION',),);
                            
IMPR_TABLE(TABLE=LAG[3],
           FORMAT='AGRAF',
           FORMAT_R='1PE12.7',
           FORMAT_C='MODULE_PHASE',
           IMPR_FONCTION='NON',);

TEST_TABLE(TABLE=LAG[3],
           NOM_PARA='LAGS_C',
           FILTRE=_F(NOM_PARA='COOR_X',
                     CRIT_COMP='EQ',
                     VALE=0.0,
                     PRECISION=1E-3,
                     CRITERE='ABSOLU',),
           VALE=0.0,
           CRITERE='ABSOLU',
           PRECISION=1.0E-15,
           REFERENCE='AUTRE_ASTER',);

TEST_TABLE(TABLE=LAG[3],
           NOM_PARA='LAGS_C',
           FILTRE=_F(NOM_PARA='COOR_X',
                     CRIT_COMP='EQ',
                     VALE=1.0,
                     PRECISION=1E-3,
                     CRITERE='ABSOLU',),
           VALE=0.0,
           CRITERE='ABSOLU',
           PRECISION=1.0E-15,
           REFERENCE='AUTRE_ASTER',);       

TEST_TABLE(TABLE=LAG[3],
           NOM_PARA='LAGS_C',
           FILTRE=_F(NOM_PARA='COOR_X',
                     CRIT_COMP='EQ',
                     VALE=2.0,
                     PRECISION=1E-3,
                     CRITERE='ABSOLU',),
           VALE=-2.2166004E+04,
           CRITERE='RELATIF',
           PRECISION=1.0E-1,
           REFERENCE='AUTRE_ASTER',);

TEST_TABLE(TABLE=LAG[3],
           NOM_PARA='LAGS_C',
           FILTRE=_F(NOM_PARA='COOR_X',
                     CRIT_COMP='EQ',
                     VALE=3.0,
                     PRECISION=1E-3,
                     CRITERE='ABSOLU',),
           VALE=-1.8735262E+04,
           CRITERE='RELATIF',
           PRECISION=1.0E-1,
           REFERENCE='AUTRE_ASTER',);
 
TEST_TABLE(TABLE=LAG[3],
           NOM_PARA='LAGS_C',
           FILTRE=_F(NOM_PARA='COOR_X',
                     CRIT_COMP='EQ',
                     VALE=4.0,
                     PRECISION=1E-3,
                     CRITERE='ABSOLU',),
           VALE=-1.1431025E+04,
           CRITERE='RELATIF',
           PRECISION=1.0E-1,
           REFERENCE='AUTRE_ASTER',);
           
# INST=1.0

LAG[4]=POST_RELEVE_T(ACTION=_F(INTITULE='DEPLE',
                               GROUP_NO='NFISSU',
                               RESULTAT=UTOT1,
                               NOM_CHAM='DEPL',
                               INST=1.0,
                               NOM_CMP=('DX','LAGS_C','LAGS_F1',),
                               OPERATION='EXTRACTION',),);
                            
IMPR_TABLE(TABLE=LAG[4],
           FORMAT='AGRAF',
           FORMAT_R='1PE12.7',
           FORMAT_C='MODULE_PHASE',
           IMPR_FONCTION='NON',);
           
TEST_TABLE(TABLE=LAG[4],
           NOM_PARA='LAGS_C',
           FILTRE=_F(NOM_PARA='COOR_X',
                     CRIT_COMP='EQ',
                     VALE=0.0,
                     PRECISION=1E-3,
                     CRITERE='ABSOLU',),
           VALE=0.0,
           CRITERE='ABSOLU',
           PRECISION=1.0E-15,
           REFERENCE='AUTRE_ASTER',);

TEST_TABLE(TABLE=LAG[4],
           NOM_PARA='LAGS_C',
           FILTRE=_F(NOM_PARA='COOR_X',
                     CRIT_COMP='EQ',
                     VALE=1.0,
                     PRECISION=1E-3,
                     CRITERE='ABSOLU',),
           VALE=0.0,
           CRITERE='ABSOLU',
           PRECISION=1.0E-15,
           REFERENCE='AUTRE_ASTER',);       

TEST_TABLE(TABLE=LAG[4],
           NOM_PARA='LAGS_C',
           FILTRE=_F(NOM_PARA='COOR_X',
                     CRIT_COMP='EQ',
                     VALE=2.0,
                     PRECISION=1E-3,
                     CRITERE='ABSOLU',),
           VALE=-1.9530387E+04,
           CRITERE='RELATIF',
           PRECISION=1.0E-1,
           REFERENCE='AUTRE_ASTER',);

TEST_TABLE(TABLE=LAG[4],
           NOM_PARA='LAGS_C',
           FILTRE=_F(NOM_PARA='COOR_X',
                     CRIT_COMP='EQ',
                     VALE=3.0,
                     PRECISION=1E-3,
                     CRITERE='ABSOLU',),
           VALE=-2.3603572E+04,
           CRITERE='RELATIF',
           PRECISION=1.0E-1,
           REFERENCE='AUTRE_ASTER',);
 
TEST_TABLE(TABLE=LAG[4],
           NOM_PARA='LAGS_C',
           FILTRE=_F(NOM_PARA='COOR_X',
                     CRIT_COMP='EQ',
                     VALE=4.0,
                     PRECISION=1E-3,
                     CRITERE='ABSOLU',),
           VALE=-1.7514604E+04,
           CRITERE='RELATIF',
           PRECISION=1.0E-1,
           REFERENCE='AUTRE_ASTER',);

FIN();                  

