# MODIF  DATE 20/07/2009   AUTEUR GENIAUT S.GENIAUT 
# TITRE SIMULATION D'UNE PLAQUE TROUEE EN PLASTICITE - METHODE ARLEQUIN
# ssnp135e.para = tps_job 110 mem_job 256Mo ncpus 1 liste_test S
#            CONFIGURATION MANAGEMENT OF EDF VERSION
# ======================================================================
# COPYRIGHT (C) 1991 - 2007  EDF R&D                  WWW.CODE-ASTER.ORG
# THIS PROGRAM IS FREE SOFTWARE; YOU CAN REDISTRIBUTE IT AND/OR MODIFY
# IT UNDER THE TERMS OF THE GNU GENERAL PUBLIC LICENSE AS PUBLISHED BY
# THE FREE SOFTWARE FOUNDATION; EITHER VERSION 2 OF THE LICENSE, OR
# (AT YOUR OPTION) ANY LATER VERSION.
#
# THIS PROGRAM IS DISTRIBUTED IN THE HOPE THAT IT WILL BE USEFUL, BUT
# WITHOUT ANY WARRANTY; WITHOUT EVEN THE IMPLIED WARRANTY OF
# MERCHANTABILITY OR FITNESS FOR A PARTICULAR PURPOSE. SEE THE GNU
# GENERAL PUBLIC LICENSE FOR MORE DETAILS.
#
# YOU SHOULD HAVE RECEIVED A COPY OF THE GNU GENERAL PUBLIC LICENSE
# ALONG WITH THIS PROGRAM; IF NOT, WRITE TO EDF R&D CODE_ASTER,
#    1 AVENUE DU GENERAL DE GAULLE, 92141 CLAMART CEDEX, FRANCE.
# ======================================================================

DEBUT(CODE=_F(NOM='SSNP135E',
              NIV_PUB_WEB='INTERNET',),
      DEBUG=_F(SDVERI='OUI',),);

########################
# 1. Lecture du maillage
#    de la plaque
########################

MAIL1=LIRE_MAILLAGE(UNITE=20,
                    FORMAT='MED',);

########################
# 2. Lecture du maillage
#    de la partie trouee
#    (patch Arlequin)
########################

MAIL2=LIRE_MAILLAGE(UNITE=21,
                    FORMAT='MED',);

MAIL=ASSE_MAILLAGE(MAILLAGE_1=MAIL1,
                   MAILLAGE_2=MAIL2,
                   OPERATION='SUPERPOSE',);

MOD=AFFE_MODELE(MAILLAGE=MAIL,
                VERIF='MAILLE',
                AFFE=_F(TOUT='OUI',
                        PHENOMENE='MECANIQUE',
                        MODELISATION='C_PLAN',),);

###########################
# 3. DEFINITION DU MATERIAU
#    EN TRACTION
###########################

CTRAC=DEFI_FONCTION(NOM_PARA='EPSI',VALE=(0.004,4.0,
                          0.006,5.0,
                          0.009,5.5,
                          0.02,6.0,
                          ),PROL_DROITE='CONSTANT',);

MATER=DEFI_MATERIAU(ELAS=_F(E=1000.0,
                            NU=0.3,),
                    TRACTION=_F(SIGM=CTRAC,),);

CHMATER=AFFE_MATERIAU(MAILLAGE=MAIL,
                      AFFE=_F(TOUT='OUI',
                              MATER=MATER,),);

###########################
# 4. CONDITIONS AUX LIMITES
###########################

###
# A. SYMETRIE (QUART DE PLAQUE)
###

SYMET=AFFE_CHAR_MECA(MODELE=MOD,
                     FACE_IMPO=(_F(GROUP_MA=('GM1027','GM27',),
                                   DY=0.0,),
                                _F(GROUP_MA=('GM1029','GM29',),
                                   DX=0.0,),),);

###
# B. TRACTION REPARTIE SUR LE HAUT
###

EFFORT=AFFE_CHAR_MECA(MODELE=MOD,
                      FORCE_CONTOUR=_F(GROUP_MA='GM26',
                                       FY=1.0,),);

###
# C. Creation des relations de couplage Arlequin
#    entre les groupes de mailles
#    GM111 (maillage fin) et
#    GM61 (maillage grossier)
#    Collage sur le modele fin
###

ARLQ=AFFE_CHAR_MECA(MODELE=MOD,
                    ARLEQUIN=_F(GROUP_MA_1='GM61',
                                GROUP_MA_2=('GM9','GM111',),
                                GROUP_MA_COLL='GM111',
                                COND_LIM=SYMET,
                                COLLAGE='FIN',
                                POIDS_FIN=0.9999,),);

# L INSTANT EST EGAL A LA VALEUR DE LA TRACTION SUR HAUT

F_DEPL=DEFI_FONCTION(NOM_PARA='INST',VALE=(0.0,0.0,
                           10.0,10.0,
                           ),);

# DISCRETISATION EN TEMPS

L_INST=DEFI_LIST_REEL(DEBUT=0.0,
                      INTERVALLE=(_F(JUSQU_A=2.,
                                     NOMBRE=4,),
                                  _F(JUSQU_A=3.5,
                                     NOMBRE=15,),
                                  _F(JUSQU_A=5.4,
                                     NOMBRE=5,),),);

##################################
# 5. RESOLUTION DU PB NON-LINEAIRE
##################################

RESU=STAT_NON_LINE(MODELE=MOD,
                   CHAM_MATER=CHMATER,
                   EXCIT=(_F(CHARGE=SYMET,),
                          _F(CHARGE=EFFORT,
                             FONC_MULT=F_DEPL,),
                          _F(CHARGE=ARLQ,),),
                   COMP_INCR=_F(RELATION='VMIS_ISOT_TRAC',
                                GROUP_MA='GM9',),
                   COMP_ELAS=_F(RELATION='ELAS',
                                GROUP_MA=('GM61','GM111',),),
                   INCREMENT=_F(LIST_INST=L_INST,
                                INST_FIN=3.5,),
                   NEWTON=_F(REAC_INCR=1,
                             MATRICE='TANGENTE',
                             REAC_ITER=1,),
                   CONVERGENCE=_F(ITER_GLOB_MAXI=10,),
                   ARCHIVAGE=_F(LIST_INST=L_INST,),);

#####################
# 6. POST-TRAITEMENTS
#####################

RESU=CALC_ELEM(reuse =RESU,
               RESULTAT=RESU,
               OPTION=('SIEF_ELNO_ELGA','EQUI_ELNO_SIGM','VARI_ELNO_ELGA',),);

RESU=CALC_NO(reuse =RESU,
             RESULTAT=RESU,
             OPTION=('SIEF_NOEU_ELGA','EQUI_NOEU_SIGM','VARI_NOEU_ELGA',),);

RESU=CALC_NO(reuse =RESU,
             RESULTAT=RESU,
             OPTION='FORC_NODA',);

###
# A.DEPLACEMENTS DU POINT A (BORD DU TROU)
###

DX_A=POST_RELEVE_T(ACTION=_F(OPERATION='EXTRACTION',
                             INTITULE='DX_A',
                             RESULTAT=RESU,
                             NOM_CHAM='DEPL',
                             GROUP_NO='GM33',
                             NOM_CMP='DX',),);

TEST_TABLE(TABLE=DX_A,
           FILTRE=_F(NOM_PARA='INST',
                     VALE=2.5,),
           NOM_PARA='DX',
           VALE=-2.5516150341568E-02,
           CRITERE='RELATIF',
           PRECISION=1e-08,
           REFERENCE='NON_REGRESSION',
           VERSION='9.1.14',);

TEST_TABLE(TABLE=DX_A,
           FILTRE=_F(NOM_PARA='INST',
                     VALE=3.5,),
           NOM_PARA='DX',
           VALE=-3.4703922024684E-02,
           CRITERE='RELATIF',
           PRECISION=1e-08,
           REFERENCE='NON_REGRESSION',
           VERSION='9.1.14',);

TEST_TABLE(TABLE=DX_A,
           FILTRE=_F(NOM_PARA='INST',
                     VALE=2.5,),
           NOM_PARA='DX',
           VALE=-2.5415171286325E-02,
           CRITERE='RELATIF',
           PRECISION=0.004,
           REFERENCE='AUTRE_ASTER',);

TEST_TABLE(TABLE=DX_A,
           FILTRE=_F(NOM_PARA='INST',
                     VALE=3.5,),
           NOM_PARA='DX',
           VALE=-3.4606865864745E-02,
           CRITERE='RELATIF',
           PRECISION=0.01,
           REFERENCE='AUTRE_ASTER',);

###
# B.DEPLACEMENTS DU POINT B (BORD DU TROU)
###

DY_B=POST_RELEVE_T(ACTION=_F(OPERATION='EXTRACTION',
                             INTITULE='DY_B',
                             RESULTAT=RESU,
                             NOM_CHAM='DEPL',
                             GROUP_NO='GM32',
                             NOM_CMP='DY',),);

TEST_TABLE(TABLE=DY_B,
           FILTRE=_F(NOM_PARA='INST',
                     VALE=2.5,),
           NOM_PARA='DY',
           VALE=7.7160730362990E-02,
           CRITERE='RELATIF',
           PRECISION=1e-08,
           REFERENCE='NON_REGRESSION',
           VERSION='9.1.14',);

TEST_TABLE(TABLE=DY_B,
           FILTRE=_F(NOM_PARA='INST',
                     VALE=3.5,),
           NOM_PARA='DY',
           VALE=1.1665868767192E-01,
           CRITERE='RELATIF',
           PRECISION=1e-08,
           REFERENCE='NON_REGRESSION',
           VERSION='9.1.14',);

TEST_TABLE(TABLE=DY_B,
           FILTRE=_F(NOM_PARA='INST',
                     VALE=2.5,),
           NOM_PARA='DY',
           VALE=7.6498982211284E-02,
           CRITERE='RELATIF',
           PRECISION=0.01,
           REFERENCE='AUTRE_ASTER',);

TEST_TABLE(TABLE=DY_B,
           FILTRE=_F(NOM_PARA='INST',
                     VALE=3.5,),
           NOM_PARA='DY',
           VALE=1.1557688703700E-01,
           CRITERE='RELATIF',
           PRECISION=0.01,
           REFERENCE='AUTRE_ASTER',);
###
# C. CONTRAINTES AU BORD DU TROU
###

CERCLE=INTE_MAIL_2D(MAILLAGE=MAIL,
                    DEFI_CHEMIN=_F(GROUP_MA='GM28',),);

STHETA=POST_RELEVE_T(ACTION=_F(OPERATION='EXTRACTION',
                               INTITULE='STHETA',
                               RESULTAT=RESU,
                               NOM_CHAM='SIEF_ELNO_ELGA',
                               INST=1.0,
                               CHEMIN=CERCLE,
                               NOM_CMP=('SIXX','SIYY','SIXY',),
                               REPERE='POLAIRE',),);

TEST_TABLE(TABLE=STHETA,
           FILTRE=_F(NOM_PARA='ABSC_CURV',
                     VALE=15.7017,),
           NOM_PARA='SIXX',
           VALE=-1.1772187656200E-01,
           CRITERE='RELATIF',
           PRECISION=1e-08,
           REFERENCE='NON_REGRESSION',
           VERSION='9.0.4',);

TEST_TABLE(TABLE=STHETA,
           FILTRE=_F(NOM_PARA='ABSC_CURV',
                     VALE=15.7017,),
           NOM_PARA='SIXX',
           VALE=-1.0794845533703E-01,
           CRITERE='RELATIF',
           PRECISION=0.1,
           REFERENCE='AUTRE_ASTER',);

###
# D. CONTRAINTE SIYY AU POINT A
###

SYY_A=POST_RELEVE_T(ACTION=_F(OPERATION='EXTRACTION',
                              INTITULE='SYY_A',
                              RESULTAT=RESU,
                              NOM_CHAM='SIEF_NOEU_ELGA',
                              GROUP_NO='GM33',
                              NOM_CMP='SIYY',),);

TEST_TABLE(TABLE=SYY_A,
           FILTRE=_F(NOM_PARA='INST',
                     VALE=3.5,),
           NOM_PARA='SIYY',
           VALE=6.3494327945475E+00,
           CRITERE='RELATIF',
           PRECISION=1e-08,
           REFERENCE='NON_REGRESSION',
           VERSION='9.1.14',);

TEST_TABLE(TABLE=SYY_A,
           FILTRE=_F(NOM_PARA='INST',
                     VALE=3.5,),
           NOM_PARA='SIYY',
           VALE=6.4246203319075E+00,
           CRITERE='RELATIF',
           PRECISION=0.025,
           REFERENCE='AUTRE_ASTER',);

###
# E. CONTRAINTE SIXX AU POINT B
###

SXX_B=POST_RELEVE_T(ACTION=_F(OPERATION='EXTRACTION',
                              INTITULE='SXX_B',
                              RESULTAT=RESU,
                              NOM_CHAM='SIEF_NOEU_ELGA',
                              GROUP_NO='GM32',
                              NOM_CMP='SIXX',),);

TEST_TABLE(TABLE=SXX_B,
           FILTRE=_F(NOM_PARA='INST',
                     VALE=3.5,),
           NOM_PARA='SIXX',
           VALE=-3.5990172585491E+00,
           CRITERE='RELATIF',
           PRECISION=1e-08,
           REFERENCE='NON_REGRESSION',
           VERSION='9.1.14',);

TEST_TABLE(TABLE=SXX_B,
           FILTRE=_F(NOM_PARA='INST',
                     VALE=3.5,),
           NOM_PARA='SIXX',
           VALE=-3.4520540472581E+00,
           CRITERE='RELATIF',
           PRECISION=0.045,
           REFERENCE='AUTRE_ASTER',);

###
# F. FORCE RESULTANTE EN HAUT
###

HAUT=INTE_MAIL_2D(MAILLAGE=MAIL,
                  DEFI_CHEMIN=_F(GROUP_MA='GM26',),);

F_HAUT=POST_RELEVE_T(ACTION=_F(OPERATION='EXTRACTION',
                               INTITULE='F_HAUT',
                               RESULTAT=RESU,
                               NOM_CHAM='FORC_NODA',
                               CHEMIN=HAUT,
                               RESULTANTE=('DX','DY','DZ',),),);

TEST_TABLE(TABLE=F_HAUT,
           FILTRE=_F(NOM_PARA='INST',
                     VALE=3.5,),
           NOM_PARA='DX',
           VALE=-7.7257980876221E-01,
           CRITERE='RELATIF',
           PRECISION=0.19,
           REFERENCE='AUTRE_ASTER',);

TEST_TABLE(TABLE=F_HAUT,
           FILTRE=_F(NOM_PARA='INST',
                     VALE=3.5,),
           NOM_PARA='DX',
           VALE=-6.3175748827719E-01,
           CRITERE='RELATIF',
           PRECISION=1e-08,
           REFERENCE='NON_REGRESSION',
           VERSION='9.1.14',);

TEST_TABLE(TABLE=F_HAUT,
           FILTRE=_F(NOM_PARA='INST',
                     VALE=3.5,),
           NOM_PARA='DY',
           VALE=350.0,
           CRITERE='RELATIF',
           PRECISION=1e-08,
           REFERENCE='ANALYTIQUE',);

TEST_TABLE(TABLE=F_HAUT,
           FILTRE=_F(NOM_PARA='INST',
                     VALE=3.5,),
           NOM_PARA='DZ',
           VALE=0.0,
           CRITERE='ABSOLU',
           PRECISION=1e-08,
           REFERENCE='ANALYTIQUE',);

#########################################
# 7. ON POURSUIT LE CALCUL AU DELA DE 3.5
#    PAR PILOTAGE
#########################################

INSTFIN = 5.4;

RESU=STAT_NON_LINE(reuse =RESU,
                   MODELE=MOD,
                   CHAM_MATER=CHMATER,
                   EXCIT=(_F(CHARGE=SYMET,),
                          _F(CHARGE=EFFORT,
                             TYPE_CHARGE='FIXE_PILO',),
                          _F(CHARGE=ARLQ,),),
                   COMP_INCR=_F(RELATION='VMIS_ISOT_TRAC',
                                GROUP_MA='GM9',),
                   COMP_ELAS=_F(RELATION='ELAS',
                                GROUP_MA=('GM111','GM61',),),
                   ETAT_INIT=_F(EVOL_NOLI=RESU,),
                   INCREMENT=_F(LIST_INST=L_INST,
                                INST_FIN=INSTFIN,),
                   NEWTON=_F(PREDICTION='TANGENTE',
                             REAC_ITER=1,),
                   PILOTAGE=_F(TYPE='DDL_IMPO',
                               COEF_MULT=1.0,
                               GROUP_NO='GM39',
                               NOM_CMP='DY',),
                   CONVERGENCE=_F(ARRET='OUI',),
                   ARCHIVAGE=_F(LIST_INST=L_INST,),);

#####################
# 8. POST-TRAITEMENTS
#####################

RESU=CALC_ELEM(reuse =RESU,
               RESULTAT=RESU,
               NUME_ORDRE=24,
               OPTION=('SIEF_ELNO_ELGA','EQUI_ELNO_SIGM','VARI_ELNO_ELGA',),);

RESU=CALC_NO(reuse =RESU,
             RESULTAT=RESU,
             NUME_ORDRE=24,
             OPTION=('SIEF_NOEU_ELGA','EQUI_NOEU_SIGM','VARI_NOEU_ELGA',),);

###
# A. CONTRAINTES AU BORD DU TROU
###

STHETA2=POST_RELEVE_T(ACTION=_F(OPERATION='EXTRACTION',
                                INTITULE='STHETA2',
                                RESULTAT=RESU,
                                NOM_CHAM='SIEF_ELNO_ELGA',
                                INST=5.4,
                                CHEMIN=CERCLE,
                                NOM_CMP=('SIXX','SIYY','SIXY',),
                                REPERE='POLAIRE',),);

TEST_TABLE(TABLE=STHETA2,
           FILTRE=_F(NOM_PARA='ABSC_CURV',
                     VALE=15.6956,),
           NOM_PARA='SIXX',
           VALE=-1.8647154313877E+00,
           CRITERE='RELATIF',
           PRECISION=1e-06,
           REFERENCE='NON_REGRESSION',
           VERSION='9.1.14',);

###
# B. CONTRAINTE SIYY AU POINT A
###

SYY_A2=POST_RELEVE_T(ACTION=_F(OPERATION='EXTRACTION',
                               INTITULE='SYY_A2',
                               RESULTAT=RESU,
                               NOM_CHAM='SIEF_NOEU_ELGA',
                               GROUP_NO='GM33',
                               NOM_CMP='SIYY',),);

TEST_TABLE(TABLE=SYY_A2,
           FILTRE=_F(NOM_PARA='INST',
                     VALE=5.4,),
           NOM_PARA='SIYY',
           VALE=6.4709283095989E+00,
           CRITERE='RELATIF',
           PRECISION=1e-08,
           REFERENCE='NON_REGRESSION',
           VERSION='9.1.14',);

TEST_TABLE(TABLE=SYY_A2,
           FILTRE=_F(NOM_PARA='INST',
                     VALE=5.4,),
           NOM_PARA='SIYY',
           VALE=6.6907391833841E+00,
           CRITERE='RELATIF',
           PRECISION=0.046,
           REFERENCE='AUTRE_ASTER',);

###
# C. CONTRAINTE SIXX AU POINT B
###

SXX_B2=POST_RELEVE_T(ACTION=_F(OPERATION='EXTRACTION',
                               INTITULE='SXX_B2',
                               RESULTAT=RESU,
                               NOM_CHAM='SIEF_NOEU_ELGA',
                               GROUP_NO='GM32',
                               NOM_CMP='SIXX',),);

TEST_TABLE(TABLE=SXX_B2,
           FILTRE=_F(NOM_PARA='INST',
                     VALE=5.4,),
           NOM_PARA='SIXX',
           VALE=-6.6287709532474E+00,
           CRITERE='RELATIF',
           PRECISION=1e-06,
           REFERENCE='NON_REGRESSION',
           VERSION='9.1.14',);

TEST_TABLE(TABLE=SXX_B2,
           FILTRE=_F(NOM_PARA='INST',
                     VALE=5.4,),
           NOM_PARA='SIXX',
           VALE=-6.6772484619171E+00,
           CRITERE='RELATIF',
           PRECISION=0.04,
           REFERENCE='AUTRE_ASTER',);

##################################
# 9. VISUALISATION DU ETA_PILOTAGE
#    EN FONCTION DE L'INSTANT
##################################

ETA_PILO=RECU_FONCTION(RESULTAT=RESU,
                       TOUT_ORDRE='OUI',
                       NOM_PARA_RESU='ETA_PILOTAGE',);

FIN();
