# TITRE PLAQUE TROUEE COMPLETE ET LOI CZM_EXP_REG
# ======================================================================
# COPYRIGHT (C) 1991 - 2012  EDF R&D                  WWW.CODE-ASTER.ORG
# THIS PROGRAM IS FREE SOFTWARE; YOU CAN REDISTRIBUTE IT AND/OR MODIFY
# IT UNDER THE TERMS OF THE GNU GENERAL PUBLIC LICENSE AS PUBLISHED BY
# THE FREE SOFTWARE FOUNDATION; EITHER VERSION 2 OF THE LICENSE, OR
# (AT YOUR OPTION) ANY LATER VERSION.
#
# THIS PROGRAM IS DISTRIBUTED IN THE HOPE THAT IT WILL BE USEFUL, BUT
# WITHOUT ANY WARRANTY; WITHOUT EVEN THE IMPLIED WARRANTY OF
# MERCHANTABILITY OR FITNESS FOR A PARTICULAR PURPOSE. SEE THE GNU
# GENERAL PUBLIC LICENSE FOR MORE DETAILS.
#
# YOU SHOULD HAVE RECEIVED A COPY OF THE GNU GENERAL PUBLIC LICENSE
# ALONG WITH THIS PROGRAM; IF NOT, WRITE TO EDF R&D CODE_ASTER,
#    1 AVENUE DU GENERAL DE GAULLE, 92141 CLAMART CEDEX, FRANCE.
# ======================================================================
DEBUT(CODE=_F(NOM='SSNP133D',NIV_PUB_WEB='INTERNET'),DEBUG=_F(SDVERI='OUI'))

# NB DE PAS DE TEMPS DE CALCUL ET NOMBRE DE PAS DE TEMPS ARCHIVE
tfin=150
nbpas=tfin
nbpas_arch = tfin
c_mult_pilo = 10.

# DONNEES MATERIAU
young = 30000.E6
poiss = 0.2
Gc = 200.
Sc = 2.E5
pena_adh = 1.E-3

MA = LIRE_MAILLAGE(FORMAT='MED');

MA = DEFI_GROUP(reuse = MA,
       MAILLAGE = MA,
       CREA_GROUP_MA = (
          _F(NOM = 'FACE_SUP', GROUP_MA = 'FACESUP'),
          _F(NOM = 'FACE_INF', GROUP_MA = 'FACEINF'),
          _F(NOM = 'MATIERE' , GROUP_MA = 'TOUT'),
          _F(NOM = 'JOINT'   , GROUP_MA = 'JOIN'),
       ),
       CREA_GROUP_NO = (
          _F(NOM = 'P_RIG', GROUP_NO = 'PRIG'),
          _F(GROUP_MA = 'FACE_SUP'),
          _F(GROUP_MA = 'FACE_INF'),
          _F(NOM = 'N_INTER',GROUP_NO = 'INTER'),
          _F(NOM = 'N_INF',GROUP_NO = 'NINF'),
          _F(NOM = 'N_SUP',GROUP_NO = 'NSUP'),
         ),
       );

MA=MODI_MAILLAGE(reuse =MA,
                   MAILLAGE=MA,
                   ORIE_FISSURE=_F(GROUP_MA='JOINT'),
                   INFO=1
                   )

MO = AFFE_MODELE(
       MAILLAGE = MA,
       AFFE = (
         _F(
           GROUP_MA     = ('MATIERE','FACE_SUP','FACE_INF'),
           PHENOMENE    = 'MECANIQUE',
           MODELISATION = 'D_PLAN' ),
         _F(
           GROUP_MA     = 'JOINT',
           PHENOMENE    = 'MECANIQUE',
           MODELISATION = 'PLAN_JOINT' ),
        ))

#--------------------------------------------------------------
# DEFINITION DES PARAMETRES MATERIAUX
#--------------------------------------------------------------

BETON = DEFI_MATERIAU(ELAS = _F( E = young,
                                NU = poiss),
                      RUPT_FRAG = _F( GC = Gc,
                                      SIGM_C = Sc,
                                      PENA_ADHERENCE=pena_adh,
                                      ),
                         )

CHMAT = AFFE_MATERIAU(
          MAILLAGE = MA,
          AFFE = _F(
          GROUP_MA = ('MATIERE','JOINT'),
          MATER    =  BETON
         )
      )


# ON BLOQUE LES MOUVEMENTS DE CORPS RIGIDE DS LA DIRECTION X AU POINT P_RIG
RIGIDE = AFFE_CHAR_MECA(
  MODELE   = MO,
  DDL_IMPO = _F(GROUP_NO='P_RIG', DX = 0.0),
  );

fyi=1.0;
# EFFORT IMPOSE SUR LA SURFACE SUPERIEURE DE LA PLAQUE
TRACTION = AFFE_CHAR_MECA(
  MODELE = MO,
  FORCE_CONTOUR = (_F(GROUP_MA = 'FACE_SUP', FY = fyi),
                   _F(GROUP_MA = 'FACE_INF', FY = -fyi),
                   ),
  );

SYMETRIE = AFFE_CHAR_MECA(
  MODELE        = MO,
  LIAISON_GROUP =_F(GROUP_NO_1 = 'N_INF',
                    GROUP_NO_2 = 'N_SUP',
                    DDL_1 = 'DY',
                    DDL_2 = 'DY',
                    COEF_MULT_1 = 1.,
                    COEF_MULT_2 = 1.,
                    COEF_IMPO=0.),
  )

INSTANTS = DEFI_LIST_REEL(
                          DEBUT = 0.,
                          INTERVALLE = (_F(JUSQU_A =  tfin, NOMBRE = nbpas)),
                          )

INS_ARCH = DEFI_LIST_REEL(
                          DEBUT = 0.,
                          INTERVALLE = (_F(JUSQU_A =  tfin, NOMBRE = nbpas_arch)),
                          )

DEFLIST =DEFI_LIST_INST(DEFI_LIST=_F(LIST_INST =INSTANTS ),
                        ECHEC=_F(
                  ACTION       = 'DECOUPE',
                  SUBD_METHODE = 'MANUEL',
                  SUBD_PAS  = 10,
                  SUBD_PAS_MINI = 1.E-8,
                  SUBD_NIVEAU=10,
                                 ))
EVOL = STAT_NON_LINE(
  MODELE = MO,
  CHAM_MATER = CHMAT,
  EXCIT = (
    _F(CHARGE = SYMETRIE),
    _F(CHARGE = RIGIDE),
    _F(CHARGE = TRACTION,
       TYPE_CHARGE = 'FIXE_PILO',
       ),
       ),
  COMP_INCR = (
    _F(RELATION = 'ELAS' , GROUP_MA = 'MATIERE'),
    _F(RELATION = 'CZM_EXP_REG' , GROUP_MA = 'JOINT'),
    ),
  INCREMENT = _F(LIST_INST = DEFLIST,
                 ),
   PILOTAGE  = _F (
    TYPE           = 'PRED_ELAS',
    SELECTION      = 'NORM_INCR_DEPL',
    GROUP_MA       = 'JOINT',
    COEF_MULT      = c_mult_pilo,
    ),
  NEWTON  = _F(REAC_ITER = 1),
  CONVERGENCE = _F(RESI_GLOB_RELA = 1.E-6,
                   ITER_GLOB_MAXI = 10),
  SOLVEUR    = _F(METHODE = 'MUMPS',
                  NPREC=-1,
   
                  ),
  ARCHIVAGE = _F(CHAM_EXCLU='VARI_ELGA')
  )

#--------------------------------------------------------------
# POST-TRAITEMENT
#--------------------------------------------------------------

CALC_CHAMP( reuse    = EVOL,
         FORCE='FORC_NODA',
         RESULTAT =  EVOL,
       )

FORCE = POST_RELEVE_T(
                      ACTION = _F(
                                  INTITULE   = 'FORCE',
                                  OPERATION  = 'EXTRACTION',
                                  RESULTANTE = 'DY',
                                  RESULTAT   =  EVOL,
                                  NOM_CHAM   = 'FORC_NODA',
                                  GROUP_NO   = 'FACE_SUP',

                                 ),
                     )

TAB_U = POST_RELEVE_T(
                      ACTION = _F(
                                  INTITULE   = 'DEPL',
                                  RESULTAT   = EVOL,
                                  OPERATION  = 'EXTRACTION',
                                  NOM_CHAM   = 'DEPL',
                                  NOM_CMP    = 'DY',
                                  GROUP_NO   = 'N_INTER',
                                 ),
                     )

UY = RECU_FONCTION ( TABLE  = TAB_U,
                     PARA_X = 'INST',
                     PARA_Y = 'DY'
                   )

FY = RECU_FONCTION ( TABLE  = FORCE,
                     PARA_X = 'INST',
                     PARA_Y = 'DY'
                   )

#--------------------------------------------------------------
# TESTS SUR LA REPONSE GLOBALE
#-------------------------------------------------------------

TEST_TABLE(
           VALE_CALC=3.3221477152896E-03,
           NOM_PARA='DY',
           TABLE=TAB_U,
           FILTRE=_F(NOM_PARA='INST',
                     VALE=50,),
           )

TEST_TABLE(
           VALE_CALC=4.2105356457213E+07,
           NOM_PARA='DY',
           TABLE=FORCE,
           FILTRE=_F(NOM_PARA='INST',
                     VALE=50,),
           )

TEST_TABLE(
           VALE_CALC=2.5235879917491E-03,
           NOM_PARA='DY',
           TABLE=TAB_U,
           FILTRE=_F(NOM_PARA='INST',
                     VALE=100,),
           )

TEST_TABLE(
           VALE_CALC=5.3546036589732E+06,
           NOM_PARA='DY',
           TABLE=FORCE,
           FILTRE=_F(NOM_PARA='INST',
                     VALE=100,),
           )

TEST_TABLE(
           VALE_CALC=7.0911779277676E-03,
           NOM_PARA='DY',
           TABLE=TAB_U,
           FILTRE=_F(NOM_PARA='INST',
                     VALE=150,),
           )

TEST_TABLE(
           VALE_CALC=6.7503856659909E+06,
           NOM_PARA='DY',
           TABLE=FORCE,
           FILTRE=_F(NOM_PARA='INST',
                     VALE=150,),
           )

FIN()
