# MODIF  DATE 18/07/2005   AUTEUR D6BHHJP J.P.LEFEBVRE 
# TITRE DETECTION DES SINGULARITES DANS UNE PLAQUE FISSUREE (QUAD8)
#            CONFIGURATION MANAGEMENT OF EDF VERSION
# ======================================================================
# COPYRIGHT (C) 1991 - 2005  EDF R&D                  WWW.CODE-ASTER.ORG
# THIS PROGRAM IS FREE SOFTWARE; YOU CAN REDISTRIBUTE IT AND/OR MODIFY  
# IT UNDER THE TERMS OF THE GNU GENERAL PUBLIC LICENSE AS PUBLISHED BY  
# THE FREE SOFTWARE FOUNDATION; EITHER VERSION 2 OF THE LICENSE, OR     
# (AT YOUR OPTION) ANY LATER VERSION.                                                    
#                                                                       
# THIS PROGRAM IS DISTRIBUTED IN THE HOPE THAT IT WILL BE USEFUL, BUT   
# WITHOUT ANY WARRANTY; WITHOUT EVEN THE IMPLIED WARRANTY OF            
# MERCHANTABILITY OR FITNESS FOR A PARTICULAR PURPOSE. SEE THE GNU      
# GENERAL PUBLIC LICENSE FOR MORE DETAILS.                              
#                                                                       
# YOU SHOULD HAVE RECEIVED A COPY OF THE GNU GENERAL PUBLIC LICENSE     
# ALONG WITH THIS PROGRAM; IF NOT, WRITE TO EDF R&D CODE_ASTER,         
#    1 AVENUE DU GENERAL DE GAULLE, 92141 CLAMART CEDEX, FRANCE.        
# ======================================================================
# TEST V6.03.130
# CHARGEMENT EN PRESSION
# MAILLAGE : QUAD8
# COMPORTEMENT ELASTIQUE

DEBUT(CODE=_F(NOM='SSNP130D',NIV_PUB_WEB='INTERNET'),);

PRE_GIBI();

MA=LIRE_MAILLAGE();

MA=DEFI_GROUP(reuse =MA,
              MAILLAGE=MA,
              CREA_GROUP_NO=_F(TOUT_GROUP_MA='OUI',),);

# DEFINITION DU MATERIAU

ACIER=DEFI_MATERIAU(ELAS=_F(E=200000.0,
                            NU=0.3,),);

# DEFINITION DES INSTANTS POUR STAT_NON_LINE                            

L_INST=DEFI_LIST_REEL(DEBUT=0.0,
                      INTERVALLE=_F(JUSQU_A=1.0,NOMBRE=1,),);

F_INST=DEFI_FONCTION(NOM_PARA='INST',
                     VALE=(0.0,0.0,1.0,1.0,),);

MO=AFFE_MODELE(MAILLAGE=MA,
               AFFE=_F(TOUT='OUI',
                       PHENOMENE='MECANIQUE',
                       MODELISATION='C_PLAN',),);

MA=MODI_MAILLAGE(reuse =MA,
                 MAILLAGE=MA,
                 ORIE_PEAU_2D=_F(GROUP_MA='GMP34',),
                 MODELE=MO,);

CHMAT=AFFE_MATERIAU(MAILLAGE=MA,
                    AFFE=_F(TOUT='OUI',MATER=ACIER,),);

CHP=AFFE_CHAR_MECA(MODELE=MO,
                   PRES_REP=_F(GROUP_MA='GMP34',PRES=1.0,),);

CHCL=AFFE_CHAR_MECA(MODELE=MO,
                    DDL_IMPO=(_F(GROUP_MA='LIGA',DY=0.0,),
                              _F(GROUP_NO='GNP2',DX=0.0,),),);

DEPLA=STAT_NON_LINE(MODELE=MO,
                    CHAM_MATER=CHMAT,
                    EXCIT=(_F(CHARGE=CHP,FONC_MULT=F_INST,),
                           _F(CHARGE=CHCL,),),
                    COMP_INCR=_F(RELATION='ELAS',TOUT='OUI',),
                    INCREMENT=_F(LIST_INST=L_INST,),);

DEPLA=CALC_ELEM(reuse =DEPLA,
                MODELE=MO,
                CHAM_MATER=CHMAT,
                RESULTAT=DEPLA,
                INST=1.,
                PREC_ERR=0.8,
                OPTION=('SIEF_ELNO_ELGA','ERRE_ELGA_NORE','ERRE_ELNO_ELGA','ETOT_ELEM',
                        'SING_ELEM','SING_ELNO_ELEM'),
                EXCIT=(_F(CHARGE=CHP,FONC_MULT=F_INST,),
                       _F(CHARGE=CHCL,),),);

# TEST DE SING_ELEM VALEUR MAX ET MIN DES 2 COMPOSANTES

TEST_RESU(RESU=(_F(RESULTAT=DEPLA,
                   INST=1.0,
                   NOM_CHAM='SING_ELEM',
                   NOM_CMP='DEGRE',
                   TYPE_TEST='MAX',
                   VALE=2.0,
                   CRITERE='ABSOLU',
                   PRECISION=0.01,
                   REFERENCE='NON_REGRESSION',),
                _F(RESULTAT=DEPLA,
                   INST=1.0,
                   NOM_CHAM='SING_ELEM',
                   NOM_CMP='DEGRE',
                   TYPE_TEST='MIN',
                   VALE=0.51,
                   CRITERE='ABSOLU',
                   PRECISION=0.01,
                   REFERENCE='NON_REGRESSION',),
               _F(RESULTAT=DEPLA,
                   INST=1.0,
                   NOM_CHAM='SING_ELEM',
                   NOM_CMP='TAILLE',
                   TYPE_TEST='MAX',
                   VALE=1.87,
                   CRITERE='ABSOLU',
                   PRECISION=0.01,
                   REFERENCE='NON_REGRESSION',),
               _F(RESULTAT=DEPLA,
                   INST=1.0,
                   NOM_CHAM='SING_ELEM',
                   NOM_CMP='TAILLE',
                   TYPE_TEST='MIN',
                   VALE=0.22,
                   CRITERE='ABSOLU',
                   PRECISION=0.01,
                   REFERENCE='NON_REGRESSION',),),); 

# TEST DE SING_ELEM VALEUR PARTICULIERE EN POINTE DE FISSURE
# LES MAILLES CHOISIES SONT AU VOISINAGE DE LA FISSURE

TEST_RESU(RESU=(_F(RESULTAT=DEPLA,
                   INST=1.0,
                   NOM_CHAM='SING_ELEM',
                   NOM_CMP='DEGRE',
                   MAILLE='M30',
                   POINT=1,
                   VALE=0.809,
                   CRITERE='ABSOLU',
                   PRECISION=0.001,
                   REFERENCE='NON_REGRESSION',),
                _F(RESULTAT=DEPLA,
                   INST=1.0,
                   NOM_CHAM='SING_ELEM',
                   NOM_CMP='DEGRE',
                   MAILLE='M31',
                   POINT=1,
                   VALE=0.510,
                   CRITERE='ABSOLU',
                   PRECISION=0.001,
                   REFERENCE='NON_REGRESSION',),
                _F(RESULTAT=DEPLA,
                   INST=1.0,
                   NOM_CHAM='SING_ELEM',
                   NOM_CMP='DEGRE',
                   MAILLE='M32',
                   POINT=1,
                   VALE=0.510,
                   CRITERE='ABSOLU',
                   PRECISION=0.001,
                   REFERENCE='NON_REGRESSION',),
                _F(RESULTAT=DEPLA,
                   INST=1.0,
                   NOM_CHAM='SING_ELEM',
                   NOM_CMP='DEGRE',
                   MAILLE='M33',
                   POINT=1,
                   VALE=0.647,
                   CRITERE='ABSOLU',
                   PRECISION=0.001,
                   REFERENCE='NON_REGRESSION',),
                _F(RESULTAT=DEPLA,
                   INST=1.0,
                   NOM_CHAM='SING_ELEM',
                   NOM_CMP='DEGRE',
                   MAILLE='M55',
                   POINT=1,
                   VALE=0.842,
                   CRITERE='ABSOLU',
                   PRECISION=0.001,
                   REFERENCE='NON_REGRESSION',),
                 _F(RESULTAT=DEPLA,
                   INST=1.0,
                   NOM_CHAM='SING_ELEM',
                   NOM_CMP='DEGRE',
                   MAILLE='M56',
                   POINT=1,
                   VALE=0.596,
                   CRITERE='ABSOLU',
                   PRECISION=0.001,
                   REFERENCE='NON_REGRESSION',),
                 _F(RESULTAT=DEPLA,
                   INST=1.0,
                   NOM_CHAM='SING_ELEM',
                   NOM_CMP='DEGRE',
                   MAILLE='M57',
                   POINT=1,
                   VALE=0.596,
                   CRITERE='ABSOLU',
                   PRECISION=0.001,
                   REFERENCE='NON_REGRESSION',),
                _F(RESULTAT=DEPLA,
                   INST=1.0,
                   NOM_CHAM='SING_ELEM',
                   NOM_CMP='DEGRE',
                   MAILLE='M58',
                   POINT=1,
                   VALE=0.691,
                   CRITERE='ABSOLU',
                   PRECISION=0.001,
                   REFERENCE='NON_REGRESSION',),),); 

# TEST DE SING_ELNO_ELEM

TEST_RESU(RESU=(_F(RESULTAT=DEPLA,
                   INST=1.0,
                   NOM_CHAM='SING_ELNO_ELEM',
                   NOM_CMP='DEGRE',
                   TYPE_TEST='MAX',
                   VALE=2.0,
                   CRITERE='ABSOLU',
                   PRECISION=0.01,
                   REFERENCE='NON_REGRESSION',),
                _F(RESULTAT=DEPLA,
                   INST=1.0,
                   NOM_CHAM='SING_ELNO_ELEM',
                   NOM_CMP='DEGRE',
                   TYPE_TEST='MIN',
                   VALE=0.51,
                   CRITERE='ABSOLU',
                   PRECISION=0.01,
                   REFERENCE='NON_REGRESSION',),
               _F(RESULTAT=DEPLA,
                   INST=1.0,
                   NOM_CHAM='SING_ELNO_ELEM',
                   NOM_CMP='TAILLE',
                   TYPE_TEST='MAX',
                   VALE=1.87,
                   CRITERE='ABSOLU',
                   PRECISION=0.01,
                   REFERENCE='NON_REGRESSION',),
               _F(RESULTAT=DEPLA,
                   INST=1.0,
                   NOM_CHAM='SING_ELNO_ELEM',
                   NOM_CMP='TAILLE',
                   TYPE_TEST='MIN',
                   VALE=0.22,
                   CRITERE='ABSOLU',
                   PRECISION=0.01,
                   REFERENCE='NON_REGRESSION',),),); 

FIN();
