# MODIF  DATE 08/10/2007   AUTEUR NISTOR I.NISTOR 
# TITRE CONTACT EN GRANDS GLISSEMENTS AVEC X-FEM POUR DES FISSURES
#            CONFIGURATION MANAGEMENT OF EDF VERSION
# ======================================================================
# COPYRIGHT (C) 1991 - 2007  EDF R&D                  WWW.CODE-ASTER.ORG
# THIS PROGRAM IS FREE SOFTWARE; YOU CAN REDISTRIBUTE IT AND/OR MODIFY  
# IT UNDER THE TERMS OF THE GNU GENERAL PUBLIC LICENSE AS PUBLISHED BY  
# THE FREE SOFTWARE FOUNDATION; EITHER VERSION 2 OF THE LICENSE, OR     
# (AT YOUR OPTION) ANY LATER VERSION.                                                    
#                                                                       
# THIS PROGRAM IS DISTRIBUTED IN THE HOPE THAT IT WILL BE USEFUL, BUT   
# WITHOUT ANY WARRANTY; WITHOUT EVEN THE IMPLIED WARRANTY OF            
# MERCHANTABILITY OR FITNESS FOR A PARTICULAR PURPOSE. SEE THE GNU      
# GENERAL PUBLIC LICENSE FOR MORE DETAILS.                              
#                                                                       
# YOU SHOULD HAVE RECEIVED A COPY OF THE GNU GENERAL PUBLIC LICENSE     
# ALONG WITH THIS PROGRAM; IF NOT, WRITE TO EDF R&D CODE_ASTER,         
#    1 AVENUE DU GENERAL DE GAULLE, 92141 CLAMART CEDEX, FRANCE.        
# ======================================================================
#                          OBLIQUES


DEBUT(CODE=_F(NOM='SSNP504A',NIV_PUB_WEB='INTERNET'),DEBUG=_F(SDVERI='OUI'));

PRE_GIBI();

MAILLE=LIRE_MAILLAGE(INFO=1,);


MAILLE=DEFI_GROUP(reuse =MAILLE,
                    MAILLAGE=MAILLE,
                    CREA_GROUP_NO=(_F(NOM='SURFQUAD',
                                     GROUP_MA='SURF',), 
                                   _F(NOM='PHAU',
                                      OPTION ='ENV_SPHERE',
                                      POINT  = (0.0,9.0),
                                      RAYON = 1E-3,
                                      PRECISION = 2E-3,
                                     ),
                                  )
                 );
                     
MAILLE=DEFI_GROUP(reuse =MAILLE,
                    MAILLAGE=MAILLE,
                    CREA_GROUP_NO =(
                                   _F(
                                   NOM = 'LIGSUP',
                                   OPTION = 'PLAN',
                                   GROUP_NO_CENTRE  = 'PHAU',
                                   VECT_NORMALE = (0.0,1.0),
                                   PRECISION = 1E-3,
                                  ),
                                _F(
                                   NOM = 'COTEG',
                                   NOEUD = ('N46','N47','N48','N49','N50',
                                            'N51','N52','N53','N54','N55',
                                            'N56','N57','N58','N59'),
                                  ),                            
                       
                                  ), 
                    ); 
                        
MAILLAGE=CREA_MAILLAGE(MAILLAGE=MAILLE,
                       );       
                            
MAILLAG2=CREA_MAILLAGE(MAILLAGE=MAILLAGE,
                        LINE_QUAD=_F(GROUP_MA='SURF',),);
                            
                            
MODELEIN=AFFE_MODELE(MAILLAGE=MAILLAG2,
                     AFFE=(_F(GROUP_MA=('SURF',),
                              PHENOMENE='MECANIQUE',
                              MODELISATION='D_PLAN_XFEM_CONT',),
                           _F(GROUP_MA=('LIGINF',),
                              PHENOMENE='MECANIQUE',
                              MODELISATION='D_PLAN',),),);       



LN1=FORMULE(NOM_PARA=('X','Y'),VALE='Y-0.24*X-2.125');
LT1=FORMULE(NOM_PARA=('X','Y'),VALE='-X-50. ');  
                    
LN2=FORMULE(NOM_PARA=('X','Y'),VALE='-Y+0.24*X+6.125');
LT2=FORMULE(NOM_PARA=('X','Y'),VALE='-X-50. '); 
 
 
FISS1=DEFI_FISS_XFEM(MODELE=MODELEIN,  
                    DEFI_FISS=_F(FONC_LT=LT1,FONC_LN=LN1,),
                    GROUP_MA_ENRI='SURF',
                    INFO=1,);

FISS2=DEFI_FISS_XFEM(MODELE=MODELEIN,  
                    DEFI_FISS=_F(FONC_LT=LT2,FONC_LN=LN2,),
                    GROUP_MA_ENRI='SURF',
                    INFO=1,);
                    
MODELEK=MODI_MODELE_XFEM(MODELE_IN=MODELEIN,
                         FISSURE=(FISS1,FISS2),
                         CONTACT='OUI',
                         INFO=1,);
                         
CTXFEM = AFFE_CHAR_MECA( CONTACT=(_F(METHODE='XFEM',
                                     INTEGRATION='GAUSS',
                                     COEF_REGU_CONT=100., 
                                     ITER_CONT_MAXI=40,
                                     ITER_GEOM_MAXI=10,
                                     TOLE_PROJ_EXT =0.0,   
                                     CONTACT_INIT='OUI',
#                                    GLISSIERE='NON',   
                                     COEF_ECHELLE=1.,
                                     FROTTEMENT='SANS',
                                     FISS_MAIT = FISS1,
                                    ),
                                  _F(METHODE='XFEM',
                                     INTEGRATION='GAUSS',
                                     COEF_REGU_CONT=100., 
                                     ITER_CONT_MAXI=40,
                                     ITER_GEOM_MAXI=10,
                                     TOLE_PROJ_EXT =0.0, 
                                     CONTACT_INIT='OUI', 
#                                    GLISSIERE='NON',   
                                     COEF_ECHELLE=1.,
                                     FROTTEMENT='SANS',
                                     FISS_MAIT = FISS2,
                                    ),  
                                ),
                                MODELE=MODELEK,
                          ),    
                                        
E=100.0E6
nu=0.3
ACIER=DEFI_MATERIAU(ELAS=_F(E=E,
                            NU=nu,
                            RHO=7800.0,),);

CHAMPMAT=AFFE_MATERIAU(MAILLAGE=MAILLAG2,
                       MODELE=MODELEK,
                       AFFE=_F(GROUP_MA=('SURF','LIGINF',),
                                MATER=ACIER,
                                TEMP_REF=0.0,),);

DEPX=2.0
DEPY=1.E-2
ZERO=0.0


CH1=AFFE_CHAR_MECA(MODELE=MODELEK,
                   DDL_IMPO=(
                            _F(GROUP_MA='LIGINF',
                                         DY=DEPY,),
                            _F(GROUP_NO='LIGSUP',
                                          DY=-DEPY,
                                          ),
                             _F(NOEUD=('N1','N2','N36','N20',), 
                                        DX=0.0,
                                          ),
                                                                                                                                                                                          
                            ),
                    INFO=1,);
                    
CH2=AFFE_CHAR_MECA(MODELE=MODELEK,
                   DDL_IMPO=(
                             _F(GROUP_NO='COTEG',
                                      DX=DEPX,
                                          ),                                                                                                              
                            ),

                    INFO=1,);   
                            
VAR1=DEFI_FONCTION(NOM_PARA='INST',
                    VALE=(0.,0.,1.,1.),
                    PROL_DROITE='CONSTANT',
                    PROL_GAUCHE='CONSTANT',);
                    
VAR2=DEFI_FONCTION(NOM_PARA='INST',
                    VALE=(0.,0.,1.,1.),
                    PROL_DROITE='CONSTANT',
                    PROL_GAUCHE='CONSTANT',);               
                    
   
CHXFEM=AFFE_CHAR_MECA(MODELE=MODELEK,
                      CONTACT_XFEM=CTXFEM,
                      LIAISON_XFEM='OUI',
                                INFO=1,);

L_INST=DEFI_LIST_REEL(DEBUT=0.0,
                      INTERVALLE=_F(JUSQU_A=1.0,
                                    NOMBRE=4,),);
                                    
#IMPR_CO(CONCEPT=_F(NOM=MAILLAG2));

UTOT1=STAT_NON_LINE(MODELE=MODELEK,
                   CHAM_MATER=CHAMPMAT,              
                   EXCIT=(_F(CHARGE=CTXFEM,),
                          _F(CHARGE=CHXFEM,),                                           
                          _F(CHARGE=CH1,FONC_MULT=VAR1),
                          _F(CHARGE=CH2,FONC_MULT=VAR2),
                             ),  
                   COMP_ELAS=_F(RELATION='ELAS',
                                GROUP_MA='SURF',),
                   INCREMENT=_F(LIST_INST=L_INST,),
                   CONVERGENCE=(_F(ITER_GLOB_MAXI=40,
                                                     RESI_GLOB_MAXI=1E-05)),
                   SOLVEUR=_F(METHODE='MUMPS',
                                         PCENT_PIVOT=250,),
                   ARCHIVAGE=_F(CHAM_EXCLU='VARI_ELGA',),
                   INFO=1,);

LAG1=POST_RELEVE_T(ACTION=_F(INTITULE='DEPLE',
                            NOEUD=( 'NS283','NS281','NS284','NS287','NS319',
                                    'NS321','NS323','NS325','NS328','NS360',
                                    'NS362','NS364','NS366','NS369','NS401',
                                    'NS403','NS405','NS407','NS410','NS442','NS444',
                                    ),
                            RESULTAT=UTOT1,
                            NOM_CHAM='DEPL',
                            NUME_ORDRE=1,
                            NOM_CMP=('LAGS_C',),
                            OPERATION='EXTRACTION',),);
    
IMPR_TABLE(TABLE=LAG1,
           FORMAT='AGRAF',
           FORMAT_R='1PE12.5',
           FORMAT_C='MODULE_PHASE',
           IMPR_FONCTION='NON',);

TEST_TABLE(TABLE=LAG1,
           NOM_PARA='LAGS_C',
           FILTRE=_F(NOM_PARA='NOEUD',
                      VALE_K='NS283',),
           VALE=0.0,
           CRITERE='RELATIF',
           PRECISION=1.0E-1,
           REFERENCE='AUTRE_ASTER',);

TEST_TABLE(TABLE=LAG1,
           NOM_PARA='LAGS_C',
           FILTRE=_F(NOM_PARA='NOEUD',
                      VALE_K='NS321',),
           VALE=-4.842E+4,
           CRITERE='RELATIF',
           PRECISION=1.5E-1,
           REFERENCE='AUTRE_ASTER',);       

TEST_TABLE(TABLE=LAG1,
           NOM_PARA='LAGS_C',
           FILTRE=_F(NOM_PARA='NOEUD',
                      VALE_K='NS362',),
           VALE=-4.835E+4,
           CRITERE='RELATIF',
           PRECISION=1.0E-1,
           REFERENCE='AUTRE_ASTER',);

TEST_TABLE(TABLE=LAG1,
           NOM_PARA='LAGS_C',
           FILTRE=_F(NOM_PARA='NOEUD',
                      VALE_K='NS403',),
           VALE=-4.97E+4,
           CRITERE='RELATIF',
           PRECISION=1.0E-1,
           REFERENCE='AUTRE_ASTER',);
 
TEST_TABLE(TABLE=LAG1,
           NOM_PARA='LAGS_C',
           FILTRE=_F(NOM_PARA='NOEUD',
                      VALE_K='NS444',),
           VALE=-4.80E+4,
           CRITERE='RELATIF',
           PRECISION=1.0E-1,
           REFERENCE='AUTRE_ASTER',);               
 


LAG2=POST_RELEVE_T(ACTION=_F(INTITULE='DEPLE',
                            NOEUD=( 'NS283','NS281','NS284','NS287','NS319',
                                    'NS321','NS323','NS325','NS328','NS360',
                                    'NS362','NS364','NS366','NS369','NS401',
                                    'NS403','NS405','NS407','NS410','NS442','NS444',
                                    ),
                            RESULTAT=UTOT1,
                            NOM_CHAM='DEPL',
                            NUME_ORDRE=2,
                            NOM_CMP=('LAGS_C',),
                            OPERATION='EXTRACTION',),);
                            
IMPR_TABLE(TABLE=LAG2,
           FORMAT='AGRAF',
           FORMAT_R='1PE12.5',
           FORMAT_C='MODULE_PHASE',
           IMPR_FONCTION='NON',);  
 
TEST_TABLE(TABLE=LAG2,
           NOM_PARA='LAGS_C',
           FILTRE=_F(NOM_PARA='NOEUD',
                      VALE_K='NS283',),
           VALE=0.0,
           CRITERE='RELATIF',
           PRECISION=1.0E-1,
           REFERENCE='AUTRE_ASTER',);

TEST_TABLE(TABLE=LAG2,
           NOM_PARA='LAGS_C',
           FILTRE=_F(NOM_PARA='NOEUD',
                      VALE_K='NS321',),
           VALE=-5.07E+4,
           CRITERE='RELATIF',
           PRECISION=1.0E-1,
           REFERENCE='AUTRE_ASTER',);       

TEST_TABLE(TABLE=LAG2,
           NOM_PARA='LAGS_C',
           FILTRE=_F(NOM_PARA='NOEUD',
                      VALE_K='NS362',),
           VALE=-1.018E+5,
           CRITERE='RELATIF',
           PRECISION=1.0E-1,
           REFERENCE='AUTRE_ASTER',);

TEST_TABLE(TABLE=LAG2,
           NOM_PARA='LAGS_C',
           FILTRE=_F(NOM_PARA='NOEUD',
                      VALE_K='NS403',),
           VALE=-9.95E+4,
           CRITERE='RELATIF',
           PRECISION=1.0E-1,
           REFERENCE='AUTRE_ASTER',);
 
TEST_TABLE(TABLE=LAG2,
           NOM_PARA='LAGS_C',
           FILTRE=_F(NOM_PARA='NOEUD',
                      VALE_K='NS444',),
           VALE=-9.20E+4,
           CRITERE='RELATIF',
           PRECISION=1.0E-1,
           REFERENCE='AUTRE_ASTER',);    

LAG3=POST_RELEVE_T(ACTION=_F(INTITULE='DEPLE',
                            NOEUD=( 'NS283','NS281','NS284','NS287','NS319',
                                    'NS321','NS323','NS325','NS328','NS360',
                                    'NS362','NS364','NS366','NS369','NS401',
                                    'NS403','NS405','NS407','NS410','NS442','NS444',
                                    ),
                            RESULTAT=UTOT1,
                            NOM_CHAM='DEPL',
                            NUME_ORDRE=3,
                            NOM_CMP=('LAGS_C',),
                            OPERATION='EXTRACTION',),);
                            
IMPR_TABLE(TABLE=LAG3,
           FORMAT='AGRAF',
           FORMAT_R='1PE12.5',
           FORMAT_C='MODULE_PHASE',
           IMPR_FONCTION='NON',);

TEST_TABLE(TABLE=LAG3,
           NOM_PARA='LAGS_C',
           FILTRE=_F(NOM_PARA='NOEUD',
                      VALE_K='NS283',),
           VALE=0.0,
           CRITERE='RELATIF',
           PRECISION=1.0E-1,
           REFERENCE='AUTRE_ASTER',);

TEST_TABLE(TABLE=LAG3,
           NOM_PARA='LAGS_C',
           FILTRE=_F(NOM_PARA='NOEUD',
                      VALE_K='NS321',),
           VALE=0.0,
           CRITERE='RELATIF',
           PRECISION=1.0E-1,
           REFERENCE='AUTRE_ASTER',);       

TEST_TABLE(TABLE=LAG3,
           NOM_PARA='LAGS_C',
           FILTRE=_F(NOM_PARA='NOEUD',
                      VALE_K='NS362',),
           VALE=-1.689E+5,
           CRITERE='RELATIF',
           PRECISION=1.5E-1,
           REFERENCE='AUTRE_ASTER',);

TEST_TABLE(TABLE=LAG3,
           NOM_PARA='LAGS_C',
           FILTRE=_F(NOM_PARA='NOEUD',
                      VALE_K='NS403',),
           VALE=-1.508E+5,
           CRITERE='RELATIF',
           PRECISION=1.0E-1,
           REFERENCE='AUTRE_ASTER',);
 
TEST_TABLE(TABLE=LAG3,
           NOM_PARA='LAGS_C',
           FILTRE=_F(NOM_PARA='NOEUD',
                      VALE_K='NS444',),
           VALE=-1.280E+5,
           CRITERE='RELATIF',
           PRECISION=1.0E-1,
           REFERENCE='AUTRE_ASTER',);  

LAG4=POST_RELEVE_T(ACTION=_F(INTITULE='DEPLE',
                            NOEUD=( 'NS283','NS281','NS284','NS287','NS319',
                                    'NS321','NS323','NS325','NS328','NS360',
                                    'NS362','NS364','NS366','NS369','NS401',
                                    'NS403','NS405','NS407','NS410','NS442','NS444',
                                    ),
                            RESULTAT=UTOT1,
                            NOM_CHAM='DEPL',
                            NUME_ORDRE=4,
                            NOM_CMP=('LAGS_C',),
                            OPERATION='EXTRACTION',),);
                            
IMPR_TABLE(TABLE=LAG4,
           FORMAT='AGRAF',
           FORMAT_R='1PE12.5',
           FORMAT_C='MODULE_PHASE',
           IMPR_FONCTION='NON',);
           
TEST_TABLE(TABLE=LAG4,
           NOM_PARA='LAGS_C',
           FILTRE=_F(NOM_PARA='NOEUD',
                      VALE_K='NS283',),
           VALE=0.0,
           CRITERE='RELATIF',
           PRECISION=1.0E-1,
           REFERENCE='AUTRE_ASTER',);

TEST_TABLE(TABLE=LAG4,
           NOM_PARA='LAGS_C',
           FILTRE=_F(NOM_PARA='NOEUD',
                      VALE_K='NS321',),
           VALE=0.0,
           CRITERE='RELATIF',
           PRECISION=1.0E-1,
           REFERENCE='AUTRE_ASTER',);       

TEST_TABLE(TABLE=LAG4,
           NOM_PARA='LAGS_C',
           FILTRE=_F(NOM_PARA='NOEUD',
                      VALE_K='NS362',),
           VALE=-1.32E+5,
           CRITERE='RELATIF',
           PRECISION=1.0E-1,
           REFERENCE='AUTRE_ASTER',);

TEST_TABLE(TABLE=LAG4,
           NOM_PARA='LAGS_C',
           FILTRE=_F(NOM_PARA='NOEUD',
                      VALE_K='NS403',),
           VALE=-2.08E+5,
           CRITERE='RELATIF',
           PRECISION=1.0E-1,
           REFERENCE='AUTRE_ASTER',);
 
TEST_TABLE(TABLE=LAG4,
           NOM_PARA='LAGS_C',
           FILTRE=_F(NOM_PARA='NOEUD',
                      VALE_K='NS444',),
           VALE=-1.58E+5,
           CRITERE='RELATIF',
           PRECISION=1.0E-1,
           REFERENCE='AUTRE_ASTER',);  

           
MA_XFEM=POST_MAIL_XFEM(MAILLAGE_SAIN = MAILLAGE,
                       MODELE=MODELEK);
                                      
DEFI_FICHIER(UNITE=31);
IMPR_RESU(FORMAT='GMSH',UNITE=31,RESU=_F(MAILLAGE=MA_XFEM));

MOD_VISU=AFFE_MODELE(MAILLAGE=MA_XFEM,
                     AFFE=_F(TOUT='OUI',
                              PHENOMENE='MECANIQUE',
                              MODELISATION='D_PLAN',),) 

DEPL=POST_CHAM_XFEM(MAILLAGE_SAIN = MAILLAGE,
                    MAILLAGE_FISS=MA_XFEM,
                    MODELE=MODELEK,
                    MODELE_VISU   = MOD_VISU,
                    RESULTAT=UTOT1,
                    NOM_CHAM=('DEPL','SIEF_ELGA'),
                    ) 


DEFI_FICHIER(UNITE=32);

IMPR_RESU(FORMAT='GMSH',
          UNITE=32,
          RESU=_F(TYPE_CHAM='VECT_2D',
                  NOM_CHAM=('DEPL',),
                  NOM_CMP=('DX','DY',),
                  RESULTAT=DEPL));          

FIN();                  

