# ======================================================================
# COPYRIGHT (C) 1991 - 2016  EDF R&D                  WWW.CODE-ASTER.ORG
# THIS PROGRAM IS FREE SOFTWARE; YOU CAN REDISTRIBUTE IT AND/OR MODIFY
# IT UNDER THE TERMS OF THE GNU GENERAL PUBLIC LICENSE AS PUBLISHED BY
# THE FREE SOFTWARE FOUNDATION; EITHER VERSION 2 OF THE LICENSE, OR
# (AT YOUR OPTION) ANY LATER VERSION.
#
# THIS PROGRAM IS DISTRIBUTED IN THE HOPE THAT IT WILL BE USEFUL, BUT
# WITHOUT ANY WARRANTY; WITHOUT EVEN THE IMPLIED WARRANTY OF
# MERCHANTABILITY OR FITNESS FOR A PARTICULAR PURPOSE. SEE THE GNU
# GENERAL PUBLIC LICENSE FOR MORE DETAILS.
#
# YOU SHOULD HAVE RECEIVED A COPY OF THE GNU GENERAL PUBLIC LICENSE
# ALONG WITH THIS PROGRAM; IF NOT, WRITE TO EDF R&D CODE_ASTER,
#    1 AVENUE DU GENERAL DE GAULLE, 92141 CLAMART CEDEX, FRANCE.
# ======================================================================
#
# ********************************************************************
# ********************************************************************
#
# SOLUTION DE REFERENCE ISSUE DE WATANABE
#
# PLAQUE ENTAILLEE SOUMISE A DES CHARGES ET DECHARGES
# EN PLASTICITE
#
# ********************************************************************
# ********************************************************************

DEBUT(CODE=_F(NIV_PUB_WEB='INTERNET'),DEBUG=_F(SDVERI='OUI'))

M=LIRE_MAILLAGE(VERI_MAIL=_F(VERIF='OUI'),FORMAT='MED',   )

M=DEFI_GROUP(     reuse=M,        MAILLAGE=M,CREA_GROUP_NO=(
                          _F(
                                          GROUP_MA = 'AB'),
                          _F(
                                          GROUP_MA = 'DE')) )

MO=AFFE_MODELE(            MAILLAGE=M,
                                 AFFE=_F(  TOUT = 'OUI',
                                        PHENOMENE = 'MECANIQUE',
                                        MODELISATION = 'D_PLAN') )

SIGMF=DEFI_FONCTION(    NOM_PARA='EPSI',
                              VALE=(0.0023333,  480.2,
                                    0.01,       480.35778, ),
                           PROL_DROITE='LINEAIRE',
                          PROL_GAUCHE='LINEAIRE')

MA=DEFI_MATERIAU(            ELAS=_F(  E = 205800.,
                                        NU = 0.3,
                                        ALPHA = 0.0),
                             TRACTION=_F(  SIGM = SIGMF),
                              PRAGER=_F(C=0.))

CM=AFFE_MATERIAU(        MAILLAGE=M,
                                 AFFE=_F(  TOUT = 'OUI',
                                        MATER = MA,
                                        ) )

#
# ****************************************************************
#            CONDITIONS AUX LIMITES EN DEPLACEMENTS :
#          CONTINUITE ET SYMETRIE SUR L'INTERFACE DE : U2=0
#                                                 AB : U1=0
# ****************************************************************
#


CH=AFFE_CHAR_MECA(      MODELE=MO,DDL_IMPO=(
                          _F(  GROUP_NO = 'AB',  DX = 0.),
                          _F(  GROUP_NO = 'DE',        DY = 0.)),
                          PRES_REP=_F(  GROUP_MA = 'FA',  PRES = -196.)
                      )

#
# ****************************************************************
#             DEFINITION DES INSTANTS DE CALCUL
# ****************************************************************
#


L_INST=DEFI_LIST_REEL(          DEBUT=0.0,
                              INTERVALLE=_F(  JUSQU_A = 3.0,
                                            NOMBRE = 30)
#                                            NOMBRE = 60)
                           )

#
# ****************************************************************
#     RESOLUTION DU PROBLEME
# ****************************************************************
#


F=DEFI_FONCTION(      NOM_PARA='INST',
                        PROL_DROITE='LINEAIRE',
                       PROL_GAUCHE='LINEAIRE',
                               VALE=( 0.0,  0.0,
                                      0.5,  1.0,
                                      1.0,  0.0,
                                      1.5,  1.0,
                                      2.0,  0.0,
                                      2.5,  1.0,
                                      3.0,  0.0, )
                     )

DEFLIST =DEFI_LIST_INST(DEFI_LIST=_F(LIST_INST = L_INST),
                        ECHEC=_F(ACTION='DECOUPE',
                                 SUBD_METHODE='MANUEL',
                                 SUBD_PAS=2,
                                 SUBD_PAS_MINI = 0.001,),)


UP=STAT_NON_LINE(
                            MODELE=MO,
                        CHAM_MATER=CM,
                             EXCIT=_F(
                CHARGE = CH,
                FONC_MULT = F),
                         COMPORTEMENT=_F(
                RELATION = 'VMIS_ISOT_TRAC',
                DEFORMATION = 'PETIT'),
                         INCREMENT=_F(
                LIST_INST = DEFLIST,),
                         ARCHIVAGE=_F(
                LIST_INST = L_INST),
                            NEWTON=_F(
                MATRICE = 'TANGENTE',
                REAC_ITER = 1),
                       CONVERGENCE=_F(
                RESI_REFE_RELA=1.,
                SIGM_REFE     =4.8E-3,
             #   RESI_GLOB_RELA = 1.E-8,
                ITER_GLOB_MAXI = 8)
              )

UP=CALC_CHAMP(reuse=UP,CONTRAINTE=('SIGM_ELNO'),VARI_INTERNE=('VARI_ELNO'),RESULTAT=UP)


UP=CALC_CHAMP(reuse=UP,RESULTAT=UP,DEFORMATION=('EPSP_ELNO','EPSI_ELGA'))



UP2=STAT_NON_LINE(
                            MODELE=MO,
                        CHAM_MATER=CM,
                             EXCIT=_F(
                CHARGE = CH,
                FONC_MULT = F),
                         COMPORTEMENT=_F(
                RELATION = 'VMIS_ECMI_TRAC',
                DEFORMATION = 'PETIT'),
                         INCREMENT=_F(
                LIST_INST = DEFLIST),
                         ARCHIVAGE=_F(
                LIST_INST = L_INST),
                            NEWTON=_F(
                MATRICE = 'TANGENTE',
                REAC_ITER = 1),
                       CONVERGENCE=_F(
                RESI_REFE_RELA=1.,
                SIGM_REFE     =4.8E-3,
         #       RESI_GLOB_RELA = 1.E-8,
                ITER_GLOB_MAXI = 8)
              )

UP2=CALC_CHAMP(reuse=UP2,CONTRAINTE=('SIGM_ELNO'),VARI_INTERNE=('VARI_ELNO'),RESULTAT=UP2)


UP2=CALC_CHAMP(reuse=UP2,RESULTAT=UP2,DEFORMATION=('EPSP_ELNO','EPSI_ELGA'))

#############################################################
# CALCUL DE L ENERGIE TOTALE
#############################################################
ENER_TOT=POST_ELEM(     RESULTAT=UP,

                        ENER_TOTALE=_F(  TOUT = 'OUI')
                      )


ENER_TO2=POST_ELEM(     RESULTAT=UP2,

                        ENER_TOTALE=_F(  TOUT = 'OUI')
                      )

TEST_TABLE(CRITERE='RELATIF',
           VALE_CALC=1.11964729214,

           NOM_PARA='TOTALE',
           TABLE=ENER_TO2,
           FILTRE=_F(NOM_PARA='INST',
                     VALE=0.10000000000000001,),
           )

TEST_TABLE(CRITERE='RELATIF',
           PRECISION=5.0000000000000001E-3,
           VALE_CALC=1.35627716881,
           VALE_REFE=1.3604799999999999,
           REFERENCE='NON_DEFINI',
           NOM_PARA='TOTALE',
           TABLE=ENER_TO2,
           FILTRE=_F(NOM_PARA='INST',
                     VALE=0.90000000000000002,),
           )

TEST_TABLE(CRITERE='RELATIF',
           PRECISION=0.025000000000000001,
           VALE_CALC=0.263705180097,
           VALE_REFE=0.269534,
           REFERENCE='NON_DEFINI',
           NOM_PARA='TOTALE',
           TABLE=ENER_TO2,
           FILTRE=_F(NOM_PARA='INST',
                     VALE=2.0,),
           )

TEST_TABLE(CRITERE='RELATIF',
           PRECISION=0.025000000000000001,
           VALE_CALC=0.292706948506,
           VALE_REFE=0.29984100000000002,
           REFERENCE='NON_DEFINI',
           NOM_PARA='TOTALE',
           TABLE=ENER_TO2,
           FILTRE=_F(NOM_PARA='INST',
                     VALE=3.0,),
           )

# ****************************************************************
#     CALCUL DU TAUX DE RESTITUTION D'ENERGIE G SUR 4 COURONNES
# ****************************************************************
#

FISS=DEFI_FOND_FISS(MAILLAGE=M,
                    FOND_FISS=_F(GROUP_NO='D',),
                    SYME='OUI',
                    CONFIG_INIT='DECOLLEE',
                    NORMALE=(0.,1.,0.));



G1=CALC_G(
            RESULTAT=UP,
            THETA=_F(
                     DIRECTION=(1.,0.,0.,),
                     FOND_FISS=FISS,
                     MODULE=1.0,
                     R_INF=0.55,
                     R_SUP=1.0),
            OPTION='CALC_GTP',
             );


G2=CALC_G(
            RESULTAT=UP,
            THETA=_F(
                     DIRECTION=(1.,0.,0.,),
                     FOND_FISS=FISS,
                     MODULE=1.0,
                     R_INF=1.0,
                     R_SUP=1.5),
            OPTION='CALC_GTP',
             );

G3=CALC_G(
            RESULTAT=UP,
            THETA=_F(
                     DIRECTION=(1.,0.,0.,),
                     FOND_FISS=FISS,
                     MODULE=1.0,
                     R_INF=1.5,
                     R_SUP=2.0),
            OPTION='CALC_GTP',
             );

G4=CALC_G(
            RESULTAT=UP,
            THETA=_F(
                     DIRECTION=(1.,0.,0.,),
                     FOND_FISS=FISS,
                     MODULE=1.0,
                     R_INF=2.0,
                     R_SUP=3.0),
            OPTION='CALC_GTP',
             );

#
# ****************************************************************
#     TESTS DE G  POUR LES NUMEROS D'ORDRE 5,10,15,20,25 ET 30
# ****************************************************************
#



TEST_TABLE(PRECISION=0.035000000000000003,
           VALE_CALC=2.86058729214,
           VALE_REFE=2.7690000000000001,
           REFERENCE='NON_DEFINI',
           NOM_PARA='G',
           TABLE=G1,
           FILTRE=_F(NOM_PARA='NUME_ORDRE',
                     VALE_I=5,),
           )

TEST_TABLE(PRECISION=0.035000000000000003,
           VALE_CALC=2.86058854122,
           VALE_REFE=2.7690000000000001,
           REFERENCE='NON_DEFINI',
           NOM_PARA='G',
           TABLE=G2,
           FILTRE=_F(NOM_PARA='NUME_ORDRE',
                     VALE_I=5,),
           )

TEST_TABLE(PRECISION=0.035000000000000003,
           VALE_CALC=2.86076957789,
           VALE_REFE=2.7690000000000001,
           REFERENCE='NON_DEFINI',
           NOM_PARA='G',
           TABLE=G3,
           FILTRE=_F(NOM_PARA='NUME_ORDRE',
                     VALE_I=5,),
           )

TEST_TABLE(PRECISION=0.035000000000000003,
           VALE_CALC=2.8607782313,
           VALE_REFE=2.7690000000000001,
           REFERENCE='NON_DEFINI',
           NOM_PARA='G',
           TABLE=G4,
           FILTRE=_F(NOM_PARA='NUME_ORDRE',
                     VALE_I=5,),
           )

TEST_TABLE(PRECISION=0.050000000000000003,
           VALE_CALC=3.02605520742,
           VALE_REFE=3.1829999999999998,
           REFERENCE='NON_DEFINI',
           NOM_PARA='G',
           TABLE=G1,
           FILTRE=_F(NOM_PARA='NUME_ORDRE',
                     VALE_I=10,),
           )

TEST_TABLE(PRECISION=0.050000000000000003,
           VALE_CALC=3.03376427235,
           VALE_REFE=3.1829999999999998,
           REFERENCE='NON_DEFINI',
           NOM_PARA='G',
           TABLE=G2,
           FILTRE=_F(NOM_PARA='NUME_ORDRE',
                     VALE_I=10,),
           )

TEST_TABLE(PRECISION=0.050000000000000003,
           VALE_CALC=3.03380840911,
           VALE_REFE=3.1829999999999998,
           REFERENCE='NON_DEFINI',
           NOM_PARA='G',
           TABLE=G3,
           FILTRE=_F(NOM_PARA='NUME_ORDRE',
                     VALE_I=10,),
           )

TEST_TABLE(PRECISION=0.050000000000000003,
           VALE_CALC=3.03381227675,
           VALE_REFE=3.1829999999999998,
           REFERENCE='NON_DEFINI',
           NOM_PARA='G',
           TABLE=G4,
           FILTRE=_F(NOM_PARA='NUME_ORDRE',
                     VALE_I=10,),
           )

TEST_TABLE(PRECISION=0.02,
           VALE_CALC=4.26740141324,
           VALE_REFE=4.2759999999999998,
           REFERENCE='NON_DEFINI',
           NOM_PARA='G',
           TABLE=G1,
           FILTRE=_F(NOM_PARA='NUME_ORDRE',
                     VALE_I=15,),
           )

TEST_TABLE(PRECISION=0.02,
           VALE_CALC=4.26740404048,
           VALE_REFE=4.2759999999999998,
           REFERENCE='NON_DEFINI',
           NOM_PARA='G',
           TABLE=G2,
           FILTRE=_F(NOM_PARA='NUME_ORDRE',
                     VALE_I=15,),
           )

TEST_TABLE(PRECISION=0.02,
           VALE_CALC=4.26758542527,
           VALE_REFE=4.2759999999999998,
           REFERENCE='NON_DEFINI',
           NOM_PARA='G',
           TABLE=G3,
           FILTRE=_F(NOM_PARA='NUME_ORDRE',
                     VALE_I=15,),
           )

TEST_TABLE(PRECISION=0.02,
           VALE_CALC=4.26759408067,
           VALE_REFE=4.2759999999999998,
           REFERENCE='NON_DEFINI',
           NOM_PARA='G',
           TABLE=G4,
           FILTRE=_F(NOM_PARA='NUME_ORDRE',
                     VALE_I=15,),
           )

TEST_TABLE(PRECISION=0.050000000000000003,
           VALE_CALC=4.43063704088,
           VALE_REFE=4.6509999999999998,
           REFERENCE='NON_DEFINI',
           NOM_PARA='G',
           TABLE=G1,
           FILTRE=_F(NOM_PARA='NUME_ORDRE',
                     VALE_I=20,),
           )

TEST_TABLE(PRECISION=0.050000000000000003,
           VALE_CALC=4.43845506746,
           VALE_REFE=4.6509999999999998,
           REFERENCE='NON_DEFINI',
           NOM_PARA='G',
           TABLE=G2,
           FILTRE=_F(NOM_PARA='NUME_ORDRE',
                     VALE_I=20,),
           )

TEST_TABLE(PRECISION=0.050000000000000003,
           VALE_CALC=4.4384996207,
           VALE_REFE=4.6509999999999998,
           REFERENCE='NON_DEFINI',
           NOM_PARA='G',
           TABLE=G3,
           FILTRE=_F(NOM_PARA='NUME_ORDRE',
                     VALE_I=20,),
           )

TEST_TABLE(PRECISION=0.050000000000000003,
           VALE_CALC=4.43850354292,
           VALE_REFE=4.6509999999999998,
           REFERENCE='NON_DEFINI',
           NOM_PARA='G',
           TABLE=G4,
           FILTRE=_F(NOM_PARA='NUME_ORDRE',
                     VALE_I=20,),
           )

TEST_TABLE(PRECISION=0.029999999999999999,
           VALE_CALC=5.63737776276,
           VALE_REFE=5.6909999999999998,
           REFERENCE='NON_DEFINI',
           NOM_PARA='G',
           TABLE=G1,
           FILTRE=_F(NOM_PARA='NUME_ORDRE',
                     VALE_I=25,),
           )

TEST_TABLE(PRECISION=0.029999999999999999,
           VALE_CALC=5.6373804683,
           VALE_REFE=5.6909999999999998,
           REFERENCE='NON_DEFINI',
           NOM_PARA='G',
           TABLE=G2,
           FILTRE=_F(NOM_PARA='NUME_ORDRE',
                     VALE_I=25,),
           )

TEST_TABLE(PRECISION=0.029999999999999999,
           VALE_CALC=5.63756206791,
           VALE_REFE=5.6909999999999998,
           REFERENCE='NON_DEFINI',
           NOM_PARA='G',
           TABLE=G3,
           FILTRE=_F(NOM_PARA='NUME_ORDRE',
                     VALE_I=25,),
           )

TEST_TABLE(PRECISION=0.029999999999999999,
           VALE_CALC=5.63757072087,
           VALE_REFE=5.6909999999999998,
           REFERENCE='NON_DEFINI',
           NOM_PARA='G',
           TABLE=G4,
           FILTRE=_F(NOM_PARA='NUME_ORDRE',
                     VALE_I=25,),
           )

TEST_TABLE(PRECISION=0.050000000000000003,
           VALE_CALC=5.81347699496,
           VALE_REFE=6.0519999999999996,
           REFERENCE='NON_DEFINI',
           NOM_PARA='G',
           TABLE=G1,
           FILTRE=_F(NOM_PARA='NUME_ORDRE',
                     VALE_I=30,),
           )

TEST_TABLE(PRECISION=0.050000000000000003,
           VALE_CALC=5.82135118115,
           VALE_REFE=6.0519999999999996,
           REFERENCE='NON_DEFINI',
           NOM_PARA='G',
           TABLE=G2,
           FILTRE=_F(NOM_PARA='NUME_ORDRE',
                     VALE_I=30,),
           )

TEST_TABLE(PRECISION=0.050000000000000003,
           VALE_CALC=5.82139592159,
           VALE_REFE=6.0519999999999996,
           REFERENCE='NON_DEFINI',
           NOM_PARA='G',
           TABLE=G3,
           FILTRE=_F(NOM_PARA='NUME_ORDRE',
                     VALE_I=30,),
           )

TEST_TABLE(PRECISION=0.050000000000000003,
           VALE_CALC=5.82139986865,
           VALE_REFE=6.0519999999999996,
           REFERENCE='NON_DEFINI',
           NOM_PARA='G',
           TABLE=G4,
           FILTRE=_F(NOM_PARA='NUME_ORDRE',
                     VALE_I=30,),
           )

FIN()
#
