# MODIF  DATE 10/10/2012   AUTEUR COURTOIS M.COURTOIS 
# TITRE FISSURATION INTERFACE 2D PLAN (QUAD8), LOI CZM_FAT_MIX
# ssnp118j.para = tps_job 60 mem_job 512Mo ncpus 1 liste_test S
#            CONFIGURATION MANAGEMENT OF EDF VERSION
# ======================================================================
# COPYRIGHT (C) 1991 - 2012  EDF R&D                  WWW.CODE-ASTER.ORG
# THIS PROGRAM IS FREE SOFTWARE; YOU CAN REDISTRIBUTE IT AND/OR MODIFY  
# IT UNDER THE TERMS OF THE GNU GENERAL PUBLIC LICENSE AS PUBLISHED BY  
# THE FREE SOFTWARE FOUNDATION; EITHER VERSION 2 OF THE LICENSE, OR     
# (AT YOUR OPTION) ANY LATER VERSION.                                                    
#                                                                       
# THIS PROGRAM IS DISTRIBUTED IN THE HOPE THAT IT WILL BE USEFUL, BUT   
# WITHOUT ANY WARRANTY; WITHOUT EVEN THE IMPLIED WARRANTY OF            
# MERCHANTABILITY OR FITNESS FOR A PARTICULAR PURPOSE. SEE THE GNU      
# GENERAL PUBLIC LICENSE FOR MORE DETAILS.                              
#                                                                       
# YOU SHOULD HAVE RECEIVED A COPY OF THE GNU GENERAL PUBLIC LICENSE     
# ALONG WITH THIS PROGRAM; IF NOT, WRITE TO EDF R&D CODE_ASTER,         
#    1 AVENUE DU GENERAL DE GAULLE, 92141 CLAMART CEDEX, FRANCE.        
# ======================================================================
 
DEBUT(CODE=_F(NOM='SSNP118J', NIV_PUB_WEB='INTERNET', VISU_EFICAS='OUI'), DEBUG=_F(SDVERI='NON'))

tfin=11
nbpas=5*tfin
nbarch=nbpas

Gc = 0.9
Sc = 9
young  = 100
dc = 2*Gc/Sc

val_inf = 0.0
val_sup = 1
ampl=0.094


MA=LIRE_MAILLAGE()

MO=AFFE_MODELE(

                MAILLAGE=MA,
                VERIF='MAILLE',

                AFFE= (
                _F(
                   MAILLE = ('CUBE','DROITE'),
                   PHENOMENE = 'MECANIQUE',
                   MODELISATION = 'D_PLAN'
                     ),
                 _F(
                   MAILLE = 'CUBEDEG',
                   PHENOMENE = 'MECANIQUE',
                   MODELISATION = 'PLAN_INTERFACE_S'
                   )
                 )
              )


MAT=DEFI_MATERIAU(

     ELAS=_F(
              E =  young,
              NU = 0.0),
     RUPT_FRAG = _F(
                     GC = Gc,
                     SIGM_C = Sc,
                     PENA_LAGR = 100,
                     RIGI_GLIS = 10,    
                    )
            )


CM=AFFE_MATERIAU(

               MAILLAGE=MA,
               AFFE=_F(
                       TOUT = 'OUI',
                       MATER = MAT),
              )

# AFFECTATION DES ANGLES NAUTIQUES : POSITION DE LA FISSURE DANS LE REPERE GLOBAL

ORIEN_FI=AFFE_CARA_ELEM(MODELE=MO,INFO=2,
                     MASSIF=(
           _F(MAILLE='CUBEDEG',ANGL_REP=(30,0,0)),         
                                 ));


LIAISON=AFFE_CHAR_MECA(
  MODELE=MO,
  FACE_IMPO= (
    _F(MAILLE='GAUCHE2', DX=0, DY=0),
    )
  )


# CHARGEMENT MODE I PUR
TRAC_N=AFFE_CHAR_MECA(
  MODELE=MO,
  FACE_IMPO= (
    _F(MAILLE='DROITE', DX=ampl*0.86602540378444 , DY= ampl*0.5), 
    )
  )

L_INST=DEFI_LIST_REEL(

                     DEBUT   = -1.,
     INTERVALLE=(
      _F( JUSQU_A = 0,       NOMBRE = 1 ),
      _F( JUSQU_A = tfin,    NOMBRE = nbpas ),
      )
     )
     
INS_ARCH=DEFI_LIST_REEL(

                     DEBUT   = -1.,
     INTERVALLE=(
      _F( JUSQU_A = 0,       NOMBRE = 1 ),
      _F( JUSQU_A = tfin,    NOMBRE = nbarch ),
      )
     )

a = []
for i in xrange(1001) :
  a.extend((2*i,val_inf,2*i+1,val_sup))

FCT = DEFI_FONCTION(
  NOM_PARA = 'INST',
  VALE     = a
  )

DEFLIST =DEFI_LIST_INST(DEFI_LIST=_F(LIST_INST =L_INST ),
                        ECHEC=_F(ACTION='DECOUPE',
                                 SUBD_METHODE='MANUEL',
                                 SUBD_PAS     = 4,
                                 SUBD_NIVEAU  = 5,
                                ))

#----------------------------------------------------------------------------------
# CALCUL AVEC CHARGEMENT EN MODE I AVEC LOI CZM_FAT_MIX
#-----------------------------------------------------------------------------------

U_FAT=STAT_NON_LINE(
  MODELE     = MO,
  CHAM_MATER = CM,
  CARA_ELEM  = ORIEN_FI,
  EXCIT      = (
    _F(CHARGE = LIAISON ),
    _F(CHARGE = TRAC_N, FONC_MULT = FCT),
  ),
  COMP_INCR  = (
          _F(RELATION = 'CZM_FAT_MIX',  MAILLE = 'CUBEDEG'),
          _F(RELATION = 'ELAS',         MAILLE = 'CUBE'),
          ),
  INCREMENT = _F(
    LIST_INST    = DEFLIST,
    INST_FIN     = tfin,
    ),
  CONVERGENCE = _F(
    RESI_REFE_RELA = 1.E-6,
    SIGM_REFE      = Sc,
    DEPL_REFE      = dc,
    ITER_GLOB_MAXI = 5,
    ),
  SOLVEUR = _F(METHODE = 'MUMPS'),
  NEWTON     = _F(MATRICE = 'TANGENTE', REAC_ITER=1),
  ARCHIVAGE = _F(LIST_INST = INS_ARCH),
  )


#---------------------------------------------------------------------------------- 
# TESTS CALCUL MODE I AVEC LOI CZM_FAT_MIX
#-----------------------------------------------------------------------------------


TEST_RESU(RESU=_F(INST=3.0,
                  REFERENCE='ANALYTIQUE',
                  POINT=1,
                  RESULTAT=U_FAT,
                  NOM_CHAM='SIEF_ELGA',
                  NOM_CMP='SIXX',
                  VALE_CALC=6.058264463,
                  VALE_REFE=6.0582599999999998,
                  MAILLE='CUBE',),
          )

TEST_RESU(RESU=_F(INST=9.0,
                  REFERENCE='ANALYTIQUE',
                  POINT=1,
                  RESULTAT=U_FAT,
                  NOM_CHAM='SIEF_ELGA',
                  NOM_CMP='SIGN',
                  VALE_CALC=1.452207065,
                  VALE_REFE=1.45221,
                  MAILLE='CUBEDEG',),
          )

TEST_RESU(RESU=_F(INST=9.0,
                  REFERENCE='ANALYTIQUE',
                  RESULTAT=U_FAT,
                  NOM_CHAM='DEPL',
                  NOEUD='NS6',
                  NOM_CMP='SIGN',
                  VALE_CALC=1.452207065,
                  VALE_REFE=1.45221,),
          )

TEST_RESU(RESU=_F(INST=7.0,
                  REFERENCE='ANALYTIQUE',
                  POINT=1,
                  RESULTAT=U_FAT,
                  NOM_CHAM='SIEF_ELGA',
                  NOM_CMP='SITX',
                  VALE_CALC=-5.72145863E-15,
                  VALE_REFE=0.0,
                  CRITERE='ABSOLU',
                  MAILLE='CUBEDEG',),
          )

TEST_RESU(RESU=_F(INST=3.0,
                  REFERENCE='ANALYTIQUE',
                  POINT=1,
                  RESULTAT=U_FAT,
                  NOM_CHAM='VARI_ELGA',
                  NOM_CMP='V1',
                  VALE_CALC=0.020495868,
                  VALE_REFE=0.020495900000000001,
                  MAILLE='CUBEDEG',),
          )

TEST_RESU(RESU=_F(INST=3.0,
                  REFERENCE='ANALYTIQUE',
                  POINT=2,
                  RESULTAT=U_FAT,
                  NOM_CHAM='VARI_ELGA',
                  NOM_CMP='V4',
                  VALE_CALC=0.194456663,
                  VALE_REFE=0.19445699999999999,
                  MAILLE='CUBEDEG',),
          )

FIN(FORMAT_HDF='OUI')
