# person_in_charge: jean-michel.proix at edf.fr
# TITRE DIFFUSION H2 DANS UN ACIER ELASTOPLASTIQUE 2D CPLAN
# ======================================================================
# COPYRIGHT (C) 1991 - 2015  EDF R&D                  WWW.CODE-ASTER.ORG
# THIS PROGRAM IS FREE SOFTWARE; YOU CAN REDISTRIBUTE IT AND/OR MODIFY
# IT UNDER THE TERMS OF THE GNU GENERAL PUBLIC LICENSE AS PUBLISHED BY
# THE FREE SOFTWARE FOUNDATION; EITHER VERSION 2 OF THE LICENSE, OR
# (AT YOUR OPTION) ANY LATER VERSION.
#
# THIS PROGRAM IS DISTRIBUTED IN THE HOPE THAT IT WILL BE USEFUL, BUT
# WITHOUT ANY WARRANTY; WITHOUT EVEN THE IMPLIED WARRANTY OF
# MERCHANTABILITY OR FITNESS FOR A PARTICULAR PURPOSE. SEE THE GNU
# GENERAL PUBLIC LICENSE FOR MORE DETAILS.
#
# YOU SHOULD HAVE RECEIVED A COPY OF THE GNU GENERAL PUBLIC LICENSE
# ALONG WITH THIS PROGRAM; IF NOT, WRITE TO EDF R&D CODE_ASTER,
#    1 AVENUE DU GENERAL DE GAULLE, 92141 CLAMART CEDEX, FRANCE.
# ======================================================================

DEBUT(CODE=_F(NIV_PUB_WEB='INTERNET',VISU_EFICAS='NON',));

##############
# appel du fichier contenant la macro de calcul du chargement pour la diffusion H2
##############

from Contrib.diffusion_H2 import CHAR_SOURCE
from Contrib.diffusion_H2 import CHAMP_DETOILE
from Contrib.diffusion_H2 import CHAR_GRAD_IMPO
from Contrib.diffusion_H2 import CHAR_GRAD_INI
import numpy as NP

#......................................................................
# PLAQUE CARREE 2D CONTRAINTES PLANES
# ELASTOPLASTICITE ISOTROPE VON MISES   (1 QUAD4) + DIFFUSION H2
#......................................................................

MA=LIRE_MAILLAGE();

MO=AFFE_MODELE(MAILLAGE=MA,
               
               AFFE=_F(TOUT='OUI',
                       PHENOMENE='MECANIQUE',
                       MODELISATION='C_PLAN',),);

#m, Pa, s

Sy=2.E8
E=2.E11
H=2.E9

ACIER=DEFI_MATERIAU(ELAS=_F(E=E,
                            NU=0.3,),
                    ECRO_LINE=_F(D_SIGM_EPSI=H,
                                 SY=Sy,),
                    );

CM=AFFE_MATERIAU(MAILLAGE=MA,
                 AFFE=_F(TOUT='OUI',
                         MATER=ACIER,),);






TRACTION=AFFE_CHAR_MECA(MODELE=MO,
                        FORCE_CONTOUR=_F(MAILLE='GAUCHE',
                                         FX=-1.,),);

LIAISON=AFFE_CHAR_MECA(MODELE=MO,
                       DDL_IMPO=(_F(NOEUD='NO4',
                                    DX=0.,
                                    DY=0.,),
                                 _F(NOEUD='NO2',
                                    DX=0.,),),);

NBPAS=100

tfin1=1.e7
tfin2=2.e7

dt = (tfin2-tfin1)/NBPAS


SIGMA_F=DEFI_FONCTION(NOM_PARA='INST',VALE=(0.0,0.0,
                            tfin1,Sy,
                            tfin2,3.*Sy,
                            ),PROL_DROITE='EXCLU',PROL_GAUCHE='EXCLU',);

L_INST=DEFI_LIST_REEL(DEBUT=0.0,
                      INTERVALLE=(_F(JUSQU_A=tfin1,
                                     NOMBRE=1,),
                                  _F(JUSQU_A=tfin2,
                                     NOMBRE=NBPAS,),
                                     ),);
epsp1=0.
UM=STAT_NON_LINE(MODELE=MO,
                CHAM_MATER=CM,
                EXCIT=(_F(CHARGE=LIAISON,),
                       _F(CHARGE=TRACTION,
                          FONC_MULT=SIGMA_F,),
                          ),
                COMPORTEMENT=_F(RELATION='VMIS_ISOT_LINE',),
                INCREMENT=_F(LIST_INST=L_INST,INST_FIN=tfin1),
                NEWTON=_F(MATRICE='TANGENTE',REAC_ITER=1,),
                )

###################################################################
# initialisation du calcul de diffusion

MOTH=AFFE_MODELE(MAILLAGE=MA,AFFE=_F(TOUT='OUI',PHENOMENE='THERMIQUE',MODELISATION='PLAN_DIAG',),);

# Dl en m**2/s
Dl=1.27E-8
# concentrations initales en H2
Cl0=2.08E21
Ct0=8.42e20
Ctot0=Cl0+Ct0
Cl=Cl0/Ctot0

Nl=5.1e29
Kt=NP.exp(60000./8.3144/293.)
a1=23.26
a2=-2.33
a3=-5.5
Vh=2.e-6
R=8.3144
T=293.


ACIERTH0=DEFI_MATERIAU(THER=_F(LAMBDA=Dl, RHO_CP=1.));

CMTH0=AFFE_MATERIAU(MAILLAGE=MA,AFFE=_F(TOUT='OUI',MATER=ACIERTH0,),);

CHTH0=AFFE_CHAR_THER(MODELE=MOTH,TEMP_IMPO=_F(TOUT='OUI',TEMP=Cl),)

UTH=THER_LINEAIRE(MODELE=MOTH,CHAM_MATER=CMTH0,
                  INCREMENT=_F(LIST_INST = L_INST, INST_FIN=tfin1),
                  EXCIT=_F(CHARGE=CHTH0,),
                  ETAT_INIT=_F( VALE = Cl) ,
                  );

CHARGRD0=CHAR_GRAD_INI(RESU_H2=UTH,DIME=2,GRMAVOL='CUBE_G',)

tinit=tfin1

# Pour tester la possibilite d'utiliser une variable de commande pour THER_FO / LAMBDA et RHO_CP :
# Remarque : pour LAMBDA, NEUT1 n'a en realite aucune influence sur la fonction.
RHOCP  = DEFI_FONCTION(NOM_PARA='NEUT1',VALE=(0.,0.,1.,1.), PROL_DROITE='LINEAIRE')
LAMBDA = FORMULE(NOM_PARA=('NEUT1',),VALE='Dl + 0.0*NEUT1')
ACIERTH=DEFI_MATERIAU(THER_FO=_F(LAMBDA=LAMBDA, RHO_CP=RHOCP));


for k in range(1,NBPAS+1):

   tfin = tinit + dt

   UM=STAT_NON_LINE(MODELE=MO,
                ETAT_INIT=_F(EVOL_NOLI=UM),reuse=UM,
                CHAM_MATER=CM,
                EXCIT=(_F(CHARGE=LIAISON,),
                       _F(CHARGE=TRACTION,
                          FONC_MULT=SIGMA_F,),
                          ),
                COMPORTEMENT=_F(RELATION='VMIS_ISOT_LINE',),
                INCREMENT=_F(LIST_INST=L_INST,INST_FIN=tfin),
                NEWTON=_F(MATRICE='TANGENTE',REAC_ITER=1,),
                )

   # appel de la macro calculant le chargement source

   CHTH=CHAR_SOURCE(RESU_H2=UTH, RESUMECA=UM, TINIT=tinit, TFIN= tfin, DIME=2,
                     GRMAVOL='CUBE_G', Ctot0=Ctot0, INFO=2)


   # appel de la fonction python calculant le gradient impose
   CHAR_GRAD_IMPO(RESU_H2=UTH, RESUMECA=UM, TINIT=tinit, TFIN= tfin, DIME=2,
                        GRMAVOL='CUBE_G', Ctot0=Ctot0,CHARGRD0=CHARGRD0,INFO=2 )

   #construire le champ de NEUT1
   NEUTG=CHAMP_DETOILE(RESU_H2=UTH,RESUMECA=UM,TINIT=tinit,TFIN= tfin,DIME=2,GRMAVOL='CUBE_G',Ctot0=Ctot0, INFO=2)

   CMTH=AFFE_MATERIAU(MAILLAGE=MA,INFO=1,
                      AFFE=_F(GROUP_MA='CUBE_G',MATER=ACIERTH,),
                         AFFE_VARC=(_F(GROUP_MA='CUBE_G',
                                      CHAM_GD=NEUTG,
                                      NOM_VARC='NEUT1'),),
                      );
   UTH=THER_LINEAIRE(MODELE=MOTH,
                   CHAM_MATER=CMTH,
                   INCREMENT=_F(  LIST_INST = L_INST, INST_FIN=tfin),
                   EXCIT=(
                   _F(CHARGE=CHTH,),
                   _F(CHARGE=CHARGRD0,),
                   ),
                   ETAT_INIT=_F( EVOL_THER = UTH,), reuse=UTH,
                   );
   tinit = tfin

   DETRUIRE(INFO=1,CONCEPT=_F(NOM=(CHTH,NEUTG,CMTH)))



# comparaison a la solution analystique

CL2=RECU_FONCTION(RESULTAT=UTH,
                 NOM_CHAM='TEMP',
                 NOM_CMP='TEMP',
                 NOEUD='NO2',
                  );

P1=RECU_FONCTION(RESULTAT=UM,
                 NOM_CHAM='VARI_ELGA',
                 NOM_CMP='V1',
                 MAILLE='CUBE',
                 POINT=1,
                  );

CTOT=DEFI_FONCTION(NOM_PARA='INST',VALE=(0.0,1.,tfin2,1.));

CT2=CALC_FONCTION(COMB=(
                  _F(FONCTION=CL2,COEF=-1.),
                  _F(FONCTION=CTOT,COEF=1.),
                  ))

def NT(epsp) :
   import numpy as NP
   lnt = a1+a2*NP.exp(a3*epsp)
   Nt=10**(lnt)
   return Nt

def Ctana(EPSI) :
#   Nl=5.1E29
#   Kt=exp(60000./8.3144/293)
   a=(Nl/Kt/Ctot0 + 1. + NT(EPSI)/Ctot0)
   cta=a - sqrt (a**2 - 4*NT(EPSI)/Ctot0 )
   cta=cta/2.
   return cta

Ct_ana = FORMULE(VALE='Ctana(EPSI)', NOM_PARA=('EPSI'),);

LT=DEFI_LIST_REEL(DEBUT=0.0,
                  INTERVALLE=_F(JUSQU_A=0.2,
                                PAS=0.0001,),);

Cta=CALC_FONC_INTERP(FONCTION=Ct_ana,
                     LIST_PARA=LT,
                     NOM_PARA='EPSI',
                     INTERPOL='LIN',);



IMPR_FONCTION(FORMAT='XMGRACE',#PILOTE='INTERACTIF',
              UNITE=38,
              COURBE=(
              _F(FONC_X=P1, FONC_Y=CL2,LEGENDE='Cl/Ctot'),
              _F(FONC_X=P1, FONC_Y=CT2,LEGENDE='Ct/Ctot'),
              _F(FONCTION=Cta,LEGENDE='Ct_a/Ctot'),
                        ),
              LEGENDE_X='p',
              LEGENDE_Y='Cl',);

# test de Ct calule par rapport a la solution analytique

TEST_FONCTION(VALEUR=(_F(VALE_CALC=0.0197999999413,
                         VALE_REFE=0.019800000000000002,
                         VALE_PARA=1.1000000E7,
                         REFERENCE='ANALYTIQUE',
                         NOM_PARA='INST',
                         FONCTION=P1,),
                      _F(VALE_CALC=0.506197134444,
                         VALE_REFE=0.50576810000000005,
                         VALE_PARA=1.1000000E7,
                         REFERENCE='ANALYTIQUE',
                         NOM_PARA='INST',
                         FONCTION=CT2,),
                      _F(VALE_CALC=0.0296999999422,
                         VALE_REFE=0.029700000000000001,
                         VALE_PARA=1.1500000E7,
                         REFERENCE='ANALYTIQUE',
                         NOM_PARA='INST',
                         FONCTION=P1,),
                      _F(VALE_CALC=0.653435756704,
                         VALE_REFE=0.65217605000000001,
                         VALE_PARA=1.1500000E7,
                         REFERENCE='ANALYTIQUE',
                         PRECISION=3.0000000000000001E-3,
                         NOM_PARA='INST',
                         FONCTION=CT2,),
                      _F(VALE_CALC=0.0395999999436,
                         VALE_REFE=0.039600000000000003,
                         VALE_PARA=1.2000000E7,
                         REFERENCE='ANALYTIQUE',
                         NOM_PARA='INST',
                         FONCTION=P1,),
                      _F(VALE_CALC=0.826433827405,
                         VALE_REFE=0.82390253999999996,
                         VALE_PARA=1.2000000E7,
                         REFERENCE='ANALYTIQUE',
                         PRECISION=4.0000000000000001E-3,
                         NOM_PARA='INST',
                         FONCTION=CT2,),
                      _F(VALE_CALC=0.0494999999453,
                         VALE_REFE=0.049500000000000002,
                         VALE_PARA=1.2500000E7,
                         REFERENCE='ANALYTIQUE',
                         NOM_PARA='INST',
                         FONCTION=P1,),
                      _F(VALE_CALC=0.97247464141,
                         VALE_REFE=0.96401155999999999,
                         VALE_PARA=1.2500000E7,
                         REFERENCE='ANALYTIQUE',
                         PRECISION=1.E-2,
                         NOM_PARA='INST',
                         FONCTION=CT2,),
                      _F(VALE_CALC=0.0593999999474,
                         VALE_REFE=0.059400000000000001,
                         VALE_PARA=1.3000000E7,
                         REFERENCE='ANALYTIQUE',
                         NOM_PARA='INST',
                         FONCTION=P1,),
                      _F(VALE_CALC=0.991989773099,
                         VALE_REFE=0.98936088,
                         VALE_PARA=1.3000000E7,
                         REFERENCE='ANALYTIQUE',
                         PRECISION=4.0000000000000001E-3,
                         NOM_PARA='INST',
                         FONCTION=CT2,),
                      _F(VALE_CALC=0.100979999957,
                         VALE_REFE=0.10098,
                         VALE_PARA=1.5100000E7,
                         REFERENCE='ANALYTIQUE',
                         NOM_PARA='INST',
                         FONCTION=P1,),
                      _F(VALE_CALC=0.998469200294,
                         VALE_REFE=0.99807477,
                         VALE_PARA=1.5100000E7,
                         REFERENCE='ANALYTIQUE',
                         NOM_PARA='INST',
                         FONCTION=CT2,),
                      _F(VALE_CALC=0.197999999975,
                         VALE_REFE=0.19800000000000001,
                         VALE_PARA=2.E7,
                         REFERENCE='ANALYTIQUE',
                         NOM_PARA='INST',
                         FONCTION=P1,),
                      _F(VALE_CALC=0.99967971996,
                         VALE_REFE=0.99962819000000003,
                         VALE_PARA=2.E7,
                         REFERENCE='ANALYTIQUE',
                         NOM_PARA='INST',
                         FONCTION=CT2,),
                      ),
              )

FIN();
