# MODIF  DATE 30/07/2012   AUTEUR LEFEBVRE J-P.LEFEBVRE 
# TITRE POUTRE DCB 2D PLASTIQUE AVEC ELEMENTS D'INTERFACE EN FATIGUE : LOI CZM_FAT_MIX
# ssnp139b.para = tps_job 500 mem_job 512Mo ncpus 1 liste_test S
#            CONFIGURATION MANAGEMENT OF EDF VERSION
# ======================================================================
# COPYRIGHT (C) 1991 - 2012  EDF R&D                  WWW.CODE-ASTER.ORG
# THIS PROGRAM IS FREE SOFTWARE; YOU CAN REDISTRIBUTE IT AND/OR MODIFY
# IT UNDER THE TERMS OF THE GNU GENERAL PUBLIC LICENSE AS PUBLISHED BY
# THE FREE SOFTWARE FOUNDATION; EITHER VERSION 2 OF THE LICENSE, OR
# (AT YOUR OPTION) ANY LATER VERSION.
#
# THIS PROGRAM IS DISTRIBUTED IN THE HOPE THAT IT WILL BE USEFUL, BUT
# WITHOUT ANY WARRANTY; WITHOUT EVEN THE IMPLIED WARRANTY OF
# MERCHANTABILITY OR FITNESS FOR A PARTICULAR PURPOSE. SEE THE GNU
# GENERAL PUBLIC LICENSE FOR MORE DETAILS.
#
# YOU SHOULD HAVE RECEIVED A COPY OF THE GNU GENERAL PUBLIC LICENSE
# ALONG WITH THIS PROGRAM; IF NOT, WRITE TO EDF R&D CODE_ASTER,
#    1 AVENUE DU GENERAL DE GAULLE, 92141 CLAMART CEDEX, FRANCE.
# ======================================================================

DEBUT(CODE=_F( NOM = 'SSNP139B',NIV_PUB_WEB='INTERNET'))

# DEFINITION DES LOIS DE COMPORTEMENT DE LA DCB ET DE LA FISSURE
loi_vol='VMIS_ISOT_LINE'
loi_czm='CZM_FAT_MIX'

# INSTANT FINAL (IMPAIRE ET INFERIEUR A 2*nb_cy_max-1)
tfin=5

# NOMBRES DE CYCLES MAX
nb_cy_max= 101

# NOMBRES DE PAS PAR INSTANT
nbpas = 5*tfin

# ON ARCHIVE LES SOMMETS
nbarch = (tfin-1)/2

# VALEURS DE LA FONCTION DE CHARGEMENT
delta_U = 0.4
val_inf = 0.0
val_sup = val_inf + delta_U
val_surch = 1.2

# NUM DE CYCLE POUR CHANGEMENT AMPLITUDE VARIABLE
# l'instant 2*x correspond au zero du chargement de part et d'autre des deux pic differents)
# pour faire une surgage (cycle mettre : nb_cy_1 = x, nb_cy_2 = x+1 , nb_cy_3=... ,
# la surcharge a lieu a l'instant 2*x+1)
nb_cy_1=11
nb_cy_2=12
nb_cy_3=nb_cy_max

# PARAMETRES MECANIQUES DE LA LOI CZM (valeurs tests)
tenac=0.259/2
sigc=35
dc=2*tenac/sigc

# PARAMETRES NUMERIQUES DE LA LOI CZM
ri_gli=10
pen_lag=100

# PARAMETRES DE LA LOI ELASTOPLASTIQUE (valeurs tests)
young = 200000
nnuu = 0.3
splas = 30
ecrou = 3577


PRE_GMSH()
MA0  =  LIRE_MAILLAGE()

MA = CREA_MAILLAGE(MAILLAGE  = MA0, LINE_QUAD = _F(TOUT='OUI'))

MA  =  DEFI_GROUP(
    reuse  = MA,
    MAILLAGE = MA,
    CREA_GROUP_MA = (

# LINES
     _F(NOM = 'DCB_G',  GROUP_MA = 'GM981'),
     _F(NOM = 'DCB_D',  GROUP_MA = 'GM982'),
     _F(NOM = 'DCB_JH', GROUP_MA = 'GM983'),
     _F(NOM = 'DCB_JB', GROUP_MA = 'GM984'),
     _F(NOM = 'DCB_HG', GROUP_MA = 'GM985'),
     _F(NOM = 'DCB_HD', GROUP_MA = 'GM986'),
     _F(NOM = 'DCB_BG', GROUP_MA = 'GM987'),

# SURFACES
     _F(NOM = 'DCB1'  ,  GROUP_MA = 'GM988'),
     _F(NOM = 'DCB2'  ,  GROUP_MA = 'GM989'),
     _F(NOM = 'DCBJ'  ,  GROUP_MA = 'GM990'),
   ),

    CREA_GROUP_NO = (
     _F(NOM = 'DCB_G',  GROUP_MA = 'GM981'),
     _F(NOM = 'NO_7',   GROUP_MA = 'GM954'),
  )
)


MA=MODI_MAILLAGE(reuse =MA,
                 MAILLAGE=MA,
                 ORIE_FISSURE=_F(GROUP_MA='DCBJ'),
                 )

MO=AFFE_MODELE(

                MAILLAGE=MA,
                AFFE= (
                _F(
                        GROUP_MA = ('DCB1','DCB2','DCB_G'),
                        PHENOMENE = 'MECANIQUE',
                        MODELISATION = 'D_PLAN'
                     ),
                _F(
                        GROUP_MA = 'DCBJ',
                        PHENOMENE = 'MECANIQUE',
                        MODELISATION = 'PLAN_INTERFACE'
                       ),
                 ))


# DEFINITION DE LA POSITION DE LA FISSURE DANS LE REPERE GLOBAL
ORIEN_FI=AFFE_CARA_ELEM(MODELE=MO,
                     MASSIF=(_F(GROUP_MA='DCBJ',ANGL_REP=(90, 0 ,0))));


MATE=DEFI_MATERIAU(
     ELAS=_F(
             E =  young,
             NU = nnuu),
     ECRO_LINE=_F(
                  D_SIGM_EPSI=ecrou,
                  SY=splas),
     RUPT_FRAG = _F(
                     GC        = tenac,
                     SIGM_C    = sigc,
                     PENA_LAGR = pen_lag,
                     RIGI_GLIS = ri_gli,
                    ))


CM=AFFE_MATERIAU(
               MAILLAGE=MA,
               AFFE=_F(
                       GROUP_MA = ('DCB1','DCB2','DCBJ'),
                       MATER = MATE),
              )


# CHARGEMENTS

SYMETRIE = AFFE_CHAR_MECA(
  MODELE = MO,
  FACE_IMPO = ( _F(GROUP_MA='DCB_JB',DY = 0))
 )

TRACTION = AFFE_CHAR_MECA(
 MODELE = MO,
  DDL_IMPO = (_F(GROUP_NO = 'NO_7'   ,DX = 0)),
  FACE_IMPO= (_F(GROUP_MA = 'DCB_G'  ,DY = 1 ),
            ))

# LISTES D'INSTANT ET D'ARCHIVAGE

deb = -(val_inf/delta_U) - 0.0000001

L_INST=DEFI_LIST_REEL(DEBUT   = deb,
     INTERVALLE=(
      _F( JUSQU_A = 0,        NOMBRE = 10 ),
      _F( JUSQU_A = tfin  ,   NOMBRE = nbpas ),

      ))

INS_ARCH=DEFI_LIST_REEL(DEBUT   = deb,
     INTERVALLE=(
      _F( JUSQU_A = 0,        NOMBRE = 1 ),
      _F( JUSQU_A = 1,        NOMBRE = 1 ),
      _F( JUSQU_A = tfin  ,   NOMBRE = nbarch),

      ))

# DEFINITION DE L'EVOLUTION DU CHARGEMENT

a = []
b = []

#   FONCTION AMPLITUDE CONSTANTE
for i in xrange(nb_cy_max) :
  a.extend((2*i,val_inf,2*i+1,val_sup))

#   FONCTION AMPLITUDE CONSTANTE ET SURCHARGE
for i in xrange(nb_cy_1) :
  b.extend((2*i,val_inf,2*i+1,val_sup))

for i in range(nb_cy_1,nb_cy_2) :
  b.extend((2*i,val_inf,2*i+1,val_surch))

for i in range(nb_cy_2,nb_cy_3) :
  b.extend((2*i,val_inf,2*i+1,val_sup))


FCT_FAT = DEFI_FONCTION(
  NOM_PARA = 'INST',
  PROL_GAUCHE='LINEAIRE',
  VALE     = a,
  )

DEFLIST =DEFI_LIST_INST(DEFI_LIST=_F(LIST_INST =L_INST ),
                        ECHEC=_F(ACTION       = 'DECOUPE',
                                 SUBD_METHODE = 'MANUEL',
                  SUBD_PAS  = 3,
                  SUBD_PAS_MINI = 1.E-10,
                  SUBD_NIVEAU=10,
                                 ))

# CALCUL
# LES SYSTEMES LINEAIRES SONT DIFFICILES A RESOUDRE.
# ON DEVERROUILLE LA DETECTION DE SINGULARITE. LE PROCESSUS DE NEWTON
# CORRIGE LES EVENTUELLES DERIVES.
U=STAT_NON_LINE(
  MODELE     = MO,
  CHAM_MATER = CM,
  CARA_ELEM  = ORIEN_FI,
  EXCIT      = (
                 _F(CHARGE = SYMETRIE),
                 _F(CHARGE = TRACTION,
                    FONC_MULT = FCT_FAT),
               ),
  COMP_INCR  = (
                _F(RELATION = loi_vol,  GROUP_MA = ('DCB1','DCB2')),
                _F(RELATION = loi_czm ,    GROUP_MA = 'DCBJ'),
                ),
  INCREMENT  = _F(LIST_INST = DEFLIST,
                  INST_FIN = tfin,
                  ),
  NEWTON     = _F(MATRICE  = 'TANGENTE'  , REAC_ITER=1),
  CONVERGENCE = _F(
                   RESI_REFE_RELA = 1.E-6,
                   SIGM_REFE      = sigc,
                   DEPL_REFE      = dc,
                   ITER_GLOB_MAXI = 8,
                  ),
  SOLVEUR = _F(METHODE = 'MUMPS',NPREC=-1),
  ARCHIVAGE = _F(LIST_INST = INS_ARCH
    ))

# POST_TRAITEMENT

U = CALC_CHAMP(reuse = U,


  RESULTAT = U,
  FORCE='FORC_NODA',
  TOUT = 'OUI',
  )

FORC = POST_RELEVE_T(
 ACTION = _F(
   INTITULE     = 'FORCE_G',
   OPERATION    = 'EXTRACTION',
   GROUP_NO        = 'DCB_G',
   NOM_CHAM     = 'FORC_NODA',
   RESULTANTE   = ('DX','DY'),
   RESULTAT     =  U,
   TOUT_ORDRE   = 'OUI',
    ))
DEPLA = POST_RELEVE_T(
 ACTION = _F(
   INTITULE     = 'DEPLY',
   OPERATION    = 'EXTRACTION',
   GROUP_NO        = 'NO_7',
   NOM_CHAM     = 'DEPL',
   NOM_CMP   = ('DX','DY'),
   RESULTAT     =  U,
   TOUT_ORDRE   = 'OUI',
    ))


# TESTS RESU

TEST_TABLE(TABLE=FORC,
           FILTRE=(_F(NOM_PARA='INST',
                      VALE=3.0)),
           NOM_PARA='DY',
           VALE=3.16128,
           REFERENCE='NON_REGRESSION')

TEST_TABLE(TABLE=FORC,
           FILTRE=(_F(NOM_PARA='INST',
                      VALE=5.0)),
           NOM_PARA='DY',
           VALE=3.15865,
           REFERENCE='NON_REGRESSION')

TEST_TABLE(TABLE=DEPLA,
           FILTRE=(_F(NOM_PARA='INST',
                      VALE=5.0)),
           NOM_PARA='DY',
           VALE=val_sup,
           REFERENCE='NON_REGRESSION')

TEST_RESU (
  RESU = (
          _F(
             RESULTAT  = U,
             REFERENCE = 'NON_REGRESSION',
             NOM_CHAM  = 'VARI_ELGA',
             NOM_CMP   = 'V7',
             VALE      = 7.72751E-05,
             MAILLE    = 'M9788',
             POINT     = 2,
             INST      = tfin
      ),
    )
  )

IMPR_TABLE(TABLE = DEPLA);
IMPR_TABLE(TABLE = FORC);
IMPR_RESU(FORMAT='RESULTAT',RESU=(_F(RESULTAT=U,
                                     NOM_CHAM='VARI_ELGA',
                                     INST=tfin,
                                     MAILLE=('M9788','M9789','M9790','M9791','M9792'),
                                     NOM_CMP=('V3','V7'))))


FIN(FORMAT_HDF='OUI')

