# TITRE ADAPTATION DE MAILLAGE EN NON-LINEAIRE
# ======================================================================
# COPYRIGHT (C) 1991 - 2012  EDF R&D                  WWW.CODE-ASTER.ORG
# THIS PROGRAM IS FREE SOFTWARE; YOU CAN REDISTRIBUTE IT AND/OR MODIFY
# IT UNDER THE TERMS OF THE GNU GENERAL PUBLIC LICENSE AS PUBLISHED BY
# THE FREE SOFTWARE FOUNDATION; EITHER VERSION 2 OF THE LICENSE, OR
# (AT YOUR OPTION) ANY LATER VERSION.
#
# THIS PROGRAM IS DISTRIBUTED IN THE HOPE THAT IT WILL BE USEFUL, BUT
# WITHOUT ANY WARRANTY; WITHOUT EVEN THE IMPLIED WARRANTY OF
# MERCHANTABILITY OR FITNESS FOR A PARTICULAR PURPOSE. SEE THE GNU
# GENERAL PUBLIC LICENSE FOR MORE DETAILS.
#
# YOU SHOULD HAVE RECEIVED A COPY OF THE GNU GENERAL PUBLIC LICENSE
# ALONG WITH THIS PROGRAM; IF NOT, WRITE TO EDF R&D CODE_ASTER,
#    1 AVENUE DU GENERAL DE GAULLE, 92141 CLAMART CEDEX, FRANCE.
# ======================================================================

DEBUT(CODE=_F(NIV_PUB_WEB='INTERNET',),);


NbIncr=20
DT=10./NbIncr
Depl=0.2

MA=LIRE_MAILLAGE(FORMAT='MED',);
MA=DEFI_GROUP(reuse =MA,
              MAILLAGE=MA,
              CREA_GROUP_NO=_F(TOUT_GROUP_MA='OUI',),);

MO=AFFE_MODELE(MAILLAGE=MA,
               VERIF='MAILLE',
               AFFE=_F(TOUT='OUI',
                       PHENOMENE='MECANIQUE',
                       MODELISATION='C_PLAN',),);

# -----------------------------------------------------------------------------
#  CREATION DES OBJETS DE L'ETUDE (MODELE, CHARGEMENTS, ...)
# -----------------------------------------------------------------------------
# COURBE DE TRACTION
CTRAC=DEFI_FONCTION(VALE=(1.00000E-03,  2.00000E+02,
                          6.00000E-03,  2.15275E+02,
                          1.10000E-02,  2.27253E+02,
                          1.60000E-02,  2.36630E+02,
                          2.10000E-02,  2.43964E+02,
                          2.60000E-02,  2.49694E+02,
                          3.10000E-02,  2.54168E+02,
                          3.60000E-02,  2.57659E+02,
                          4.10000E-02,  2.60382E+02,
                          4.60000E-02,  2.62506E+02,
                          5.10000E-02,  2.64161E+02,
                          5.60000E-02,  2.65451E+02,
                          6.10000E-02,  2.66457E+02,
                          6.60000E-02,  2.67240E+02,
                          7.10000E-02,  2.67850E+02,
                          7.60000E-02,  2.68325E+02,
                          8.10000E-02,  2.68696E+02,
                          8.60000E-02,  2.68984E+02,
                          9.10000E-02,  2.69209E+02,
                          9.60000E-02,  2.69384E+02,
                          1.01000E-01,  2.69520E+02,
# ... 20 like lines cut
                          ),
                    NOM_PARA='EPSI',
                    PROL_DROITE='CONSTANT',);

MATE=DEFI_MATERIAU(ELAS=_F(E=200000.0,
                           NU=0.3,),
                   TRACTION=_F(SIGM=CTRAC,),);

CM=AFFE_MATERIAU(MAILLAGE=MA,
                 AFFE=_F(TOUT='OUI',
                         MATER=MATE,),);

CH1=AFFE_CHAR_CINE(MODELE=MO,
                   MECA_IMPO=(_F(GROUP_MA='bas',    DY=0.0,),
                              _F(GROUP_MA='gauche', DX=0.0,),
                              _F(GROUP_MA='haut',   DY=Depl,)),);

# L INSTANT EST EGAL A LA VALEUR DE LA TRACTION SUR LFG
F_DEPL=DEFI_FONCTION(NOM_PARA='INST',
                     VALE=(0.0,  0.0,
                           10.0, 1.0,
                           ),);

# DISCRETISATION EN TEMPS
INST=DEFI_LIST_REEL(DEBUT=0.0,
                    INTERVALLE=_F(JUSQU_A=10.0,
                                  NOMBRE=NbIncr,),);

L_INST=DEFI_LIST_INST(DEFI_LIST=_F(METHODE='AUTO',
                                    LIST_INST=INST,
                                    PAS_MINI=0.001,));

# -----------------------------------------------------------------------------
#  RESOLUTION PAS 0->10
# -----------------------------------------------------------------------------
RESUNL=STAT_NON_LINE(MODELE=MO,
                     CHAM_MATER=CM,
                     EXCIT=(_F(CHARGE=CH1,
                               FONC_MULT=F_DEPL,),),
                     COMPORTEMENT=_F(RELATION='VMIS_ISOT_TRAC',),
                     ARCHIVAGE=_F(LIST_INST=INST),
                     METHODE='NEWTON_KRYLOV',
                     SOLVEUR=_F(METHODE='GCPC',
                                PRE_COND='LDLT_SP',
                                REAC_PRECOND=999,),
                     INCREMENT=_F(LIST_INST=L_INST,
                                  INST_FIN=10.,),
                     NEWTON=_F(REAC_ITER=1,),
                     INFO=1,);


RESUNL=CALC_CHAMP(reuse=RESUNL,
                  RESULTAT=RESUNL,
                  CONTRAINTE='SIGM_NOEU',
                  VARI_INTERNE='VARI_NOEU',);

TEST_RESU(RESU=(_F(GROUP_NO='B',
                   INST=10.0,
                   RESULTAT=RESUNL,
                   NOM_CHAM='SIGM_NOEU',
                   NOM_CMP='SIYY',
                   VALE_CALC=250.41027791082999,
                   ),
                _F(GROUP_NO='A',
                   INST=10.0,
                   RESULTAT=RESUNL,
                   NOM_CHAM='SIGM_NOEU',
                   NOM_CMP='SIXX',
                   VALE_CALC=-214.58706080190001,
                   ),
                ),
          )

SIGBAS2=MACR_LIGN_COUPE(RESULTAT=RESUNL,
                        INST=10.,
                        NOM_CHAM='VARI_NOEU',
                        LIGN_COUPE=_F(NB_POINTS=30,
                                      COOR_ORIG=(0,30,),
                                      COOR_EXTR=(100,30,),),);

IMPR_TABLE(TABLE=SIGBAS2,
           NOM_PARA=('ABSC_CURV','V1',),);




FIN();
