# MODIF  DATE 17/12/2012   AUTEUR LAVERNE J.LAVERNE 
# TITRE MODELISATION DES SOUS PRESSION D'UN BARRAGE 2D A L'AIDE DES ELEMENTS DE JOINT HYME ET DE LA LOI JOINT_MECA_FROT
# ssnp142g.para = tps_job 120 mem_job 768Mo ncpus 1 liste_test S
#            CONFIGURATION MANAGEMENT OF EDF VERSION
# ======================================================================
# COPYRIGHT (C) 1991 - 2012  EDF R&D                  WWW.CODE-ASTER.ORG
# THIS PROGRAM IS FREE SOFTWARE; YOU CAN REDISTRIBUTE IT AND/OR MODIFY  
# IT UNDER THE TERMS OF THE GNU GENERAL PUBLIC LICENSE AS PUBLISHED BY  
# THE FREE SOFTWARE FOUNDATION; EITHER VERSION 2 OF THE LICENSE, OR     
# (AT YOUR OPTION) ANY LATER VERSION.                                                    
#                                                                       
# THIS PROGRAM IS DISTRIBUTED IN THE HOPE THAT IT WILL BE USEFUL, BUT   
# WITHOUT ANY WARRANTY; WITHOUT EVEN THE IMPLIED WARRANTY OF            
# MERCHANTABILITY OR FITNESS FOR A PARTICULAR PURPOSE. SEE THE GNU      
# GENERAL PUBLIC LICENSE FOR MORE DETAILS.                              
#                                                                       
# YOU SHOULD HAVE RECEIVED A COPY OF THE GNU GENERAL PUBLIC LICENSE     
# ALONG WITH THIS PROGRAM; IF NOT, WRITE TO EDF R&D CODE_ASTER,         
#    1 AVENUE DU GENERAL DE GAULLE, 92141 CLAMART CEDEX, FRANCE.        
# ======================================================================
DEBUT(CODE=_F(NOM='SSNP142G',NIV_PUB_WEB='INTERNET',VISU_EFICAS='OUI'),PAR_LOT='OUI',DEBUG=_F(SDVERI='OUI'))

######## PARAMETRES #############
tfin=4.
# PARAMETRES MECANIQUES DU BARRAGE DE LA TERRE ET DE L'EAU (VALEURS TESTS)
young=3.E12
poiss=0.25
rho_b=2400.
rho_t=0.
rho_e=1000.
ap=9.81
h=10.
long=5.

# NIVEAU D'EAU
niv_am=DEFI_FONCTION(NOM_PARA='INST',NOM_RESU='NRT_AM',VALE=(0,0, 1,3, 2,6, 3,8, 4,9));
niv_av=DEFI_FONCTION(NOM_PARA='INST',NOM_RESU='NRT_AV',VALE=(0,0, 1,0, 2,0, 3,0, 4,0));

# PARAMETRES MECANIQUES DES JOINTS
k_n=1E12
k_t=2*k_n
# JOINT FROTTEMENT
mu=0.4
adhe=1000.
ecrouissage=k_t*0.1

##################################

MA0=LIRE_MAILLAGE(FORMAT='MED');

MA=CREA_MAILLAGE(MAILLAGE  = MA0, LINE_QUAD = _F(TOUT='OUI'))

MA=DEFI_GROUP(reuse =MA,
              MAILLAGE=MA,

  CREA_GROUP_MA = (

# SURFACES
    _F(NOM = 'BARRAGE',    GROUP_MA = 'G_2D_27'),
    _F(NOM = 'TERRE'  ,    GROUP_MA = 'G_2D_29'),
    _F(NOM = 'JOINT'  ,    GROUP_MA = 'G_2D_28'),

# LIGNES
    _F(NOM = 'TER_BORD', UNION = ('G_1D_33','G_1D_35','G_1D_36')),
    _F(NOM = 'BAR_AM',  GROUP_MA = 'G_1D_38'),
    _F(NOM = 'BAR_AV',   GROUP_MA = 'G_1D_40'),
    _F(NOM = 'JOINT_H'  ,  GROUP_MA = 'G_1D_42'),
    _F(NOM = 'JOINT_B'  ,  GROUP_MA = 'G_1D_43'),
    _F(NOM = 'J_FX_AM'  ,  GROUP_MA = 'G_1D_44'),
    _F(NOM = 'J_FX_AV'  ,  GROUP_MA = 'G_1D_45'),
          ),

   CREA_GROUP_NO = (
# LIGNES
    _F(NOM = 'JOINT'  ,    GROUP_MA = 'JOINT'),
    _F(NOM = 'JOINT_H'  ,  GROUP_MA = 'JOINT_H',OPTION='NOEUD_ORDO'),
    _F(NOM = 'JOINT_B'  ,  GROUP_MA = 'JOINT_B',OPTION='NOEUD_ORDO'),
    _F(NOM = 'J_PRE'    ,  OPTION='PLAN',POINT=(0.00,-5.0E-04 ),VECT_NORMALE=(0.,1.),PRECISION=1.0E-06),
                               ));

# ORIENTATION DES MAILLES SURFACIQUES
MA=MODI_MAILLAGE(reuse =MA,
                   MAILLAGE=MA,
                   ORIE_PEAU_2D=_F(GROUP_MA=('BAR_AM','BAR_AV','J_FX_AM','J_FX_AV')),
                   INFO=1)

# ORIENTATION DES MAILLES DE JOINT
MA=MODI_MAILLAGE(reuse =MA,
                   MAILLAGE=MA,
                   ORIE_FISSURE=_F(GROUP_MA='JOINT'),
                   INFO=1)


MO=AFFE_MODELE(MAILLAGE=MA,
               VERIF='MAILLE',
               AFFE=(_F(GROUP_MA=('BARRAGE','TERRE','BAR_AM','BAR_AV'),
                        PHENOMENE='MECANIQUE',
                        MODELISATION='D_PLAN'),
                     _F(GROUP_MA=('JOINT'),
                        PHENOMENE='MECANIQUE',
                        MODELISATION='PLAN_JOINT_HYME')));

# MATERIAU BETON ET TERRE
MAT_B=DEFI_MATERIAU(ELAS=_F(
                              E   = young,
                              NU  = poiss,
                              RHO = rho_b))

MAT_T=DEFI_MATERIAU(ELAS=_F(
                              E   = young,
                              NU  = poiss,
                              RHO = rho_t))

# MATERIAU JOINT HYDRO MECANIQUE AVEC FROTTEMENT
MAT_JHM=DEFI_MATERIAU(
                  JOINT_MECA_FROT=_F(K_N=k_n,
                                     K_T=k_t,
                                     PENA_TANG=ecrouissage,
                                     MU=mu,
                                     ADHESION=adhe, 
                                     RHO_FLUIDE=1000., #kg/m^3
                                     VISC_FLUIDE=1.E-3, #Pa.s
                                     OUV_MIN=5.E-8 #m
                                ),);


CM_HM=AFFE_MATERIAU(MAILLAGE=MA,
                 AFFE=(
                      _F(GROUP_MA='BARRAGE',MATER = MAT_B),
                      _F(GROUP_MA='TERRE',  MATER = MAT_T),
                      _F(GROUP_MA='JOINT',  MATER = MAT_JHM))
                 );

# CONDITION AUX LIMITES SUR LA TERRE
TERRE=AFFE_CHAR_MECA(MODELE=MO,FACE_IMPO=_F(GROUP_MA='TER_BORD',DX=0.0,DY=0.0));

# POIDS
PESBAR = AFFE_CHAR_MECA(
  MODELE = MO,
  FORCE_INTERNE = (_F(GROUP_MA='BARRAGE',FX=0, FY=-rho_b*ap))
  );
PESTER = AFFE_CHAR_MECA(
  MODELE = MO,
  FORCE_INTERNE = (_F(GROUP_MA='TERRE',  FX=0, FY=-rho_t*ap))
  );

# PRESSION D'EAU SUR LE BARRAGE
p_am = FORMULE(VALE='max(rho_e*ap*(niv_am(INST)-Y),0)',NOM_PARA=('Y','INST'));
p_av = FORMULE(VALE='max(rho_e*ap*(niv_av(INST)-Y),0)',NOM_PARA=('Y','INST'));

PAM =AFFE_CHAR_MECA_F(MODELE=MO,PRES_REP=_F(GROUP_MA=('BAR_AM'),PRES=p_am));
PAV =AFFE_CHAR_MECA_F(MODELE=MO,PRES_REP=_F(GROUP_MA=('BAR_AV'),PRES=p_av));

# PRESSION EN AMONT ET AVAL DE FISSURE
pamj = FORMULE(VALE='max(rho_e*ap*(niv_am(INST)),0.0)',NOM_PARA=('Y','INST'));
pavj = FORMULE(VALE='max(rho_e*ap*(niv_av(INST)),0.0)',NOM_PARA=('Y','INST'));

# ON UTILISE AFFE_CHAR_CINE CAR PLUS ROBUSTE POUR LES CALCULS AVEC EJ ET SOLVEUR MUMPS
P_AM_J = AFFE_CHAR_CINE_F(MODELE = MO,MECA_IMPO = (_F(NOEUD='NS275', PRE1=pamj )))
P_AV_J = AFFE_CHAR_CINE_F(MODELE = MO,MECA_IMPO = (_F(NOEUD='NS276', PRE1=pavj )))

# LISTE D'INSTANTS
LR=DEFI_LIST_REEL(DEBUT=0.0,INTERVALLE=(_F(JUSQU_A=3, NOMBRE=1),_F(JUSQU_A=tfin, NOMBRE=5)));
L_INST =DEFI_LIST_INST(DEFI_LIST=_F(LIST_INST = LR ),
                        ECHEC=_F(
                                 SUBD_NIVEAU=6,
                                 SUBD_PAS  = 2,
                                 SUBD_PAS_MINI = 1.E-10))

# CALCUL HYDRO MECANIQUE
U_HM=STAT_NON_LINE(MODELE=MO,
                  CHAM_MATER=CM_HM,
                  EXCIT=(
                         _F(CHARGE=TERRE),
                         _F(CHARGE=PESBAR),
                         _F(CHARGE=PESTER),
                         _F(CHARGE=PAM),
                         _F(CHARGE=PAV),

                         _F(CHARGE=P_AM_J),
                         _F(CHARGE=P_AV_J),
                          ),
                  COMP_INCR=(
                             _F(RELATION='JOINT_MECA_FROT',
                                GROUP_MA='JOINT'),
                             _F(RELATION='ELAS',
                                GROUP_MA=('TERRE','BARRAGE'))),
                  INCREMENT=_F(LIST_INST=L_INST,INST_FIN=tfin),
                  NEWTON=_F(MATRICE='TANGENTE',REAC_ITER=1),
                  SOLVEUR = _F(METHODE = 'MUMPS',NPREC=-1),
                  CONVERGENCE = _F(
                                   ITER_GLOB_MAXI = 45,
                                   RESI_REFE_RELA = 1.E-6,
                                   SIGM_REFE      = 1.E5,
                                   FLUX_HYD1_REFE = 1.E-14),
                  ARCHIVAGE = _F(LIST_INST = LR)
                  );

################### POST TRAITEMENT U_HM  #######################

U_HM=CALC_CHAMP(reuse =U_HM,
               RESULTAT=U_HM,
                VARI_INTERNE=('VARI_ELNO'),
               GROUP_MA='JOINT');

U_HM=CALC_CHAMP(reuse =U_HM,
               RESULTAT=U_HM,
                CONTRAINTE=('SIEF_ELNO'),
               GROUP_MA='JOINT');

U_HM=CALC_CHAMP(reuse =U_HM,
             RESULTAT=U_HM,
             VARI_INTERNE='VARI_NOEU',CONTRAINTE='SIEF_NOEU',
             GROUP_MA='JOINT');

# SAUT NORMAL DANS LE JOINT
SAUTHM=POST_RELEVE_T(ACTION=_F(OPERATION='EXTRACTION',
                               INTITULE='SAUT_N',
                               RESULTAT=U_HM,
                               NOM_CHAM='VARI_NOEU',
                               INST=tfin,
                               GROUP_NO=('JOINT_H'),
                               NOM_CMP='V7'));
                               
# FLUX HYDRO DANS LE JOINT
FLUXHM=POST_RELEVE_T(ACTION=_F(OPERATION='EXTRACTION',
                               INTITULE='SAUT_N',
                               RESULTAT=U_HM,
                               NOM_CHAM='VARI_NOEU',
                               INST=tfin,
                               GROUP_NO=('JOINT_H'),
                               NOM_CMP='V15'));
                               
# CONTRAINTE NORMALE TOTALE DANS LE JOINT
SNT_HM=POST_RELEVE_T(ACTION=_F(OPERATION='EXTRACTION',
                               INTITULE='SIG_N',
                               RESULTAT=U_HM,
                               NOM_CHAM='SIEF_NOEU',
                               INST=tfin,
                               GROUP_NO = ('JOINT_H'),
                               NOM_CMP='SIGN'));

# CONTRAINTE NORMALE MECANIQUE DANS LE JOINT (SANS PRESSION DE FLUIDE)
SNM_HM=POST_RELEVE_T(ACTION=_F(OPERATION='EXTRACTION',
                               INTITULE='SIG_N_MECA',
                               RESULTAT=U_HM,
                               NOM_CHAM='VARI_NOEU',
                               INST=tfin,
                               GROUP_NO = ('JOINT_H'),
                               NOM_CMP='V11'));

# PRESSION DE FLUIDE
PRE_HM=POST_RELEVE_T(ACTION=_F(OPERATION='EXTRACTION',
                               INTITULE='PRES_FLUIDE',
                               RESULTAT=U_HM,
                               NOM_CHAM='DEPL',
                               INST=tfin,
                               GROUP_NO = ('J_PRE'),
                               NOM_CMP='PRE1'));


################### TESTS U_HM  NON REGRESSION #######################

TEST_TABLE(
           VALE_CALC=7.23746E-7,
           TOLE_MACHINE=1.E-3,
           NOM_PARA='V7',
           TABLE=SAUTHM,
           FILTRE=_F(NOM_PARA='COOR_X',
                     VALE=1.3,),
           )

TEST_TABLE(
           VALE_CALC=-85782.,
           TOLE_MACHINE=1.E-3,
           NOM_PARA='SIGN',
           TABLE=SNT_HM,
           FILTRE=_F(NOM_PARA='COOR_X',
                     VALE=1.3,),
           )

TEST_TABLE(
           VALE_CALC=-6.0691E-9,
           TOLE_MACHINE=1.E-3,
           NOM_PARA='V7',
           TABLE=SAUTHM,
           FILTRE=_F(NOM_PARA='COOR_X',
                     VALE=3.2000000000000002,),
           )

TEST_TABLE(
           VALE_CALC=-89302.4,
           TOLE_MACHINE=1.E-3,
           NOM_PARA='SIGN',
           TABLE=SNT_HM,
           FILTRE=_F(NOM_PARA='COOR_X',
                     VALE=3.2000000000000002,),
           )

TEST_TABLE(
           VALE_CALC=-3.51349E-07,
           TOLE_MACHINE=1.E-3,
           NOM_PARA='V7',
           TABLE=SAUTHM,
           FILTRE=_F(NOM_PARA='COOR_X',
                     VALE=4.5999999999999996,),
           )

TEST_TABLE(
           VALE_CALC=-3.69955E5,
           TOLE_MACHINE=1.E-3,
           NOM_PARA='SIGN',
           TABLE=SNT_HM,
           FILTRE=_F(NOM_PARA='COOR_X',
                     VALE=4.5999999999999996,),
           )
           
TEST_TABLE(
           VALE_CALC=-4.22676E-13,
           TOLE_MACHINE=1.E-3,
           NOM_PARA='V15',
           TABLE=FLUXHM,
           FILTRE=_F(NOM_PARA='COOR_X',
                     VALE=3.2,),
           )
                     
IMPR_TABLE(TABLE=SAUTHM,FORMAT='TABLEAU',NOM_PARA=('COOR_X','V7'));
IMPR_TABLE(TABLE=SNT_HM,FORMAT='TABLEAU',NOM_PARA=('COOR_X','SIGN'));
IMPR_TABLE(TABLE=SNM_HM,FORMAT='TABLEAU',NOM_PARA=('COOR_X','V11'));
IMPR_TABLE(TABLE=PRE_HM,FORMAT='TABLEAU',NOM_PARA=('COOR_X','PRE1'),TRI=_F(NOM_PARA='COOR_X'));
IMPR_TABLE(TABLE=FLUXHM,FORMAT='TABLEAU',NOM_PARA=('COOR_X','V15'),TRI=_F(NOM_PARA='COOR_X'));
#IMPR_RESU(FORMAT='MED',RESU=_F(RESULTAT=U_HM,GROUP_MA='JOINT'))
FIN(FORMAT_HDF='OUI')
