# MODIF  DATE 10/10/2012   AUTEUR COURTOIS M.COURTOIS 
# TITRE DETECTION DES SINGULARITES DANS UNE PLAQUE FISSUREE (QUAD4)
# ssnp130c.para = tps_job 60 mem_job 512Mo ncpus 1 liste_test S
#            CONFIGURATION MANAGEMENT OF EDF VERSION
# ======================================================================
# COPYRIGHT (C) 1991 - 2012  EDF R&D                  WWW.CODE-ASTER.ORG
# THIS PROGRAM IS FREE SOFTWARE; YOU CAN REDISTRIBUTE IT AND/OR MODIFY
# IT UNDER THE TERMS OF THE GNU GENERAL PUBLIC LICENSE AS PUBLISHED BY
# THE FREE SOFTWARE FOUNDATION; EITHER VERSION 2 OF THE LICENSE, OR
# (AT YOUR OPTION) ANY LATER VERSION.
#
# THIS PROGRAM IS DISTRIBUTED IN THE HOPE THAT IT WILL BE USEFUL, BUT
# WITHOUT ANY WARRANTY; WITHOUT EVEN THE IMPLIED WARRANTY OF
# MERCHANTABILITY OR FITNESS FOR A PARTICULAR PURPOSE. SEE THE GNU
# GENERAL PUBLIC LICENSE FOR MORE DETAILS.
#
# YOU SHOULD HAVE RECEIVED A COPY OF THE GNU GENERAL PUBLIC LICENSE
# ALONG WITH THIS PROGRAM; IF NOT, WRITE TO EDF R&D CODE_ASTER,
#    1 AVENUE DU GENERAL DE GAULLE, 92141 CLAMART CEDEX, FRANCE.
# ======================================================================
# RESPONSABLE DELMAS J.DELMAS
# TEST V6.03.130
# CHARGEMENT EN PRESSION
# MAILLAGE : QUAD4
# COMPORTEMENT ELASTIQUE

DEBUT(CODE=_F(NOM='SSNP130C',
              NIV_PUB_WEB='INTERNET',),
      DEBUG=_F(SDVERI='OUI',),);

MA=LIRE_MAILLAGE(FORMAT='MED',);

MA=DEFI_GROUP(reuse =MA,
              MAILLAGE=MA,
              CREA_GROUP_NO=_F(TOUT_GROUP_MA='OUI',),);

# DEFINITION DU MATERIAU

ACIER=DEFI_MATERIAU(ELAS=_F(E=200000.0,
                            NU=0.3,),);

# DEFINITION DES INSTANTS POUR STAT_NON_LINE

L_INST=DEFI_LIST_REEL(DEBUT=0.0,
                      INTERVALLE=_F(JUSQU_A=1.0,
                                    NOMBRE=1,),);

F_INST=DEFI_FONCTION(NOM_PARA='INST',VALE=(0.0,0.0,
                           1.0,1.0,
                           ),);

MO=AFFE_MODELE(MAILLAGE=MA,
               AFFE=_F(TOUT='OUI',
                       PHENOMENE='MECANIQUE',
                       MODELISATION='C_PLAN',),);

MA=MODI_MAILLAGE(reuse =MA,
                 MAILLAGE=MA,
                 ORIE_PEAU_2D=_F(GROUP_MA='GMP34',),);

CHMAT=AFFE_MATERIAU(MAILLAGE=MA,
                    AFFE=_F(TOUT='OUI',
                            MATER=ACIER,),);

CHP=AFFE_CHAR_MECA(MODELE=MO,
                   PRES_REP=_F(GROUP_MA='GMP34',
                               PRES=1.0,),);

CHCL=AFFE_CHAR_MECA(MODELE=MO,
                    DDL_IMPO=(_F(GROUP_MA='LIGA',
                                 DY=0.0,),
                              _F(GROUP_NO='GNP2',
                                 DX=0.0,),),);

DEPLA=STAT_NON_LINE(MODELE=MO,
                    CHAM_MATER=CHMAT,
                    EXCIT=(_F(CHARGE=CHP,
                              FONC_MULT=F_INST,),
                           _F(CHARGE=CHCL,),),
                    COMP_INCR=_F(RELATION='ELAS',
                                 TOUT='OUI',),
                    INCREMENT=_F(LIST_INST=L_INST,),);

DEPLA=CALC_CHAMP(reuse=DEPLA,RESULTAT=DEPLA,INST=1.,ENERGIE=('ETOT_ELEM'))


DEPLA=CALC_ERREUR(reuse =DEPLA,
                  RESULTAT=DEPLA,
                  INST=1.,
                  OPTION=('ERZ1_ELEM','SING_ELEM','SING_ELNO',),
                  PREC_ERR=0.8,);

# TEST DE SING_ELEM VALEUR MAX ET MIN DES 2 COMPOSANTES

TEST_RESU(RESU=(_F(INST=1.0,
                   REFERENCE='NON_DEFINI',
                   TYPE_TEST='MAX',
                   RESULTAT=DEPLA,
                   NOM_CHAM='SING_ELEM',
                   NOM_CMP='DEGRE',
                   VALE_CALC=1.000000000,
                   VALE_REFE=1.0,
                   CRITERE='RELATIF',
                   PRECISION=1.E-2,),
                _F(INST=1.0,
                   REFERENCE='NON_DEFINI',
                   TYPE_TEST='MIN',
                   RESULTAT=DEPLA,
                   NOM_CHAM='SING_ELEM',
                   NOM_CMP='DEGRE',
                   VALE_CALC=0.502064893,
                   VALE_REFE=0.5,
                   CRITERE='RELATIF',
                   PRECISION=1.E-2,),
                _F(INST=1.0,
                   REFERENCE='NON_DEFINI',
                   TYPE_TEST='MAX',
                   RESULTAT=DEPLA,
                   NOM_CHAM='SING_ELEM',
                   NOM_CMP='RAPPORT',
                   VALE_CALC=2.179419111,
                   VALE_REFE=2.1699999999999999,
                   CRITERE='RELATIF',
                   PRECISION=0.02,),
                _F(INST=1.0,
                   REFERENCE='NON_DEFINI',
                   TYPE_TEST='MIN',
                   RESULTAT=DEPLA,
                   NOM_CHAM='SING_ELEM',
                   NOM_CMP='RAPPORT',
                   VALE_CALC=0.167080335,
                   VALE_REFE=0.16700000000000001,
                   CRITERE='RELATIF',
                   PRECISION=0.02,),
                _F(INST=1.0,
                   REFERENCE='NON_DEFINI',
                   TYPE_TEST='MAX',
                   RESULTAT=DEPLA,
                   NOM_CHAM='SING_ELEM',
                   NOM_CMP='TAILLE',
                   VALE_CALC=4.595934629,
                   VALE_REFE=4.5899999999999999,
                   CRITERE='RELATIF',
                   PRECISION=0.02,),
                _F(INST=1.0,
                   REFERENCE='NON_DEFINI',
                   TYPE_TEST='MIN',
                   RESULTAT=DEPLA,
                   NOM_CHAM='SING_ELEM',
                   NOM_CMP='TAILLE',
                   VALE_CALC=0.202776568,
                   VALE_REFE=0.20000000000000001,
                   CRITERE='RELATIF',
                   PRECISION=0.02,),
                ),
          )

# TEST DE SING_ELEM VALEUR PARTICULIERE EN POINTE DE FISSURE
# LES MAILLES CHOISIES SONT AU VOISINAGE DE LA FISSURE

TEST_RESU(RESU=(_F(INST=1.0,
                   REFERENCE='NON_DEFINI',
                   POINT=1,
                   RESULTAT=DEPLA,
                   NOM_CHAM='SING_ELEM',
                   NOM_CMP='DEGRE',
                   VALE_CALC=0.746599994,
                   VALE_REFE=0.75,
                   CRITERE='RELATIF',
                   PRECISION=1.E-2,
                   MAILLE='M30',),
                _F(INST=1.0,
                   REFERENCE='NON_DEFINI',
                   POINT=1,
                   RESULTAT=DEPLA,
                   NOM_CHAM='SING_ELEM',
                   NOM_CMP='DEGRE',
                   VALE_CALC=0.502064893,
                   VALE_REFE=0.5,
                   CRITERE='RELATIF',
                   PRECISION=1.E-2,
                   MAILLE='M31',),
                _F(INST=1.0,
                   REFERENCE='NON_DEFINI',
                   POINT=1,
                   RESULTAT=DEPLA,
                   NOM_CHAM='SING_ELEM',
                   NOM_CMP='DEGRE',
                   VALE_CALC=0.502064893,
                   VALE_REFE=0.5,
                   CRITERE='RELATIF',
                   PRECISION=1.E-2,
                   MAILLE='M32',),
                _F(INST=1.0,
                   REFERENCE='NON_DEFINI',
                   POINT=1,
                   RESULTAT=DEPLA,
                   NOM_CHAM='SING_ELEM',
                   NOM_CMP='DEGRE',
                   VALE_CALC=0.782504856,
                   VALE_REFE=0.78000000000000003,
                   CRITERE='RELATIF',
                   PRECISION=1.E-2,
                   MAILLE='M55',),
                _F(INST=1.0,
                   REFERENCE='NON_DEFINI',
                   POINT=1,
                   RESULTAT=DEPLA,
                   NOM_CHAM='SING_ELEM',
                   NOM_CMP='DEGRE',
                   VALE_CALC=0.595374246,
                   VALE_REFE=0.59999999999999998,
                   CRITERE='RELATIF',
                   PRECISION=1.E-2,
                   MAILLE='M56',),
                _F(INST=1.0,
                   REFERENCE='NON_DEFINI',
                   POINT=1,
                   RESULTAT=DEPLA,
                   NOM_CHAM='SING_ELEM',
                   NOM_CMP='DEGRE',
                   VALE_CALC=0.595374246,
                   VALE_REFE=0.59999999999999998,
                   CRITERE='RELATIF',
                   PRECISION=1.E-2,
                   MAILLE='M57',),
                ),
          )

# TEST DE SING_ELNO

TEST_RESU(RESU=(_F(INST=1.0,
                   REFERENCE='NON_DEFINI',
                   TYPE_TEST='MAX',
                   RESULTAT=DEPLA,
                   NOM_CHAM='SING_ELNO',
                   NOM_CMP='DEGRE',
                   VALE_CALC=1.000000000,
                   VALE_REFE=1.0,
                   CRITERE='RELATIF',
                   PRECISION=1.E-2,),
                _F(INST=1.0,
                   REFERENCE='NON_DEFINI',
                   TYPE_TEST='MIN',
                   RESULTAT=DEPLA,
                   NOM_CHAM='SING_ELNO',
                   NOM_CMP='DEGRE',
                   VALE_CALC=0.502064893,
                   VALE_REFE=0.5,
                   CRITERE='RELATIF',
                   PRECISION=1.E-2,),
                _F(INST=1.0,
                   REFERENCE='NON_DEFINI',
                   TYPE_TEST='MAX',
                   RESULTAT=DEPLA,
                   NOM_CHAM='SING_ELNO',
                   NOM_CMP='RAPPORT',
                   VALE_CALC=2.179419111,
                   VALE_REFE=2.1699999999999999,
                   CRITERE='RELATIF',
                   PRECISION=0.02,),
                _F(INST=1.0,
                   REFERENCE='NON_DEFINI',
                   TYPE_TEST='MIN',
                   RESULTAT=DEPLA,
                   NOM_CHAM='SING_ELNO',
                   NOM_CMP='RAPPORT',
                   VALE_CALC=0.167080335,
                   VALE_REFE=0.16700000000000001,
                   CRITERE='RELATIF',
                   PRECISION=0.02,),
                _F(INST=1.0,
                   REFERENCE='NON_DEFINI',
                   TYPE_TEST='MAX',
                   RESULTAT=DEPLA,
                   NOM_CHAM='SING_ELNO',
                   NOM_CMP='TAILLE',
                   VALE_CALC=4.595934629,
                   VALE_REFE=4.5899999999999999,
                   CRITERE='RELATIF',
                   PRECISION=0.02,),
                _F(INST=1.0,
                   REFERENCE='NON_DEFINI',
                   TYPE_TEST='MIN',
                   RESULTAT=DEPLA,
                   NOM_CHAM='SING_ELNO',
                   NOM_CMP='TAILLE',
                   VALE_CALC=0.202776568,
                   VALE_REFE=0.20499999999999999,
                   CRITERE='RELATIF',
                   PRECISION=0.02,),
                ),
          )

FIN();
