# TITRE MODELISATION DES SOUS PRESSION D'UN BARRAGE 2D A L'AIDE DES ELEMENT DE JOINT QUADRA ET DE LA LOI JOINT_MECA_RUPT
# ======================================================================
# COPYRIGHT (C) 1991 - 2013  EDF R&D                  WWW.CODE-ASTER.ORG
# THIS PROGRAM IS FREE SOFTWARE; YOU CAN REDISTRIBUTE IT AND/OR MODIFY
# IT UNDER THE TERMS OF THE GNU GENERAL PUBLIC LICENSE AS PUBLISHED BY
# THE FREE SOFTWARE FOUNDATION; EITHER VERSION 2 OF THE LICENSE, OR
# (AT YOUR OPTION) ANY LATER VERSION.
#
# THIS PROGRAM IS DISTRIBUTED IN THE HOPE THAT IT WILL BE USEFUL, BUT
# WITHOUT ANY WARRANTY; WITHOUT EVEN THE IMPLIED WARRANTY OF
# MERCHANTABILITY OR FITNESS FOR A PARTICULAR PURPOSE. SEE THE GNU
# GENERAL PUBLIC LICENSE FOR MORE DETAILS.
#
# YOU SHOULD HAVE RECEIVED A COPY OF THE GNU GENERAL PUBLIC LICENSE
# ALONG WITH THIS PROGRAM; IF NOT, WRITE TO EDF R&D CODE_ASTER,
#    1 AVENUE DU GENERAL DE GAULLE, 92141 CLAMART CEDEX, FRANCE.
# ======================================================================

DEBUT(CODE=_F(NIV_PUB_WEB='INTERNET',VISU_EFICAS='OUI'),PAR_LOT='OUI',DEBUG=_F(SDVERI='OUI'))

######## PARAMETRES #############
tfin=4

# PARAMETRES MECANIQUES DU BARRAGE DE LA TERRE ET DE L'EAU (VALEURS TESTS)
young=3.E12
poiss=0.0
rho_b=2400.
rho_t=0.
rho_e=1000.
ap=9.81
h=10.
long=5.

# NIVEAU D'EAU
niv_am=DEFI_FONCTION(NOM_PARA='INST',NOM_RESU='NRT_AM',VALE=(0,0, 1,3, 2,6, 3,8, 4,9),);
niv_av=DEFI_FONCTION(NOM_PARA='INST',NOM_RESU='NRT_AV',VALE=(0,0, 1,0, 2,0, 3,0, 4,0),);

# PARAMETRES MECANIQUES DES JOINTS
k_n=1E12
sig_m=0.
alpha=1.0
penrup=0.2


pres_ent = FORMULE(NOM_PARA=('INST'),VALE='rho_e*ap*(niv_am(INST))');
pres_sor = FORMULE(NOM_PARA=('INST'),VALE='0.0');

f_flu = FORMULE(NOM_PARA=('X','Y','INST'),VALE='(1/long)*(pres_sor(INST) - pres_ent(INST))*X + pres_ent(INST)');

##################################

MA0=LIRE_MAILLAGE(FORMAT='MED');


MA=CREA_MAILLAGE(MAILLAGE=MA0,
                 LINE_QUAD=_F(TOUT='OUI'),)


MA=DEFI_GROUP(reuse =MA,
              MAILLAGE=MA,

  CREA_GROUP_MA = (

# SURFACES
    _F(NOM = 'BARRAGE',    GROUP_MA = 'G_2D_27'),
    _F(NOM = 'TERRE'  ,    GROUP_MA = 'G_2D_29'),
    _F(NOM = 'JOINT'  ,    GROUP_MA = 'G_2D_28'),

# LINES
    _F(NOM = 'TERRE_BO', UNION = ('G_1D_33','G_1D_35','G_1D_36')),
    _F(NOM = 'BAR_AMON', GROUP_MA = 'G_1D_38'),
    _F(NOM = 'BAR_AVAL',  GROUP_MA = 'G_1D_40'),
    _F(NOM = 'BAR_HAUT',  GROUP_MA = 'G_1D_41'),
    _F(NOM = 'JOINT_H' ,  GROUP_MA = 'G_1D_42'),
    _F(NOM = 'JOINT_B' ,  GROUP_MA = 'G_1D_43'),
          ),

   CREA_GROUP_NO = (
# LINES
    _F(NOM = 'JOINT_H'  ,  GROUP_MA = 'JOINT_H',OPTION='NOEUD_ORDO'),
    _F(NOM = 'JOINT_B'  ,  GROUP_MA = 'JOINT_B',OPTION='NOEUD_ORDO'),

                               ));


MA=MODI_MAILLAGE(reuse =MA,
                   MAILLAGE=MA,
                   ORIE_PEAU_2D=_F(GROUP_MA=('BAR_AMON','BAR_AVAL')),
                   INFO=1)

MA=MODI_MAILLAGE(reuse =MA,
                   MAILLAGE=MA,
                   ORIE_FISSURE=_F(GROUP_MA='JOINT'),
                   INFO=1)

MO=AFFE_MODELE(MAILLAGE=MA,
               VERIF='MAILLE',
               AFFE=(_F(GROUP_MA=('BARRAGE','TERRE','BAR_AMON','BAR_AVAL'),
                        PHENOMENE='MECANIQUE',
                        MODELISATION='D_PLAN',),
                     _F(GROUP_MA='JOINT',
                        PHENOMENE='MECANIQUE',
                        MODELISATION='PLAN_JOINT',),),);

# MATERIAU BETON ET TERRE
MAT_B=DEFI_MATERIAU(ELAS=_F(
                              E   = young,
                              NU  = poiss,
                              RHO = rho_b),)

MAT_T=DEFI_MATERIAU(ELAS=_F(
                              E   = young,
                              NU  = poiss,
                              RHO = rho_t),)

# MATERIAU JOINT MECANIQUE PUR
MAT_J=DEFI_MATERIAU(
                    JOINT_MECA_RUPT=_F(K_N=k_n,
                                       K_T=k_n,
                                       ALPHA=alpha,
                                       SIGM_MAX=sig_m,
                                       PENA_RUPTURE=penrup,),)

# MATERIAU JOINT MECANIQUE AVEC PRESSION DE FLUIDE
MAT_JF=DEFI_MATERIAU(
                    JOINT_MECA_RUPT=_F(K_N=k_n,
                                       K_T=k_n,
                                       ALPHA=alpha,
                                       SIGM_MAX=sig_m,
                                       PENA_RUPTURE=penrup,
                                       PRES_FLUIDE=f_flu),)

CM_M=AFFE_MATERIAU(MAILLAGE=MA,
                 AFFE=(
                      _F(GROUP_MA='BARRAGE',MATER = MAT_B),
                      _F(GROUP_MA='TERRE',  MATER = MAT_T),
                      _F(GROUP_MA='JOINT',  MATER = MAT_J))
                 );

CM_F=AFFE_MATERIAU(MAILLAGE=MA,
                 AFFE=(
                      _F(GROUP_MA='BARRAGE',MATER = MAT_B),
                      _F(GROUP_MA='TERRE',  MATER = MAT_T),
                      _F(GROUP_MA='JOINT',  MATER = MAT_JF))
                 );

# CONDITION AUX LIMITES SUR LA TERRE
TERRE=AFFE_CHAR_MECA(MODELE=MO,FACE_IMPO=_F(GROUP_MA='TERRE_BO',DX=0.0,DY=0.0,),);

# POIDS
PESBAR = AFFE_CHAR_MECA(
  MODELE = MO,
  FORCE_INTERNE = (_F(GROUP_MA='BARRAGE',FX=0, FY=-rho_b*ap))
  );
PESTER = AFFE_CHAR_MECA(
  MODELE = MO,
  FORCE_INTERNE = (_F(GROUP_MA='TERRE',  FX=0, FY=-rho_t*ap))
  );

# PRESSION D'EAU SUR LE BARRAGE
p_am = FORMULE(VALE='max(rho_e*ap*(niv_am(INST)-Y),0)',NOM_PARA=('Y','INST',),);
p_av = FORMULE(VALE='max(rho_e*ap*(niv_av(INST)-Y),0)',NOM_PARA=('Y','INST',),);

PAMONT=AFFE_CHAR_MECA_F(MODELE=MO,PRES_REP=_F(GROUP_MA=('BAR_AMON',),PRES=p_am,),);
PAVAL =AFFE_CHAR_MECA_F(MODELE=MO,PRES_REP=_F(GROUP_MA=('BAR_AVAL', ),PRES=p_av,),);

# LISTE D'INSTANTS
LR=DEFI_LIST_REEL(DEBUT=0.0,INTERVALLE=(_F(JUSQU_A=3, NOMBRE=3,),_F(JUSQU_A=tfin, NOMBRE=2,)));
L_INST =DEFI_LIST_INST(DEFI_LIST=_F(LIST_INST = LR ),
                        ECHEC=_F(
                                 SUBD_NIVEAU=6,
                                 SUBD_PAS  = 10,
                                 SUBD_PAS_MINI = 1.E-10,
                                 ),)

# CALCUL MECANIQUE
U_M=STAT_NON_LINE(MODELE=MO,
                  CHAM_MATER=CM_M,
                  EXCIT=(
                         _F(CHARGE=TERRE),
                         _F(CHARGE=PESBAR),
                         _F(CHARGE=PESTER),
                         _F(CHARGE=PAMONT),
                         _F(CHARGE=PAVAL),),
                  COMPORTEMENT=(_F(RELATION='JOINT_MECA_RUPT',
                                GROUP_MA='JOINT',),
                             _F(RELATION='ELAS',
                                GROUP_MA=('TERRE','BARRAGE')),),
                  INCREMENT=_F(LIST_INST=L_INST,INST_FIN=tfin),
                  NEWTON=_F(MATRICE='TANGENTE',REAC_ITER=1,),
                  RECH_LINEAIRE=_F(ITER_LINE_MAXI=5,),
                  CONVERGENCE=_F(ITER_GLOB_MAXI=12,
                                 RESI_GLOB_RELA=1E-5),
                  SOLVEUR=_F(METHODE='MUMPS',),
                  ARCHIVAGE = _F(LIST_INST = LR)
                  );

# CALCUL MECANIQUE AVEC PRESSION DE FLUIDE DANS LES JOINTS
U_F=STAT_NON_LINE(MODELE=MO,
                  CHAM_MATER=CM_F,
                  EXCIT=(
                         _F(CHARGE=TERRE),
                         _F(CHARGE=PESBAR),
                         _F(CHARGE=PESTER),
                         _F(CHARGE=PAMONT),
                         _F(CHARGE=PAVAL),
                          ),
                  COMPORTEMENT=(_F(RELATION='JOINT_MECA_RUPT',
                                GROUP_MA='JOINT',),
                             _F(RELATION='ELAS',
                                GROUP_MA=('TERRE','BARRAGE')),),
                  INCREMENT=_F(LIST_INST=L_INST,INST_FIN=tfin),
                  NEWTON=_F(MATRICE='TANGENTE',REAC_ITER=1,),
                  RECH_LINEAIRE=_F(ITER_LINE_MAXI=5,),
                  CONVERGENCE=_F(ITER_GLOB_MAXI=12,
                                 RESI_GLOB_RELA=1E-5),
                  SOLVEUR=_F(METHODE='MUMPS',),
                  ARCHIVAGE = _F(LIST_INST = LR)
                  );

################### POST TRAITEMENT U_M  #######################

U_M=CALC_CHAMP(reuse =U_M,
            RESULTAT=U_M,
            VARI_INTERNE='VARI_NOEU',
            CONTRAINTE='SIEF_NOEU',
            GROUP_MA='JOINT');

# SAUT NORMAL DANS LE JOINT
SAUT_M=POST_RELEVE_T(ACTION=_F(OPERATION='EXTRACTION',
                               INTITULE='SAUT_N',
                               RESULTAT=U_M,
                               NOM_CHAM='VARI_NOEU',
                               INST=tfin,
                               GROUP_NO=('JOINT_H',),
                               NOM_CMP='V7',),);

# CONTRAINTE NORMALE DANS LE JOINT
SIGN_M=POST_RELEVE_T(ACTION=_F(OPERATION='EXTRACTION',
                               INTITULE='SIG_N',
                               RESULTAT=U_M,
                               NOM_CHAM='SIEF_NOEU',
                               INST=tfin,
                               GROUP_NO = ('JOINT_H',),
                               NOM_CMP='SIGN'),);

################### POST TRAITEMENT U_F  #######################

U_F=CALC_CHAMP(reuse =U_F,
            RESULTAT=U_F,
            VARI_INTERNE='VARI_NOEU',
            CONTRAINTE='SIEF_NOEU',
            GROUP_MA='JOINT');

# SAUT NORMAL DANS LE JOINT
SAUT_F=POST_RELEVE_T(ACTION=_F(OPERATION='EXTRACTION',
                               INTITULE='SAUT_N',
                               RESULTAT=U_F,
                               NOM_CHAM='VARI_NOEU',
                               INST=tfin,
                               GROUP_NO=('JOINT_H',),
                               NOM_CMP='V7',),);

# CONTRAINTE NORMALE DANS LE JOINT
SIGN_F=POST_RELEVE_T(ACTION=_F(OPERATION='EXTRACTION',
                               INTITULE='SIG_N',
                               RESULTAT=U_F,
                               NOM_CHAM='SIEF_NOEU',
                               INST=tfin,
                               GROUP_NO = ('JOINT_H',),
                               NOM_CMP='SIGN'),);


################### TESTS U_F COMPARAISON GEFDYN ####################

TEST_TABLE(REFERENCE='SOURCE_EXTERNE',
           PRECISION=0.07,
           VALE_CALC= 4.2873294483209E-07,
           VALE_REFE=4.01E-07,
           NOM_PARA='V7',
           TABLE=SAUT_F,
           FILTRE=_F(NOM_PARA='COOR_X',
                     VALE=0.0,),
           )

TEST_TABLE(REFERENCE='SOURCE_EXTERNE',
           PRECISION=1.E-2,
           VALE_CALC=-8.82900000E+04,
           VALE_REFE=-8.8300E4,
           NOM_PARA='SIGN',
           TABLE=SIGN_F,
           FILTRE=_F(NOM_PARA='COOR_X',
                     VALE=0.0,),
           )

TEST_TABLE(REFERENCE='SOURCE_EXTERNE',
           PRECISION=0.05,
           VALE_CALC=-4.4248368765576E-07,
           VALE_REFE=-4.25E-07,
           NOM_PARA='V7',
           TABLE=SAUT_F,
           FILTRE=_F(NOM_PARA='COOR_X',
                     VALE=5.0,),
           )

TEST_TABLE(REFERENCE='SOURCE_EXTERNE',
           PRECISION=0.05,
           VALE_CALC=-4.4248368765576E+05,
           VALE_REFE=-4.25000E5,
           NOM_PARA='SIGN',
           TABLE=SIGN_F,
           FILTRE=_F(NOM_PARA='COOR_X',
                     VALE=5.0,),
           )

################### TESTS U_M NON REGRESSION #######################

TEST_TABLE(
           VALE_CALC=-8.7413170463983E-08,
           NOM_PARA='V7',
           TABLE=SAUT_M,
           FILTRE=_F(NOM_PARA='COOR_X',
                     VALE=1.3,),
           )

TEST_TABLE(
           VALE_CALC=-87413.170463983,
           NOM_PARA='SIGN',
           TABLE=SIGN_M,
           FILTRE=_F(NOM_PARA='COOR_X',
                     VALE=1.3,),
           )

TEST_TABLE(
           VALE_CALC=-1.8543869356566E-07,
           NOM_PARA='V7',
           TABLE=SAUT_M,
           FILTRE=_F(NOM_PARA='COOR_X',
                     VALE=3.2,),
           )

TEST_TABLE(
           VALE_CALC=-1.8543869356566E+05,
           NOM_PARA='SIGN',
           TABLE=SIGN_M,
           FILTRE=_F(NOM_PARA='COOR_X',
                     VALE=3.2,),
           )

TEST_TABLE(
           VALE_CALC=-2.8842288422677E-07,
           NOM_PARA='V7',
           TABLE=SAUT_M,
           FILTRE=_F(NOM_PARA='COOR_X',
                     VALE=4.6,),
           )

TEST_TABLE(
           VALE_CALC=-2.8842288422677E+05,
           NOM_PARA='SIGN',
           TABLE=SIGN_M,
           FILTRE=_F(NOM_PARA='COOR_X',
                     VALE=4.6,),
           )

################### TESTS U_F  NON REGRESSION #######################

TEST_TABLE(
           VALE_CALC=1.358445834605E-07,
           NOM_PARA='V7',
           TABLE=SAUT_F,
           FILTRE=_F(NOM_PARA='COOR_X',
                     VALE=1.3,),
           )

TEST_TABLE(
           VALE_CALC=-6.5334599999999999E4,
           NOM_PARA='SIGN',
           TABLE=SIGN_F,
           FILTRE=_F(NOM_PARA='COOR_X',
                     VALE=1.3,),
           )

TEST_TABLE(
           VALE_CALC=-1.3838829680661E-07,
           NOM_PARA='V7',
           TABLE=SAUT_F,
           FILTRE=_F(NOM_PARA='COOR_X',
                     VALE=3.2,),
           )

TEST_TABLE(
           VALE_CALC=-1.7017269680666E+05,
           NOM_PARA='SIGN',
           TABLE=SIGN_F,
           FILTRE=_F(NOM_PARA='COOR_X',
                     VALE=3.2,),
           )

TEST_TABLE(
           VALE_CALC=-3.1942252518767E-07,
           NOM_PARA='V7',
           TABLE=SAUT_F,
           FILTRE=_F(NOM_PARA='COOR_X',
                     VALE=4.6,),
           )

TEST_TABLE(
           VALE_CALC=-3.2648572518768E+05,
           NOM_PARA='SIGN',
           TABLE=SIGN_F,
           FILTRE=_F(NOM_PARA='COOR_X',
                     VALE=4.6,),
           )


FIN()
